MODEL 1
REMARK VINA RESULT:    -7.291      0.000      0.000
REMARK INTER + INTRA:         -15.880
REMARK INTER:                 -13.045
REMARK INTRA:                  -2.834
REMARK UNBOUND:                -2.834
REMARK  Name = cpd142.pdb
REMARK  16 active torsions:
REMARK  status: ('A' for Active; 'I' for Inactive)
REMARK    1  A    between atoms: C_1  and  O_2
REMARK    2  A    between atoms: O_2  and  C_3
REMARK    3  A    between atoms: C_5  and  C_6
REMARK    4  A    between atoms: C_6  and  C_7
REMARK    5  A    between atoms: C_7  and  C_8
REMARK    6  A    between atoms: C_7  and  C_11
REMARK    7  A    between atoms: C_8  and  C_9
REMARK    8  A    between atoms: N_13  and  C_14
REMARK    9  A    between atoms: C_14  and  C_15
REMARK   10  A    between atoms: C_15  and  C_16
REMARK   11  A    between atoms: C_16  and  C_17
REMARK   12  A    between atoms: C_17  and  C_18
REMARK   13  A    between atoms: C_18  and  C_19
REMARK   14  A    between atoms: C_19  and  N_20
REMARK   15  A    between atoms: N_20  and  C_21
REMARK   16  A    between atoms: C_37  and  O_38
REMARK                            x       y       z     vdW  Elec       q    Type
REMARK                         _______ _______ _______ _____ _____    ______ ____
ROOT
ATOM      1  C   UNL A   1      33.859 -41.769 -28.922  0.00  0.00    -0.037 C 
ENDROOT
BRANCH   1   2
ATOM      2  C   UNL A   1      33.089 -41.796 -27.603  0.00  0.00    +0.012 C 
BRANCH   2   5
ATOM      3  C   UNL A   1      33.346 -39.727 -26.275  0.00  0.00    +0.224 C 
ATOM      4  O   UNL A   1      34.288 -40.168 -25.624  0.00  0.00    -0.275 OA
ATOM      5  N   UNL A   1      32.665 -40.466 -27.217  0.00  0.00    -0.315 N 
ATOM      6  H   UNL A   1      31.866 -40.078 -27.641  0.00  0.00    +0.000 HD
BRANCH   3   7
ATOM      7  C   UNL A   1      32.828 -38.319 -26.058  0.00  0.00    +0.097 C 
BRANCH   7   8
ATOM      8  C   UNL A   1      32.643 -38.032 -24.581  0.00  0.00    +0.142 C 
ATOM      9  C   UNL A   1      33.688 -37.179 -23.912  0.00  0.00    -0.005 C 
ATOM     10  O   UNL A   1      31.663 -38.453 -23.962  0.00  0.00    -0.297 OA
ENDBRANCH   7   8
BRANCH   7  11
ATOM     11  C   UNL A   1      33.773 -37.299 -26.703  0.00  0.00    -0.010 C 
BRANCH  11  14
ATOM     12  C   UNL A   1      32.085 -36.523 -30.042  0.00  0.00    +0.162 A 
ATOM     13  C   UNL A   1      32.722 -37.210 -29.003  0.00  0.00    -0.013 A 
ATOM     14  C   UNL A   1      33.113 -36.540 -27.831  0.00  0.00    -0.043 A 
ATOM     15  C   UNL A   1      32.854 -35.169 -27.705  0.00  0.00    -0.055 A 
ATOM     16  C   UNL A   1      32.216 -34.476 -28.732  0.00  0.00    -0.016 A 
ATOM     17  C   UNL A   1      31.834 -35.154 -29.888  0.00  0.00    +0.158 A 
BRANCH  12  19
ATOM     18  C   UNL A   1      32.455 -38.136 -31.761  0.00  0.00    +0.079 C 
ATOM     19  O   UNL A   1      31.664 -37.089 -31.216  0.00  0.00    -0.491 OA
ENDBRANCH  12  19
BRANCH  17  20
ATOM     20  O   UNL A   1      31.204 -34.472 -30.896  0.00  0.00    -0.503 OA
ATOM     21  H   UNL A   1      30.639 -34.928 -31.489  0.00  0.00    +0.000 HD
ENDBRANCH  17  20
ENDBRANCH  11  14
ENDBRANCH   7  11
ENDBRANCH   3   7
ENDBRANCH   2   5
ENDBRANCH   1   2
BRANCH   1  22
ATOM     22  C   UNL A   1      35.350 -42.027 -28.703  0.00  0.00    -0.052 C 
BRANCH  22  23
ATOM     23  C   UNL A   1      36.251 -41.001 -29.397  0.00  0.00    -0.052 C 
BRANCH  23  24
ATOM     24  C   UNL A   1      36.626 -39.813 -28.510  0.00  0.00    -0.037 C 
BRANCH  24  25
ATOM     25  C   UNL A   1      38.145 -39.625 -28.459  0.00  0.00    +0.009 C 
BRANCH  25  26
ATOM     26  N   UNL A   1      38.440 -38.225 -28.124  0.00  0.00    -0.343 N 
ATOM     27  H   UNL A   1      38.376 -37.848 -27.216  0.00  0.00    +0.000 HD
BRANCH  26  28
ATOM     28  C   UNL A   1      38.830 -37.478 -29.277  0.00  0.00    +0.041 A 
ATOM     29  C   UNL A   1      40.094 -37.677 -29.871  0.00  0.00    -0.005 A 
ATOM     30  C   UNL A   1      40.380 -36.954 -31.033  0.00  0.00    +0.047 A 
ATOM     31  N   UNL A   1      39.494 -36.123 -31.631  0.00  0.00    -0.251 NA
ATOM     32  C   UNL A   1      38.289 -35.945 -31.072  0.00  0.00    +0.073 A 
ATOM     33  C   UNL A   1      37.397 -35.079 -31.691  0.00  0.00    -0.036 A 
ATOM     34  C   UNL A   1      36.127 -34.825 -31.168  0.00  0.00    -0.060 A 
ATOM     35  C   UNL A   1      35.734 -35.446 -29.992  0.00  0.00    -0.061 A 
ATOM     36  C   UNL A   1      36.613 -36.322 -29.355  0.00  0.00    -0.051 A 
ATOM     37  C   UNL A   1      37.897 -36.596 -29.887  0.00  0.00    +0.021 A 
ATOM     38  C   UNL A   1      41.695 -37.098 -31.755  0.00  0.00    -0.010 C 
ATOM     39  C   UNL A   1      42.806 -37.664 -30.878  0.00  0.00    -0.047 C 
ATOM     40  C   UNL A   1      42.309 -38.911 -30.165  0.00  0.00    -0.049 C 
ATOM     41  C   UNL A   1      41.138 -38.570 -29.244  0.00  0.00    -0.024 C 
ENDBRANCH  26  28
ENDBRANCH  25  26
ENDBRANCH  24  25
ENDBRANCH  23  24
ENDBRANCH  22  23
ENDBRANCH   1  22
TORSDOF 14
ENDMDL
MODEL 2
REMARK VINA RESULT:    -7.216     18.745     23.132
REMARK INTER + INTRA:         -15.745
REMARK INTER:                 -12.649
REMARK INTRA:                  -3.096
REMARK UNBOUND:                -2.834
REMARK  Name = cpd142.pdb
REMARK  16 active torsions:
REMARK  status: ('A' for Active; 'I' for Inactive)
REMARK    1  A    between atoms: C_1  and  O_2
REMARK    2  A    between atoms: O_2  and  C_3
REMARK    3  A    between atoms: C_5  and  C_6
REMARK    4  A    between atoms: C_6  and  C_7
REMARK    5  A    between atoms: C_7  and  C_8
REMARK    6  A    between atoms: C_7  and  C_11
REMARK    7  A    between atoms: C_8  and  C_9
REMARK    8  A    between atoms: N_13  and  C_14
REMARK    9  A    between atoms: C_14  and  C_15
REMARK   10  A    between atoms: C_15  and  C_16
REMARK   11  A    between atoms: C_16  and  C_17
REMARK   12  A    between atoms: C_17  and  C_18
REMARK   13  A    between atoms: C_18  and  C_19
REMARK   14  A    between atoms: C_19  and  N_20
REMARK   15  A    between atoms: N_20  and  C_21
REMARK   16  A    between atoms: C_37  and  O_38
REMARK                            x       y       z     vdW  Elec       q    Type
REMARK                         _______ _______ _______ _____ _____    ______ ____
ROOT
ATOM      1  C   UNL A   1      47.308 -16.923 -36.464  0.00  0.00    -0.037 C 
ENDROOT
BRANCH   1   2
ATOM      2  C   UNL A   1      46.002 -16.175 -36.728  0.00  0.00    +0.012 C 
BRANCH   2   5
ATOM      3  C   UNL A   1      44.490 -17.028 -38.487  0.00  0.00    +0.224 C 
ATOM      4  O   UNL A   1      43.829 -17.702 -37.702  0.00  0.00    -0.275 OA
ATOM      5  N   UNL A   1      45.598 -16.300 -38.113  0.00  0.00    -0.315 N 
ATOM      6  H   UNL A   1      46.131 -15.851 -38.808  0.00  0.00    +0.000 HD
BRANCH   3   7
ATOM      7  C   UNL A   1      44.151 -16.978 -39.963  0.00  0.00    +0.097 C 
BRANCH   7   8
ATOM      8  C   UNL A   1      43.456 -15.678 -40.316  0.00  0.00    +0.142 C 
ATOM      9  C   UNL A   1      43.274 -15.373 -41.779  0.00  0.00    -0.005 C 
ATOM     10  O   UNL A   1      43.031 -14.918 -39.442  0.00  0.00    -0.297 OA
ENDBRANCH   7   8
BRANCH   7  11
ATOM     11  C   UNL A   1      45.416 -17.173 -40.806  0.00  0.00    -0.010 C 
BRANCH  11  14
ATOM     12  C   UNL A   1      46.515 -20.686 -41.835  0.00  0.00    +0.162 A 
ATOM     13  C   UNL A   1      46.492 -19.425 -41.230  0.00  0.00    -0.013 A 
ATOM     14  C   UNL A   1      45.447 -18.521 -41.490  0.00  0.00    -0.043 A 
ATOM     15  C   UNL A   1      44.417 -18.895 -42.362  0.00  0.00    -0.055 A 
ATOM     16  C   UNL A   1      44.427 -20.151 -42.967  0.00  0.00    -0.016 A 
ATOM     17  C   UNL A   1      45.470 -21.036 -42.700  0.00  0.00    +0.158 A 
BRANCH  12  19
ATOM     18  C   UNL A   1      47.346 -22.496 -40.521  0.00  0.00    +0.079 C 
ATOM     19  O   UNL A   1      47.485 -21.632 -41.641  0.00  0.00    -0.491 OA
ENDBRANCH  12  19
BRANCH  17  20
ATOM     20  O   UNL A   1      45.478 -22.272 -43.293  0.00  0.00    -0.503 OA
ATOM     21  H   UNL A   1      44.907 -22.449 -44.014  0.00  0.00    +0.000 HD
ENDBRANCH  17  20
ENDBRANCH  11  14
ENDBRANCH   7  11
ENDBRANCH   3   7
ENDBRANCH   2   5
ENDBRANCH   1   2
BRANCH   1  22
ATOM     22  C   UNL A   1      47.157 -17.920 -35.315  0.00  0.00    -0.052 C 
BRANCH  22  23
ATOM     23  C   UNL A   1      46.361 -19.171 -35.700  0.00  0.00    -0.052 C 
BRANCH  23  24
ATOM     24  C   UNL A   1      45.108 -19.387 -34.850  0.00  0.00    -0.037 C 
BRANCH  24  25
ATOM     25  C   UNL A   1      44.236 -20.502 -35.431  0.00  0.00    +0.009 C 
BRANCH  25  26
ATOM     26  N   UNL A   1      42.954 -19.929 -35.862  0.00  0.00    -0.343 N 
ATOM     27  H   UNL A   1      42.751 -18.965 -35.863  0.00  0.00    +0.000 HD
BRANCH  26  28
ATOM     28  C   UNL A   1      42.037 -20.941 -36.282  0.00  0.00    +0.041 A 
ATOM     29  C   UNL A   1      41.151 -21.538 -35.361  0.00  0.00    -0.005 A 
ATOM     30  C   UNL A   1      40.242 -22.476 -35.857  0.00  0.00    +0.047 A 
ATOM     31  N   UNL A   1      40.143 -22.796 -37.170  0.00  0.00    -0.251 NA
ATOM     32  C   UNL A   1      40.977 -22.218 -38.045  0.00  0.00    +0.073 A 
ATOM     33  C   UNL A   1      40.871 -22.567 -39.385  0.00  0.00    -0.036 A 
ATOM     34  C   UNL A   1      41.710 -22.024 -40.361  0.00  0.00    -0.060 A 
ATOM     35  C   UNL A   1      42.687 -21.112 -39.993  0.00  0.00    -0.061 A 
ATOM     36  C   UNL A   1      42.810 -20.746 -38.653  0.00  0.00    -0.051 A 
ATOM     37  C   UNL A   1      41.953 -21.280 -37.660  0.00  0.00    +0.021 A 
ATOM     38  C   UNL A   1      39.244 -23.166 -34.963  0.00  0.00    -0.010 C 
ATOM     39  C   UNL A   1      39.635 -23.142 -33.491  0.00  0.00    -0.047 C 
ATOM     40  C   UNL A   1      40.011 -21.727 -33.085  0.00  0.00    -0.049 C 
ATOM     41  C   UNL A   1      41.224 -21.246 -33.881  0.00  0.00    -0.024 C 
ENDBRANCH  26  28
ENDBRANCH  25  26
ENDBRANCH  24  25
ENDBRANCH  23  24
ENDBRANCH  22  23
ENDBRANCH   1  22
TORSDOF 14
ENDMDL
MODEL 3
REMARK VINA RESULT:    -7.192      2.236      6.190
REMARK INTER + INTRA:         -15.702
REMARK INTER:                 -11.653
REMARK INTRA:                  -4.049
REMARK UNBOUND:                -2.834
REMARK  Name = cpd142.pdb
REMARK  16 active torsions:
REMARK  status: ('A' for Active; 'I' for Inactive)
REMARK    1  A    between atoms: C_1  and  O_2
REMARK    2  A    between atoms: O_2  and  C_3
REMARK    3  A    between atoms: C_5  and  C_6
REMARK    4  A    between atoms: C_6  and  C_7
REMARK    5  A    between atoms: C_7  and  C_8
REMARK    6  A    between atoms: C_7  and  C_11
REMARK    7  A    between atoms: C_8  and  C_9
REMARK    8  A    between atoms: N_13  and  C_14
REMARK    9  A    between atoms: C_14  and  C_15
REMARK   10  A    between atoms: C_15  and  C_16
REMARK   11  A    between atoms: C_16  and  C_17
REMARK   12  A    between atoms: C_17  and  C_18
REMARK   13  A    between atoms: C_18  and  C_19
REMARK   14  A    between atoms: C_19  and  N_20
REMARK   15  A    between atoms: N_20  and  C_21
REMARK   16  A    between atoms: C_37  and  O_38
REMARK                            x       y       z     vdW  Elec       q    Type
REMARK                         _______ _______ _______ _____ _____    ______ ____
ROOT
ATOM      1  C   UNL A   1      31.182 -34.177 -32.499  0.00  0.00    -0.037 C 
ENDROOT
BRANCH   1   2
ATOM      2  C   UNL A   1      30.758 -35.290 -31.542  0.00  0.00    +0.012 C 
BRANCH   2   5
ATOM      3  C   UNL A   1      31.445 -37.587 -30.943  0.00  0.00    +0.224 C 
ATOM      4  O   UNL A   1      30.868 -37.562 -29.860  0.00  0.00    -0.275 OA
ATOM      5  N   UNL A   1      31.495 -36.510 -31.800  0.00  0.00    -0.315 N 
ATOM      6  H   UNL A   1      32.047 -36.572 -32.612  0.00  0.00    +0.000 HD
BRANCH   3   7
ATOM      7  C   UNL A   1      32.196 -38.820 -31.407  0.00  0.00    +0.097 C 
BRANCH   7   8
ATOM      8  C   UNL A   1      31.714 -39.265 -32.773  0.00  0.00    +0.142 C 
ATOM      9  C   UNL A   1      30.540 -40.207 -32.814  0.00  0.00    -0.005 C 
ATOM     10  O   UNL A   1      32.242 -38.850 -33.808  0.00  0.00    -0.297 OA
ENDBRANCH   7   8
BRANCH   7  11
ATOM     11  C   UNL A   1      33.705 -38.550 -31.417  0.00  0.00    -0.010 C 
BRANCH  11  14
ATOM     12  C   UNL A   1      34.427 -40.766 -28.389  0.00  0.00    +0.162 A 
ATOM     13  C   UNL A   1      33.759 -39.959 -29.315  0.00  0.00    -0.013 A 
ATOM     14  C   UNL A   1      34.444 -39.396 -30.405  0.00  0.00    -0.043 A 
ATOM     15  C   UNL A   1      35.812 -39.653 -30.563  0.00  0.00    -0.055 A 
ATOM     16  C   UNL A   1      36.487 -40.460 -29.648  0.00  0.00    -0.016 A 
ATOM     17  C   UNL A   1      35.794 -41.012 -28.572  0.00  0.00    +0.158 A 
BRANCH  12  19
ATOM     18  C   UNL A   1      33.545 -42.746 -27.392  0.00  0.00    +0.079 C 
ATOM     19  O   UNL A   1      33.845 -41.360 -27.301  0.00  0.00    -0.491 OA
ENDBRANCH  12  19
BRANCH  17  20
ATOM     20  O   UNL A   1      36.458 -41.806 -27.675  0.00  0.00    -0.503 OA
ATOM     21  H   UNL A   1      36.160 -41.862 -26.788  0.00  0.00    +0.000 HD
ENDBRANCH  17  20
ENDBRANCH  11  14
ENDBRANCH   7  11
ENDBRANCH   3   7
ENDBRANCH   2   5
ENDBRANCH   1   2
BRANCH   1  22
ATOM     22  C   UNL A   1      31.824 -33.010 -31.747  0.00  0.00    -0.052 C 
BRANCH  22  23
ATOM     23  C   UNL A   1      32.996 -33.435 -30.857  0.00  0.00    -0.052 C 
BRANCH  23  24
ATOM     24  C   UNL A   1      34.212 -32.513 -30.963  0.00  0.00    -0.037 C 
BRANCH  24  25
ATOM     25  C   UNL A   1      35.514 -33.302 -30.811  0.00  0.00    +0.009 C 
BRANCH  25  26
ATOM     26  N   UNL A   1      35.263 -34.707 -31.162  0.00  0.00    -0.343 N 
ATOM     27  H   UNL A   1      34.633 -34.999 -31.860  0.00  0.00    +0.000 HD
BRANCH  26  28
ATOM     28  C   UNL A   1      36.047 -35.597 -30.367  0.00  0.00    +0.041 A 
ATOM     29  C   UNL A   1      37.394 -35.861 -30.694  0.00  0.00    -0.005 A 
ATOM     30  C   UNL A   1      38.114 -36.694 -29.833  0.00  0.00    +0.047 A 
ATOM     31  N   UNL A   1      37.599 -37.211 -28.693  0.00  0.00    -0.251 NA
ATOM     32  C   UNL A   1      36.324 -36.950 -28.377  0.00  0.00    +0.073 A 
ATOM     33  C   UNL A   1      35.808 -37.499 -27.210  0.00  0.00    -0.036 A 
ATOM     34  C   UNL A   1      34.485 -37.289 -26.815  0.00  0.00    -0.060 A 
ATOM     35  C   UNL A   1      33.649 -36.515 -27.605  0.00  0.00    -0.061 A 
ATOM     36  C   UNL A   1      34.146 -35.952 -28.779  0.00  0.00    -0.051 A 
ATOM     37  C   UNL A   1      35.491 -36.148 -29.180  0.00  0.00    +0.021 A 
ATOM     38  C   UNL A   1      39.562 -37.032 -30.082  0.00  0.00    -0.010 C 
ATOM     39  C   UNL A   1      39.990 -36.826 -31.530  0.00  0.00    -0.047 C 
ATOM     40  C   UNL A   1      39.547 -35.451 -32.003  0.00  0.00    -0.049 C 
ATOM     41  C   UNL A   1      38.023 -35.337 -31.963  0.00  0.00    -0.024 C 
ENDBRANCH  26  28
ENDBRANCH  25  26
ENDBRANCH  24  25
ENDBRANCH  23  24
ENDBRANCH  22  23
ENDBRANCH   1  22
TORSDOF 14
ENDMDL
MODEL 4
REMARK VINA RESULT:    -7.056     18.484     22.856
REMARK INTER + INTRA:         -15.460
REMARK INTER:                 -12.347
REMARK INTRA:                  -3.113
REMARK UNBOUND:                -2.834
REMARK  Name = cpd142.pdb
REMARK  16 active torsions:
REMARK  status: ('A' for Active; 'I' for Inactive)
REMARK    1  A    between atoms: C_1  and  O_2
REMARK    2  A    between atoms: O_2  and  C_3
REMARK    3  A    between atoms: C_5  and  C_6
REMARK    4  A    between atoms: C_6  and  C_7
REMARK    5  A    between atoms: C_7  and  C_8
REMARK    6  A    between atoms: C_7  and  C_11
REMARK    7  A    between atoms: C_8  and  C_9
REMARK    8  A    between atoms: N_13  and  C_14
REMARK    9  A    between atoms: C_14  and  C_15
REMARK   10  A    between atoms: C_15  and  C_16
REMARK   11  A    between atoms: C_16  and  C_17
REMARK   12  A    between atoms: C_17  and  C_18
REMARK   13  A    between atoms: C_18  and  C_19
REMARK   14  A    between atoms: C_19  and  N_20
REMARK   15  A    between atoms: N_20  and  C_21
REMARK   16  A    between atoms: C_37  and  O_38
REMARK                            x       y       z     vdW  Elec       q    Type
REMARK                         _______ _______ _______ _____ _____    ______ ____
ROOT
ATOM      1  C   UNL A   1      46.681 -18.525 -36.125  0.00  0.00    -0.037 C 
ENDROOT
BRANCH   1   2
ATOM      2  C   UNL A   1      46.724 -17.290 -37.024  0.00  0.00    +0.012 C 
BRANCH   2   5
ATOM      3  C   UNL A   1      44.877 -17.261 -38.665  0.00  0.00    +0.224 C 
ATOM      4  O   UNL A   1      44.064 -16.816 -37.860  0.00  0.00    -0.275 OA
ATOM      5  N   UNL A   1      46.176 -17.576 -38.333  0.00  0.00    -0.315 N 
ATOM      6  H   UNL A   1      46.749 -18.009 -39.006  0.00  0.00    +0.000 HD
BRANCH   3   7
ATOM      7  C   UNL A   1      44.490 -17.539 -40.104  0.00  0.00    +0.097 C 
BRANCH   7   8
ATOM      8  C   UNL A   1      43.690 -16.389 -40.683  0.00  0.00    +0.142 C 
ATOM      9  C   UNL A   1      44.455 -15.320 -41.415  0.00  0.00    -0.005 C 
ATOM     10  O   UNL A   1      42.461 -16.348 -40.584  0.00  0.00    -0.297 OA
ENDBRANCH   7   8
BRANCH   7  11
ATOM     11  C   UNL A   1      45.741 -17.817 -40.946  0.00  0.00    -0.010 C 
BRANCH  11  14
ATOM     12  C   UNL A   1      46.728 -21.476 -41.436  0.00  0.00    +0.162 A 
ATOM     13  C   UNL A   1      46.709 -20.156 -40.975  0.00  0.00    -0.013 A 
ATOM     14  C   UNL A   1      45.773 -19.233 -41.474  0.00  0.00    -0.043 A 
ATOM     15  C   UNL A   1      44.847 -19.649 -42.439  0.00  0.00    -0.055 A 
ATOM     16  C   UNL A   1      44.854 -20.964 -42.902  0.00  0.00    -0.016 A 
ATOM     17  C   UNL A   1      45.789 -21.867 -42.398  0.00  0.00    +0.158 A 
BRANCH  12  19
ATOM     18  C   UNL A   1      48.915 -22.040 -40.667  0.00  0.00    +0.079 C 
ATOM     19  O   UNL A   1      47.597 -22.445 -41.009  0.00  0.00    -0.491 OA
ENDBRANCH  12  19
BRANCH  17  20
ATOM     20  O   UNL A   1      45.793 -23.160 -42.852  0.00  0.00    -0.503 OA
ATOM     21  H   UNL A   1      45.004 -23.665 -42.835  0.00  0.00    +0.000 HD
ENDBRANCH  17  20
ENDBRANCH  11  14
ENDBRANCH   7  11
ENDBRANCH   3   7
ENDBRANCH   2   5
ENDBRANCH   1   2
BRANCH   1  22
ATOM     22  C   UNL A   1      46.239 -18.167 -34.706  0.00  0.00    -0.052 C 
BRANCH  22  23
ATOM     23  C   UNL A   1      44.961 -18.891 -34.269  0.00  0.00    -0.052 C 
BRANCH  23  24
ATOM     24  C   UNL A   1      43.710 -18.013 -34.323  0.00  0.00    -0.037 C 
BRANCH  24  25
ATOM     25  C   UNL A   1      42.501 -18.810 -34.819  0.00  0.00    +0.009 C 
BRANCH  25  26
ATOM     26  N   UNL A   1      42.780 -20.244 -34.665  0.00  0.00    -0.343 N 
ATOM     27  H   UNL A   1      43.442 -20.614 -34.036  0.00  0.00    +0.000 HD
BRANCH  26  28
ATOM     28  C   UNL A   1      41.973 -21.035 -35.538  0.00  0.00    +0.041 A 
ATOM     29  C   UNL A   1      42.329 -21.205 -36.892  0.00  0.00    -0.005 A 
ATOM     30  C   UNL A   1      41.524 -22.043 -37.670  0.00  0.00    +0.047 A 
ATOM     31  N   UNL A   1      40.465 -22.727 -37.176  0.00  0.00    -0.251 NA
ATOM     32  C   UNL A   1      40.136 -22.574 -35.886  0.00  0.00    +0.073 A 
ATOM     33  C   UNL A   1      39.039 -23.273 -35.398  0.00  0.00    -0.036 A 
ATOM     34  C   UNL A   1      38.619 -23.161 -34.071  0.00  0.00    -0.060 A 
ATOM     35  C   UNL A   1      39.306 -22.325 -33.204  0.00  0.00    -0.061 A 
ATOM     36  C   UNL A   1      40.412 -21.616 -33.671  0.00  0.00    -0.051 A 
ATOM     37  C   UNL A   1      40.854 -21.736 -35.012  0.00  0.00    +0.021 A 
ATOM     38  C   UNL A   1      41.820 -22.303 -39.125  0.00  0.00    -0.010 C 
ATOM     39  C   UNL A   1      42.702 -21.236 -39.761  0.00  0.00    -0.047 C 
ATOM     40  C   UNL A   1      43.915 -20.983 -38.881  0.00  0.00    -0.049 C 
ATOM     41  C   UNL A   1      43.482 -20.453 -37.513  0.00  0.00    -0.024 C 
ENDBRANCH  26  28
ENDBRANCH  25  26
ENDBRANCH  24  25
ENDBRANCH  23  24
ENDBRANCH  22  23
ENDBRANCH   1  22
TORSDOF 14
ENDMDL
MODEL 5
REMARK VINA RESULT:    -7.040     19.807     23.405
REMARK INTER + INTRA:         -15.430
REMARK INTER:                 -11.184
REMARK INTRA:                  -4.246
REMARK UNBOUND:                -2.834
REMARK  Name = cpd142.pdb
REMARK  16 active torsions:
REMARK  status: ('A' for Active; 'I' for Inactive)
REMARK    1  A    between atoms: C_1  and  O_2
REMARK    2  A    between atoms: O_2  and  C_3
REMARK    3  A    between atoms: C_5  and  C_6
REMARK    4  A    between atoms: C_6  and  C_7
REMARK    5  A    between atoms: C_7  and  C_8
REMARK    6  A    between atoms: C_7  and  C_11
REMARK    7  A    between atoms: C_8  and  C_9
REMARK    8  A    between atoms: N_13  and  C_14
REMARK    9  A    between atoms: C_14  and  C_15
REMARK   10  A    between atoms: C_15  and  C_16
REMARK   11  A    between atoms: C_16  and  C_17
REMARK   12  A    between atoms: C_17  and  C_18
REMARK   13  A    between atoms: C_18  and  C_19
REMARK   14  A    between atoms: C_19  and  N_20
REMARK   15  A    between atoms: N_20  and  C_21
REMARK   16  A    between atoms: C_37  and  O_38
REMARK                            x       y       z     vdW  Elec       q    Type
REMARK                         _______ _______ _______ _____ _____    ______ ____
ROOT
ATOM      1  C   UNL A   1      46.195 -16.062 -40.801  0.00  0.00    -0.037 C 
ENDROOT
BRANCH   1   2
ATOM      2  C   UNL A   1      47.162 -16.163 -39.622  0.00  0.00    +0.012 C 
BRANCH   2   5
ATOM      3  C   UNL A   1      46.608 -17.929 -37.983  0.00  0.00    +0.224 C 
ATOM      4  O   UNL A   1      46.007 -17.159 -37.239  0.00  0.00    -0.275 OA
ATOM      5  N   UNL A   1      47.250 -17.523 -39.133  0.00  0.00    -0.315 N 
ATOM      6  H   UNL A   1      47.785 -18.179 -39.636  0.00  0.00    +0.000 HD
BRANCH   3   7
ATOM      7  C   UNL A   1      46.724 -19.406 -37.663  0.00  0.00    +0.097 C 
BRANCH   7   8
ATOM      8  C   UNL A   1      47.097 -19.618 -36.210  0.00  0.00    +0.142 C 
ATOM      9  C   UNL A   1      46.122 -20.382 -35.355  0.00  0.00    -0.005 C 
ATOM     10  O   UNL A   1      48.168 -19.209 -35.755  0.00  0.00    -0.297 OA
ENDBRANCH   7   8
BRANCH   7  11
ATOM     11  C   UNL A   1      45.415 -20.128 -38.007  0.00  0.00    -0.010 C 
BRANCH  11  14
ATOM     12  C   UNL A   1      46.004 -22.231 -41.142  0.00  0.00    +0.162 A 
ATOM     13  C   UNL A   1      46.054 -21.772 -39.822  0.00  0.00    -0.013 A 
ATOM     14  C   UNL A   1      45.381 -20.598 -39.443  0.00  0.00    -0.043 A 
ATOM     15  C   UNL A   1      44.649 -19.886 -40.402  0.00  0.00    -0.055 A 
ATOM     16  C   UNL A   1      44.589 -20.337 -41.720  0.00  0.00    -0.016 A 
ATOM     17  C   UNL A   1      45.262 -21.503 -42.081  0.00  0.00    +0.158 A 
BRANCH  12  19
ATOM     18  C   UNL A   1      47.986 -23.555 -41.254  0.00  0.00    +0.079 C 
ATOM     19  O   UNL A   1      46.622 -23.362 -41.604  0.00  0.00    -0.491 OA
ENDBRANCH  12  19
BRANCH  17  20
ATOM     20  O   UNL A   1      45.200 -21.947 -43.375  0.00  0.00    -0.503 OA
ATOM     21  H   UNL A   1      45.987 -22.178 -43.829  0.00  0.00    +0.000 HD
ENDBRANCH  17  20
ENDBRANCH  11  14
ENDBRANCH   7  11
ENDBRANCH   3   7
ENDBRANCH   2   5
ENDBRANCH   1   2
BRANCH   1  22
ATOM     22  C   UNL A   1      44.803 -15.623 -40.343  0.00  0.00    -0.052 C 
BRANCH  22  23
ATOM     23  C   UNL A   1      43.670 -16.402 -41.020  0.00  0.00    -0.052 C 
BRANCH  23  24
ATOM     24  C   UNL A   1      42.428 -16.563 -40.142  0.00  0.00    -0.037 C 
BRANCH  24  25
ATOM     25  C   UNL A   1      42.805 -17.048 -38.740  0.00  0.00    +0.009 C 
BRANCH  25  26
ATOM     26  N   UNL A   1      41.603 -17.571 -38.077  0.00  0.00    -0.343 N 
ATOM     27  H   UNL A   1      40.724 -17.128 -38.097  0.00  0.00    +0.000 HD
BRANCH  26  28
ATOM     28  C   UNL A   1      41.867 -18.802 -37.402  0.00  0.00    +0.041 A 
ATOM     29  C   UNL A   1      42.218 -18.813 -36.036  0.00  0.00    -0.005 A 
ATOM     30  C   UNL A   1      42.401 -20.059 -35.429  0.00  0.00    +0.047 A 
ATOM     31  N   UNL A   1      42.210 -21.236 -36.071  0.00  0.00    -0.251 NA
ATOM     32  C   UNL A   1      41.864 -21.223 -37.365  0.00  0.00    +0.073 A 
ATOM     33  C   UNL A   1      41.685 -22.439 -38.012  0.00  0.00    -0.036 A 
ATOM     34  C   UNL A   1      41.339 -22.516 -39.363  0.00  0.00    -0.060 A 
ATOM     35  C   UNL A   1      41.170 -21.350 -40.094  0.00  0.00    -0.061 A 
ATOM     36  C   UNL A   1      41.342 -20.118 -39.464  0.00  0.00    -0.051 A 
ATOM     37  C   UNL A   1      41.679 -20.031 -38.090  0.00  0.00    +0.021 A 
ATOM     38  C   UNL A   1      42.766 -20.187 -33.972  0.00  0.00    -0.010 C 
ATOM     39  C   UNL A   1      43.389 -18.923 -33.393  0.00  0.00    -0.047 C 
ATOM     40  C   UNL A   1      42.532 -17.720 -33.750  0.00  0.00    -0.049 C 
ATOM     41  C   UNL A   1      42.470 -17.538 -35.267  0.00  0.00    -0.024 C 
ENDBRANCH  26  28
ENDBRANCH  25  26
ENDBRANCH  24  25
ENDBRANCH  23  24
ENDBRANCH  22  23
ENDBRANCH   1  22
TORSDOF 14
ENDMDL
MODEL 6
REMARK VINA RESULT:    -7.026     19.377     23.202
REMARK INTER + INTRA:         -15.406
REMARK INTER:                 -11.056
REMARK INTRA:                  -4.350
REMARK UNBOUND:                -2.834
REMARK  Name = cpd142.pdb
REMARK  16 active torsions:
REMARK  status: ('A' for Active; 'I' for Inactive)
REMARK    1  A    between atoms: C_1  and  O_2
REMARK    2  A    between atoms: O_2  and  C_3
REMARK    3  A    between atoms: C_5  and  C_6
REMARK    4  A    between atoms: C_6  and  C_7
REMARK    5  A    between atoms: C_7  and  C_8
REMARK    6  A    between atoms: C_7  and  C_11
REMARK    7  A    between atoms: C_8  and  C_9
REMARK    8  A    between atoms: N_13  and  C_14
REMARK    9  A    between atoms: C_14  and  C_15
REMARK   10  A    between atoms: C_15  and  C_16
REMARK   11  A    between atoms: C_16  and  C_17
REMARK   12  A    between atoms: C_17  and  C_18
REMARK   13  A    between atoms: C_18  and  C_19
REMARK   14  A    between atoms: C_19  and  N_20
REMARK   15  A    between atoms: N_20  and  C_21
REMARK   16  A    between atoms: C_37  and  O_38
REMARK                            x       y       z     vdW  Elec       q    Type
REMARK                         _______ _______ _______ _____ _____    ______ ____
ROOT
ATOM      1  C   UNL A   1      43.687 -20.941 -41.953  0.00  0.00    -0.037 C 
ENDROOT
BRANCH   1   2
ATOM      2  C   UNL A   1      42.523 -21.537 -41.163  0.00  0.00    +0.012 C 
BRANCH   2   5
ATOM      3  C   UNL A   1      41.745 -20.730 -38.960  0.00  0.00    +0.224 C 
ATOM      4  O   UNL A   1      40.727 -20.219 -39.419  0.00  0.00    -0.275 OA
ATOM      5  N   UNL A   1      42.702 -21.341 -39.739  0.00  0.00    -0.315 N 
ATOM      6  H   UNL A   1      43.534 -21.654 -39.315  0.00  0.00    +0.000 HD
BRANCH   3   7
ATOM      7  C   UNL A   1      42.046 -20.690 -37.475  0.00  0.00    +0.097 C 
BRANCH   7   8
ATOM      8  C   UNL A   1      41.421 -21.872 -36.763  0.00  0.00    +0.142 C 
ATOM      9  C   UNL A   1      40.819 -21.617 -35.407  0.00  0.00    -0.005 C 
ATOM     10  O   UNL A   1      41.381 -22.989 -37.285  0.00  0.00    -0.297 OA
ENDBRANCH   7   8
BRANCH   7  11
ATOM     11  C   UNL A   1      43.561 -20.644 -37.242  0.00  0.00    -0.010 C 
BRANCH  11  14
ATOM     12  C   UNL A   1      43.852 -17.607 -34.941  0.00  0.00    +0.162 A 
ATOM     13  C   UNL A   1      43.538 -18.419 -36.036  0.00  0.00    -0.013 A 
ATOM     14  C   UNL A   1      43.933 -19.767 -36.068  0.00  0.00    -0.043 A 
ATOM     15  C   UNL A   1      44.645 -20.300 -34.985  0.00  0.00    -0.055 A 
ATOM     16  C   UNL A   1      44.959 -19.501 -33.887  0.00  0.00    -0.016 A 
ATOM     17  C   UNL A   1      44.561 -18.165 -33.870  0.00  0.00    +0.158 A 
BRANCH  12  19
ATOM     18  C   UNL A   1      42.772 -15.698 -35.880  0.00  0.00    +0.079 C 
ATOM     19  O   UNL A   1      43.509 -16.287 -34.818  0.00  0.00    -0.491 OA
ENDBRANCH  12  19
BRANCH  17  20
ATOM     20  O   UNL A   1      44.869 -17.381 -32.789  0.00  0.00    -0.503 OA
ATOM     21  H   UNL A   1      44.226 -16.797 -32.436  0.00  0.00    +0.000 HD
ENDBRANCH  17  20
ENDBRANCH  11  14
ENDBRANCH   7  11
ENDBRANCH   3   7
ENDBRANCH   2   5
ENDBRANCH   1   2
BRANCH   1  22
ATOM     22  C   UNL A   1      44.602 -22.034 -42.507  0.00  0.00    -0.052 C 
BRANCH  22  23
ATOM     23  C   UNL A   1      46.049 -21.918 -42.017  0.00  0.00    -0.052 C 
BRANCH  23  24
ATOM     24  C   UNL A   1      46.602 -20.493 -42.071  0.00  0.00    -0.037 C 
BRANCH  24  25
ATOM     25  C   UNL A   1      47.126 -20.056 -40.701  0.00  0.00    +0.009 C 
BRANCH  25  26
ATOM     26  N   UNL A   1      45.987 -19.864 -39.794  0.00  0.00    -0.343 N 
ATOM     27  H   UNL A   1      45.314 -20.555 -39.596  0.00  0.00    +0.000 HD
BRANCH  26  28
ATOM     28  C   UNL A   1      45.974 -18.550 -39.234  0.00  0.00    +0.041 A 
ATOM     29  C   UNL A   1      45.236 -17.514 -39.842  0.00  0.00    -0.005 A 
ATOM     30  C   UNL A   1      45.223 -16.271 -39.203  0.00  0.00    +0.047 A 
ATOM     31  N   UNL A   1      45.836 -16.036 -38.018  0.00  0.00    -0.251 NA
ATOM     32  C   UNL A   1      46.526 -17.025 -37.435  0.00  0.00    +0.073 A 
ATOM     33  C   UNL A   1      47.160 -16.763 -36.227  0.00  0.00    -0.036 A 
ATOM     34  C   UNL A   1      47.911 -17.733 -35.560  0.00  0.00    -0.060 A 
ATOM     35  C   UNL A   1      48.042 -18.998 -36.112  0.00  0.00    -0.061 A 
ATOM     36  C   UNL A   1      47.412 -19.284 -37.322  0.00  0.00    -0.051 A 
ATOM     37  C   UNL A   1      46.635 -18.310 -37.998  0.00  0.00    +0.021 A 
ATOM     38  C   UNL A   1      44.457 -15.098 -39.760  0.00  0.00    -0.010 C 
ATOM     39  C   UNL A   1      44.153 -15.228 -41.248  0.00  0.00    -0.047 C 
ATOM     40  C   UNL A   1      43.554 -16.596 -41.529  0.00  0.00    -0.049 C 
ATOM     41  C   UNL A   1      44.550 -17.700 -41.175  0.00  0.00    -0.024 C 
ENDBRANCH  26  28
ENDBRANCH  25  26
ENDBRANCH  24  25
ENDBRANCH  23  24
ENDBRANCH  22  23
ENDBRANCH   1  22
TORSDOF 14
ENDMDL
MODEL 7
REMARK VINA RESULT:    -6.983      2.322      6.940
REMARK INTER + INTRA:         -15.328
REMARK INTER:                 -10.916
REMARK INTRA:                  -4.413
REMARK UNBOUND:                -2.834
REMARK  Name = cpd142.pdb
REMARK  16 active torsions:
REMARK  status: ('A' for Active; 'I' for Inactive)
REMARK    1  A    between atoms: C_1  and  O_2
REMARK    2  A    between atoms: O_2  and  C_3
REMARK    3  A    between atoms: C_5  and  C_6
REMARK    4  A    between atoms: C_6  and  C_7
REMARK    5  A    between atoms: C_7  and  C_8
REMARK    6  A    between atoms: C_7  and  C_11
REMARK    7  A    between atoms: C_8  and  C_9
REMARK    8  A    between atoms: N_13  and  C_14
REMARK    9  A    between atoms: C_14  and  C_15
REMARK   10  A    between atoms: C_15  and  C_16
REMARK   11  A    between atoms: C_16  and  C_17
REMARK   12  A    between atoms: C_17  and  C_18
REMARK   13  A    between atoms: C_18  and  C_19
REMARK   14  A    between atoms: C_19  and  N_20
REMARK   15  A    between atoms: N_20  and  C_21
REMARK   16  A    between atoms: C_37  and  O_38
REMARK                            x       y       z     vdW  Elec       q    Type
REMARK                         _______ _______ _______ _____ _____    ______ ____
ROOT
ATOM      1  C   UNL A   1      30.236 -33.648 -31.923  0.00  0.00    -0.037 C 
ENDROOT
BRANCH   1   2
ATOM      2  C   UNL A   1      29.745 -35.031 -31.496  0.00  0.00    +0.012 C 
BRANCH   2   5
ATOM      3  C   UNL A   1      31.110 -37.067 -31.180  0.00  0.00    +0.224 C 
ATOM      4  O   UNL A   1      30.936 -37.090 -29.965  0.00  0.00    -0.275 OA
ATOM      5  N   UNL A   1      30.618 -36.073 -31.996  0.00  0.00    -0.315 N 
ATOM      6  H   UNL A   1      30.867 -36.071 -32.948  0.00  0.00    +0.000 HD
BRANCH   3   7
ATOM      7  C   UNL A   1      31.930 -38.133 -31.879  0.00  0.00    +0.097 C 
BRANCH   7   8
ATOM      8  C   UNL A   1      31.528 -38.259 -33.334  0.00  0.00    +0.142 C 
ATOM      9  C   UNL A   1      30.506 -39.310 -33.677  0.00  0.00    -0.005 C 
ATOM     10  O   UNL A   1      31.995 -37.511 -34.197  0.00  0.00    -0.297 OA
ENDBRANCH   7   8
BRANCH   7  11
ATOM     11  C   UNL A   1      33.426 -37.826 -31.745  0.00  0.00    -0.010 C 
BRANCH  11  14
ATOM     12  C   UNL A   1      34.158 -40.306 -28.933  0.00  0.00    +0.162 A 
ATOM     13  C   UNL A   1      33.516 -39.353 -29.729  0.00  0.00    -0.013 A 
ATOM     14  C   UNL A   1      34.142 -38.833 -30.875  0.00  0.00    -0.043 A 
ATOM     15  C   UNL A   1      35.422 -39.284 -31.222  0.00  0.00    -0.055 A 
ATOM     16  C   UNL A   1      36.070 -40.237 -30.438  0.00  0.00    -0.016 A 
ATOM     17  C   UNL A   1      35.437 -40.743 -29.304  0.00  0.00    +0.158 A 
BRANCH  12  19
ATOM     18  C   UNL A   1      32.569 -41.803 -27.970  0.00  0.00    +0.079 C 
ATOM     19  O   UNL A   1      33.630 -40.872 -27.803  0.00  0.00    -0.491 OA
ENDBRANCH  12  19
BRANCH  17  20
ATOM     20  O   UNL A   1      36.073 -41.682 -28.536  0.00  0.00    -0.503 OA
ATOM     21  H   UNL A   1      36.929 -41.981 -28.774  0.00  0.00    +0.000 HD
ENDBRANCH  17  20
ENDBRANCH  11  14
ENDBRANCH   7  11
ENDBRANCH   3   7
ENDBRANCH   2   5
ENDBRANCH   1   2
BRANCH   1  22
ATOM     22  C   UNL A   1      30.762 -32.851 -30.729  0.00  0.00    -0.052 C 
BRANCH  22  23
ATOM     23  C   UNL A   1      31.946 -33.524 -30.027  0.00  0.00    -0.052 C 
BRANCH  23  24
ATOM     24  C   UNL A   1      33.111 -32.575 -29.744  0.00  0.00    -0.037 C 
BRANCH  24  25
ATOM     25  C   UNL A   1      34.431 -33.343 -29.634  0.00  0.00    +0.009 C 
BRANCH  25  26
ATOM     26  N   UNL A   1      34.202 -34.741 -30.022  0.00  0.00    -0.343 N 
ATOM     27  H   UNL A   1      33.580 -35.024 -30.731  0.00  0.00    +0.000 HD
BRANCH  26  28
ATOM     28  C   UNL A   1      34.992 -35.641 -29.244  0.00  0.00    +0.041 A 
ATOM     29  C   UNL A   1      34.468 -36.241 -28.081  0.00  0.00    -0.005 A 
ATOM     30  C   UNL A   1      35.280 -37.157 -27.406  0.00  0.00    +0.047 A 
ATOM     31  N   UNL A   1      36.508 -37.526 -27.841  0.00  0.00    -0.251 NA
ATOM     32  C   UNL A   1      37.000 -36.964 -28.954  0.00  0.00    +0.073 A 
ATOM     33  C   UNL A   1      38.267 -37.343 -29.379  0.00  0.00    -0.036 A 
ATOM     34  C   UNL A   1      38.860 -36.796 -30.519  0.00  0.00    -0.060 A 
ATOM     35  C   UNL A   1      38.176 -35.841 -31.255  0.00  0.00    -0.061 A 
ATOM     36  C   UNL A   1      36.902 -35.448 -30.849  0.00  0.00    -0.051 A 
ATOM     37  C   UNL A   1      36.287 -36.008 -29.702  0.00  0.00    +0.021 A 
ATOM     38  C   UNL A   1      34.814 -37.865 -26.159  0.00  0.00    -0.010 C 
ATOM     39  C   UNL A   1      33.666 -37.152 -25.454  0.00  0.00    -0.047 C 
ATOM     40  C   UNL A   1      32.579 -36.813 -26.461  0.00  0.00    -0.049 C 
ATOM     41  C   UNL A   1      33.116 -35.858 -27.527  0.00  0.00    -0.024 C 
ENDBRANCH  26  28
ENDBRANCH  25  26
ENDBRANCH  24  25
ENDBRANCH  23  24
ENDBRANCH  22  23
ENDBRANCH   1  22
TORSDOF 14
ENDMDL
MODEL 8
REMARK VINA RESULT:    -6.943      1.945      4.673
REMARK INTER + INTRA:         -15.257
REMARK INTER:                 -13.419
REMARK INTRA:                  -1.839
REMARK UNBOUND:                -2.834
REMARK  Name = cpd142.pdb
REMARK  16 active torsions:
REMARK  status: ('A' for Active; 'I' for Inactive)
REMARK    1  A    between atoms: C_1  and  O_2
REMARK    2  A    between atoms: O_2  and  C_3
REMARK    3  A    between atoms: C_5  and  C_6
REMARK    4  A    between atoms: C_6  and  C_7
REMARK    5  A    between atoms: C_7  and  C_8
REMARK    6  A    between atoms: C_7  and  C_11
REMARK    7  A    between atoms: C_8  and  C_9
REMARK    8  A    between atoms: N_13  and  C_14
REMARK    9  A    between atoms: C_14  and  C_15
REMARK   10  A    between atoms: C_15  and  C_16
REMARK   11  A    between atoms: C_16  and  C_17
REMARK   12  A    between atoms: C_17  and  C_18
REMARK   13  A    between atoms: C_18  and  C_19
REMARK   14  A    between atoms: C_19  and  N_20
REMARK   15  A    between atoms: N_20  and  C_21
REMARK   16  A    between atoms: C_37  and  O_38
REMARK                            x       y       z     vdW  Elec       q    Type
REMARK                         _______ _______ _______ _____ _____    ______ ____
ROOT
ATOM      1  C   UNL A   1      33.752 -41.800 -29.099  0.00  0.00    -0.037 C 
ENDROOT
BRANCH   1   2
ATOM      2  C   UNL A   1      32.896 -41.792 -27.833  0.00  0.00    +0.012 C 
BRANCH   2   5
ATOM      3  C   UNL A   1      33.483 -39.987 -26.250  0.00  0.00    +0.224 C 
ATOM      4  O   UNL A   1      34.245 -40.697 -25.601  0.00  0.00    -0.275 OA
ATOM      5  N   UNL A   1      32.741 -40.449 -27.315  0.00  0.00    -0.315 N 
ATOM      6  H   UNL A   1      32.086 -39.847 -27.737  0.00  0.00    +0.000 HD
BRANCH   3   7
ATOM      7  C   UNL A   1      33.268 -38.529 -25.895  0.00  0.00    +0.097 C 
BRANCH   7   8
ATOM      8  C   UNL A   1      32.803 -37.739 -27.101  0.00  0.00    +0.142 C 
ATOM      9  C   UNL A   1      32.050 -36.463 -26.839  0.00  0.00    -0.005 C 
ATOM     10  O   UNL A   1      33.059 -38.111 -28.250  0.00  0.00    -0.297 OA
ENDBRANCH   7   8
BRANCH   7  11
ATOM     11  C   UNL A   1      32.268 -38.406 -24.738  0.00  0.00    -0.010 C 
BRANCH  11  14
ATOM     12  C   UNL A   1      33.659 -39.270 -21.286  0.00  0.00    +0.162 A 
ATOM     13  C   UNL A   1      33.001 -39.370 -22.516  0.00  0.00    -0.013 A 
ATOM     14  C   UNL A   1      32.955 -38.277 -23.398  0.00  0.00    -0.043 A 
ATOM     15  C   UNL A   1      33.582 -37.077 -23.039  0.00  0.00    -0.055 A 
ATOM     16  C   UNL A   1      34.245 -36.968 -21.817  0.00  0.00    -0.016 A 
ATOM     17  C   UNL A   1      34.282 -38.060 -20.952  0.00  0.00    +0.158 A 
BRANCH  12  19
ATOM     18  C   UNL A   1      32.608 -41.077 -20.137  0.00  0.00    +0.079 C 
ATOM     19  O   UNL A   1      33.760 -40.278 -20.365  0.00  0.00    -0.491 OA
ENDBRANCH  12  19
BRANCH  17  20
ATOM     20  O   UNL A   1      34.936 -37.953 -19.753  0.00  0.00    -0.503 OA
ATOM     21  H   UNL A   1      35.278 -38.719 -19.336  0.00  0.00    +0.000 HD
ENDBRANCH  17  20
ENDBRANCH  11  14
ENDBRANCH   7  11
ENDBRANCH   3   7
ENDBRANCH   2   5
ENDBRANCH   1   2
BRANCH   1  22
ATOM     22  C   UNL A   1      35.238 -41.943 -28.765  0.00  0.00    -0.052 C 
BRANCH  22  23
ATOM     23  C   UNL A   1      36.126 -40.950 -29.522  0.00  0.00    -0.052 C 
BRANCH  23  24
ATOM     24  C   UNL A   1      36.393 -39.656 -28.752  0.00  0.00    -0.037 C 
BRANCH  24  25
ATOM     25  C   UNL A   1      37.881 -39.296 -28.782  0.00  0.00    +0.009 C 
BRANCH  25  26
ATOM     26  N   UNL A   1      38.042 -37.900 -28.355  0.00  0.00    -0.343 N 
ATOM     27  H   UNL A   1      38.056 -37.607 -27.415  0.00  0.00    +0.000 HD
BRANCH  26  28
ATOM     28  C   UNL A   1      38.175 -37.019 -29.472  0.00  0.00    +0.041 A 
ATOM     29  C   UNL A   1      39.382 -36.953 -30.198  0.00  0.00    -0.005 A 
ATOM     30  C   UNL A   1      39.416 -36.114 -31.315  0.00  0.00    +0.047 A 
ATOM     31  N   UNL A   1      38.344 -35.411 -31.753  0.00  0.00    -0.251 NA
ATOM     32  C   UNL A   1      37.195 -35.485 -31.069  0.00  0.00    +0.073 A 
ATOM     33  C   UNL A   1      36.108 -34.748 -31.523  0.00  0.00    -0.036 A 
ATOM     34  C   UNL A   1      34.878 -34.756 -30.862  0.00  0.00    -0.060 A 
ATOM     35  C   UNL A   1      34.724 -35.515 -29.712  0.00  0.00    -0.061 A 
ATOM     36  C   UNL A   1      35.800 -36.265 -29.239  0.00  0.00    -0.051 A 
ATOM     37  C   UNL A   1      37.047 -36.274 -29.912  0.00  0.00    +0.021 A 
ATOM     38  C   UNL A   1      40.651 -35.976 -32.169  0.00  0.00    -0.010 C 
ATOM     39  C   UNL A   1      41.929 -36.398 -31.454  0.00  0.00    -0.047 C 
ATOM     40  C   UNL A   1      41.727 -37.758 -30.806  0.00  0.00    -0.049 C 
ATOM     41  C   UNL A   1      40.622 -37.690 -29.752  0.00  0.00    -0.024 C 
ENDBRANCH  26  28
ENDBRANCH  25  26
ENDBRANCH  24  25
ENDBRANCH  23  24
ENDBRANCH  22  23
ENDBRANCH   1  22
TORSDOF 14
ENDMDL
MODEL 9
REMARK VINA RESULT:    -6.881     17.625     21.383
REMARK INTER + INTRA:         -15.145
REMARK INTER:                 -11.829
REMARK INTRA:                  -3.315
REMARK UNBOUND:                -2.834
REMARK  Name = cpd142.pdb
REMARK  16 active torsions:
REMARK  status: ('A' for Active; 'I' for Inactive)
REMARK    1  A    between atoms: C_1  and  O_2
REMARK    2  A    between atoms: O_2  and  C_3
REMARK    3  A    between atoms: C_5  and  C_6
REMARK    4  A    between atoms: C_6  and  C_7
REMARK    5  A    between atoms: C_7  and  C_8
REMARK    6  A    between atoms: C_7  and  C_11
REMARK    7  A    between atoms: C_8  and  C_9
REMARK    8  A    between atoms: N_13  and  C_14
REMARK    9  A    between atoms: C_14  and  C_15
REMARK   10  A    between atoms: C_15  and  C_16
REMARK   11  A    between atoms: C_16  and  C_17
REMARK   12  A    between atoms: C_17  and  C_18
REMARK   13  A    between atoms: C_18  and  C_19
REMARK   14  A    between atoms: C_19  and  N_20
REMARK   15  A    between atoms: N_20  and  C_21
REMARK   16  A    between atoms: C_37  and  O_38
REMARK                            x       y       z     vdW  Elec       q    Type
REMARK                         _______ _______ _______ _____ _____    ______ ____
ROOT
ATOM      1  C   UNL A   1      47.064 -18.532 -36.219  0.00  0.00    -0.037 C 
ENDROOT
BRANCH   1   2
ATOM      2  C   UNL A   1      46.347 -19.858 -36.471  0.00  0.00    +0.012 C 
BRANCH   2   5
ATOM      3  C   UNL A   1      44.713 -20.278 -34.665  0.00  0.00    +0.224 C 
ATOM      4  O   UNL A   1      45.540 -20.815 -33.935  0.00  0.00    -0.275 OA
ATOM      5  N   UNL A   1      45.001 -19.834 -35.937  0.00  0.00    -0.315 N 
ATOM      6  H   UNL A   1      44.270 -19.491 -36.500  0.00  0.00    +0.000 HD
BRANCH   3   7
ATOM      7  C   UNL A   1      43.274 -20.096 -34.226  0.00  0.00    +0.097 C 
BRANCH   7   8
ATOM      8  C   UNL A   1      42.973 -18.638 -33.945  0.00  0.00    +0.142 C 
ATOM      9  C   UNL A   1      41.866 -18.341 -32.969  0.00  0.00    -0.005 C 
ATOM     10  O   UNL A   1      43.628 -17.733 -34.470  0.00  0.00    -0.297 OA
ENDBRANCH   7   8
BRANCH   7  11
ATOM     11  C   UNL A   1      42.319 -20.660 -35.285  0.00  0.00    -0.010 C 
BRANCH  11  14
ATOM     12  C   UNL A   1      40.350 -22.842 -32.843  0.00  0.00    +0.162 A 
ATOM     13  C   UNL A   1      41.385 -22.107 -33.431  0.00  0.00    -0.013 A 
ATOM     14  C   UNL A   1      41.204 -21.477 -34.674  0.00  0.00    -0.043 A 
ATOM     15  C   UNL A   1      39.968 -21.585 -35.325  0.00  0.00    -0.055 A 
ATOM     16  C   UNL A   1      38.929 -22.311 -34.746  0.00  0.00    -0.016 A 
ATOM     17  C   UNL A   1      39.123 -22.931 -33.512  0.00  0.00    +0.158 A 
BRANCH  12  19
ATOM     18  C   UNL A   1      41.521 -24.375 -31.439  0.00  0.00    +0.079 C 
ATOM     19  O   UNL A   1      40.430 -23.486 -31.637  0.00  0.00    -0.491 OA
ENDBRANCH  12  19
BRANCH  17  20
ATOM     20  O   UNL A   1      38.100 -23.641 -32.943  0.00  0.00    -0.503 OA
ATOM     21  H   UNL A   1      38.160 -24.574 -32.871  0.00  0.00    +0.000 HD
ENDBRANCH  17  20
ENDBRANCH  11  14
ENDBRANCH   7  11
ENDBRANCH   3   7
ENDBRANCH   2   5
ENDBRANCH   1   2
BRANCH   1  22
ATOM     22  C   UNL A   1      46.817 -17.540 -37.357  0.00  0.00    -0.052 C 
BRANCH  22  23
ATOM     23  C   UNL A   1      45.905 -16.376 -36.958  0.00  0.00    -0.052 C 
BRANCH  23  24
ATOM     24  C   UNL A   1      44.834 -16.052 -37.999  0.00  0.00    -0.037 C 
BRANCH  24  25
ATOM     25  C   UNL A   1      43.731 -17.113 -38.002  0.00  0.00    +0.009 C 
BRANCH  25  26
ATOM     26  N   UNL A   1      43.288 -17.338 -39.385  0.00  0.00    -0.343 N 
ATOM     27  H   UNL A   1      42.943 -16.631 -39.976  0.00  0.00    +0.000 HD
BRANCH  26  28
ATOM     28  C   UNL A   1      43.421 -18.708 -39.765  0.00  0.00    +0.041 A 
ATOM     29  C   UNL A   1      44.617 -19.183 -40.342  0.00  0.00    -0.005 A 
ATOM     30  C   UNL A   1      44.695 -20.549 -40.631  0.00  0.00    +0.047 A 
ATOM     31  N   UNL A   1      43.707 -21.429 -40.341  0.00  0.00    -0.251 NA
ATOM     32  C   UNL A   1      42.577 -20.977 -39.781  0.00  0.00    +0.073 A 
ATOM     33  C   UNL A   1      41.569 -21.892 -39.502  0.00  0.00    -0.036 A 
ATOM     34  C   UNL A   1      40.354 -21.504 -38.933  0.00  0.00    -0.060 A 
ATOM     35  C   UNL A   1      40.132 -20.167 -38.638  0.00  0.00    -0.061 A 
ATOM     36  C   UNL A   1      41.130 -19.233 -38.907  0.00  0.00    -0.051 A 
ATOM     37  C   UNL A   1      42.372 -19.620 -39.471  0.00  0.00    +0.021 A 
ATOM     38  C   UNL A   1      45.930 -21.164 -41.238  0.00  0.00    -0.010 C 
ATOM     39  C   UNL A   1      46.824 -20.151 -41.943  0.00  0.00    -0.047 C 
ATOM     40  C   UNL A   1      47.065 -18.960 -41.031  0.00  0.00    -0.049 C 
ATOM     41  C   UNL A   1      45.747 -18.253 -40.714  0.00  0.00    -0.024 C 
ENDBRANCH  26  28
ENDBRANCH  25  26
ENDBRANCH  24  25
ENDBRANCH  23  24
ENDBRANCH  22  23
ENDBRANCH   1  22
TORSDOF 14
ENDMDL
MODEL 10
REMARK VINA RESULT:    -6.729      3.950      8.180
REMARK INTER + INTRA:         -14.873
REMARK INTER:                 -12.270
REMARK INTRA:                  -2.603
REMARK UNBOUND:                -2.834
REMARK  Name = cpd142.pdb
REMARK  16 active torsions:
REMARK  status: ('A' for Active; 'I' for Inactive)
REMARK    1  A    between atoms: C_1  and  O_2
REMARK    2  A    between atoms: O_2  and  C_3
REMARK    3  A    between atoms: C_5  and  C_6
REMARK    4  A    between atoms: C_6  and  C_7
REMARK    5  A    between atoms: C_7  and  C_8
REMARK    6  A    between atoms: C_7  and  C_11
REMARK    7  A    between atoms: C_8  and  C_9
REMARK    8  A    between atoms: N_13  and  C_14
REMARK    9  A    between atoms: C_14  and  C_15
REMARK   10  A    between atoms: C_15  and  C_16
REMARK   11  A    between atoms: C_16  and  C_17
REMARK   12  A    between atoms: C_17  and  C_18
REMARK   13  A    between atoms: C_18  and  C_19
REMARK   14  A    between atoms: C_19  and  N_20
REMARK   15  A    between atoms: N_20  and  C_21
REMARK   16  A    between atoms: C_37  and  O_38
REMARK                            x       y       z     vdW  Elec       q    Type
REMARK                         _______ _______ _______ _____ _____    ______ ____
ROOT
ATOM      1  C   UNL A   1      32.189 -39.006 -31.334  0.00  0.00    -0.037 C 
ENDROOT
BRANCH   1   2
ATOM      2  C   UNL A   1      33.703 -39.064 -31.534  0.00  0.00    +0.012 C 
BRANCH   2   5
ATOM      3  C   UNL A   1      35.468 -38.543 -29.884  0.00  0.00    +0.224 C 
ATOM      4  O   UNL A   1      35.872 -39.702 -29.833  0.00  0.00    -0.275 OA
ATOM      5  N   UNL A   1      34.384 -38.152 -30.638  0.00  0.00    -0.315 N 
ATOM      6  H   UNL A   1      34.063 -37.225 -30.566  0.00  0.00    +0.000 HD
BRANCH   3   7
ATOM      7  C   UNL A   1      36.124 -37.444 -29.072  0.00  0.00    +0.097 C 
BRANCH   7   8
ATOM      8  C   UNL A   1      35.453 -37.293 -27.722  0.00  0.00    +0.142 C 
ATOM      9  C   UNL A   1      34.243 -36.401 -27.652  0.00  0.00    -0.005 C 
ATOM     10  O   UNL A   1      35.863 -37.901 -26.729  0.00  0.00    -0.297 OA
ENDBRANCH   7   8
BRANCH   7  11
ATOM     11  C   UNL A   1      37.623 -37.721 -28.915  0.00  0.00    -0.010 C 
BRANCH  11  14
ATOM     12  C   UNL A   1      40.615 -36.526 -30.970  0.00  0.00    +0.162 A 
ATOM     13  C   UNL A   1      39.841 -37.189 -30.012  0.00  0.00    -0.013 A 
ATOM     14  C   UNL A   1      38.454 -36.975 -29.933  0.00  0.00    -0.043 A 
ATOM     15  C   UNL A   1      37.844 -36.089 -30.831  0.00  0.00    -0.055 A 
ATOM     16  C   UNL A   1      38.605 -35.425 -31.792  0.00  0.00    -0.016 A 
ATOM     17  C   UNL A   1      39.980 -35.648 -31.858  0.00  0.00    +0.158 A 
BRANCH  12  19
ATOM     18  C   UNL A   1      42.430 -37.852 -31.767  0.00  0.00    +0.079 C 
ATOM     19  O   UNL A   1      41.967 -36.672 -31.126  0.00  0.00    -0.491 OA
ENDBRANCH  12  19
BRANCH  17  20
ATOM     20  O   UNL A   1      40.726 -34.997 -32.805  0.00  0.00    -0.503 OA
ATOM     21  H   UNL A   1      40.754 -34.061 -32.818  0.00  0.00    +0.000 HD
ENDBRANCH  17  20
ENDBRANCH  11  14
ENDBRANCH   7  11
ENDBRANCH   3   7
ENDBRANCH   2   5
ENDBRANCH   1   2
BRANCH   1  22
ATOM     22  C   UNL A   1      31.820 -38.159 -30.116  0.00  0.00    -0.052 C 
BRANCH  22  23
ATOM     23  C   UNL A   1      30.539 -37.342 -30.313  0.00  0.00    -0.052 C 
BRANCH  23  24
ATOM     24  C   UNL A   1      30.258 -36.986 -31.774  0.00  0.00    -0.037 C 
BRANCH  24  25
ATOM     25  C   UNL A   1      30.239 -35.469 -31.975  0.00  0.00    +0.009 C 
BRANCH  25  26
ATOM     26  N   UNL A   1      30.412 -34.813 -30.672  0.00  0.00    -0.343 N 
ATOM     27  H   UNL A   1      30.119 -35.199 -29.815  0.00  0.00    +0.000 HD
BRANCH  26  28
ATOM     28  C   UNL A   1      31.058 -33.546 -30.801  0.00  0.00    +0.041 A 
ATOM     29  C   UNL A   1      30.304 -32.359 -30.901  0.00  0.00    -0.005 A 
ATOM     30  C   UNL A   1      31.006 -31.152 -30.962  0.00  0.00    +0.047 A 
ATOM     31  N   UNL A   1      32.356 -31.071 -30.881  0.00  0.00    -0.251 NA
ATOM     32  C   UNL A   1      33.070 -32.199 -30.773  0.00  0.00    +0.073 A 
ATOM     33  C   UNL A   1      34.454 -32.099 -30.705  0.00  0.00    -0.036 A 
ATOM     34  C   UNL A   1      35.275 -33.224 -30.606  0.00  0.00    -0.060 A 
ATOM     35  C   UNL A   1      34.703 -34.488 -30.581  0.00  0.00    -0.061 A 
ATOM     36  C   UNL A   1      33.316 -34.612 -30.646  0.00  0.00    -0.051 A 
ATOM     37  C   UNL A   1      32.476 -33.474 -30.731  0.00  0.00    +0.021 A 
ATOM     38  C   UNL A   1      30.299 -29.824 -31.059  0.00  0.00    -0.010 C 
ATOM     39  C   UNL A   1      28.871 -29.937 -31.577  0.00  0.00    -0.047 C 
ATOM     40  C   UNL A   1      28.132 -31.019 -30.806  0.00  0.00    -0.049 C 
ATOM     41  C   UNL A   1      28.798 -32.379 -31.020  0.00  0.00    -0.024 C 
ENDBRANCH  26  28
ENDBRANCH  25  26
ENDBRANCH  24  25
ENDBRANCH  23  24
ENDBRANCH  22  23
ENDBRANCH   1  22
TORSDOF 14
ENDMDL
MODEL 11
REMARK VINA RESULT:    -6.619     17.835     21.742
REMARK INTER + INTRA:         -14.676
REMARK INTER:                 -11.652
REMARK INTRA:                  -3.024
REMARK UNBOUND:                -2.834
REMARK  Name = cpd142.pdb
REMARK  16 active torsions:
REMARK  status: ('A' for Active; 'I' for Inactive)
REMARK    1  A    between atoms: C_1  and  O_2
REMARK    2  A    between atoms: O_2  and  C_3
REMARK    3  A    between atoms: C_5  and  C_6
REMARK    4  A    between atoms: C_6  and  C_7
REMARK    5  A    between atoms: C_7  and  C_8
REMARK    6  A    between atoms: C_7  and  C_11
REMARK    7  A    between atoms: C_8  and  C_9
REMARK    8  A    between atoms: N_13  and  C_14
REMARK    9  A    between atoms: C_14  and  C_15
REMARK   10  A    between atoms: C_15  and  C_16
REMARK   11  A    between atoms: C_16  and  C_17
REMARK   12  A    between atoms: C_17  and  C_18
REMARK   13  A    between atoms: C_18  and  C_19
REMARK   14  A    between atoms: C_19  and  N_20
REMARK   15  A    between atoms: N_20  and  C_21
REMARK   16  A    between atoms: C_37  and  O_38
REMARK                            x       y       z     vdW  Elec       q    Type
REMARK                         _______ _______ _______ _____ _____    ______ ____
ROOT
ATOM      1  C   UNL A   1      47.248 -18.366 -36.083  0.00  0.00    -0.037 C 
ENDROOT
BRANCH   1   2
ATOM      2  C   UNL A   1      46.561 -19.703 -36.356  0.00  0.00    +0.012 C 
BRANCH   2   5
ATOM      3  C   UNL A   1      44.799 -20.180 -34.690  0.00  0.00    +0.224 C 
ATOM      4  O   UNL A   1      45.566 -20.764 -33.930  0.00  0.00    -0.275 OA
ATOM      5  N   UNL A   1      45.181 -19.683 -35.916  0.00  0.00    -0.315 N 
ATOM      6  H   UNL A   1      44.496 -19.301 -36.511  0.00  0.00    +0.000 HD
BRANCH   3   7
ATOM      7  C   UNL A   1      43.335 -19.994 -34.343  0.00  0.00    +0.097 C 
BRANCH   7   8
ATOM      8  C   UNL A   1      42.977 -18.524 -34.272  0.00  0.00    +0.142 C 
ATOM      9  C   UNL A   1      42.030 -17.996 -35.317  0.00  0.00    -0.005 C 
ATOM     10  O   UNL A   1      43.418 -17.797 -33.377  0.00  0.00    -0.297 OA
ENDBRANCH   7   8
BRANCH   7  11
ATOM     11  C   UNL A   1      42.451 -20.727 -35.360  0.00  0.00    -0.010 C 
BRANCH  11  14
ATOM     12  C   UNL A   1      40.428 -22.726 -32.807  0.00  0.00    +0.162 A 
ATOM     13  C   UNL A   1      41.486 -22.065 -33.441  0.00  0.00    -0.013 A 
ATOM     14  C   UNL A   1      41.309 -21.465 -34.699  0.00  0.00    -0.043 A 
ATOM     15  C   UNL A   1      40.055 -21.526 -35.319  0.00  0.00    -0.055 A 
ATOM     16  C   UNL A   1      38.992 -22.178 -34.695  0.00  0.00    -0.016 A 
ATOM     17  C   UNL A   1      39.183 -22.769 -33.447  0.00  0.00    +0.158 A 
BRANCH  12  19
ATOM     18  C   UNL A   1      41.597 -24.213 -31.353  0.00  0.00    +0.079 C 
ATOM     19  O   UNL A   1      40.503 -23.336 -31.584  0.00  0.00    -0.491 OA
ENDBRANCH  12  19
BRANCH  17  20
ATOM     20  O   UNL A   1      38.137 -23.407 -32.833  0.00  0.00    -0.503 OA
ATOM     21  H   UNL A   1      37.480 -22.908 -32.389  0.00  0.00    +0.000 HD
ENDBRANCH  17  20
ENDBRANCH  11  14
ENDBRANCH   7  11
ENDBRANCH   3   7
ENDBRANCH   2   5
ENDBRANCH   1   2
BRANCH   1  22
ATOM     22  C   UNL A   1      47.172 -17.442 -37.298  0.00  0.00    -0.052 C 
BRANCH  22  23
ATOM     23  C   UNL A   1      46.343 -16.178 -37.047  0.00  0.00    -0.052 C 
BRANCH  23  24
ATOM     24  C   UNL A   1      45.291 -15.910 -38.124  0.00  0.00    -0.037 C 
BRANCH  24  25
ATOM     25  C   UNL A   1      44.211 -16.995 -38.118  0.00  0.00    +0.009 C 
BRANCH  25  26
ATOM     26  N   UNL A   1      43.791 -17.256 -39.502  0.00  0.00    -0.343 N 
ATOM     27  H   UNL A   1      43.469 -16.563 -40.122  0.00  0.00    +0.000 HD
BRANCH  26  28
ATOM     28  C   UNL A   1      43.907 -18.640 -39.836  0.00  0.00    +0.041 A 
ATOM     29  C   UNL A   1      42.829 -19.525 -39.626  0.00  0.00    -0.005 A 
ATOM     30  C   UNL A   1      42.996 -20.852 -40.035  0.00  0.00    +0.047 A 
ATOM     31  N   UNL A   1      44.110 -21.304 -40.658  0.00  0.00    -0.251 NA
ATOM     32  C   UNL A   1      45.127 -20.459 -40.869  0.00  0.00    +0.073 A 
ATOM     33  C   UNL A   1      46.267 -20.943 -41.498  0.00  0.00    -0.036 A 
ATOM     34  C   UNL A   1      47.379 -20.133 -41.743  0.00  0.00    -0.060 A 
ATOM     35  C   UNL A   1      47.359 -18.805 -41.345  0.00  0.00    -0.061 A 
ATOM     36  C   UNL A   1      46.224 -18.297 -40.714  0.00  0.00    -0.051 A 
ATOM     37  C   UNL A   1      45.087 -19.108 -40.476  0.00  0.00    +0.021 A 
ATOM     38  C   UNL A   1      41.905 -21.878 -39.867  0.00  0.00    -0.010 C 
ATOM     39  C   UNL A   1      40.875 -21.497 -38.812  0.00  0.00    -0.047 C 
ATOM     40  C   UNL A   1      40.403 -20.072 -39.049  0.00  0.00    -0.049 C 
ATOM     41  C   UNL A   1      41.569 -19.093 -38.914  0.00  0.00    -0.024 C 
ENDBRANCH  26  28
ENDBRANCH  25  26
ENDBRANCH  24  25
ENDBRANCH  23  24
ENDBRANCH  22  23
ENDBRANCH   1  22
TORSDOF 14
ENDMDL
MODEL 12
REMARK VINA RESULT:    -6.539     18.471     22.931
REMARK INTER + INTRA:         -14.534
REMARK INTER:                 -11.604
REMARK INTRA:                  -2.929
REMARK UNBOUND:                -2.834
REMARK  Name = cpd142.pdb
REMARK  16 active torsions:
REMARK  status: ('A' for Active; 'I' for Inactive)
REMARK    1  A    between atoms: C_1  and  O_2
REMARK    2  A    between atoms: O_2  and  C_3
REMARK    3  A    between atoms: C_5  and  C_6
REMARK    4  A    between atoms: C_6  and  C_7
REMARK    5  A    between atoms: C_7  and  C_8
REMARK    6  A    between atoms: C_7  and  C_11
REMARK    7  A    between atoms: C_8  and  C_9
REMARK    8  A    between atoms: N_13  and  C_14
REMARK    9  A    between atoms: C_14  and  C_15
REMARK   10  A    between atoms: C_15  and  C_16
REMARK   11  A    between atoms: C_16  and  C_17
REMARK   12  A    between atoms: C_17  and  C_18
REMARK   13  A    between atoms: C_18  and  C_19
REMARK   14  A    between atoms: C_19  and  N_20
REMARK   15  A    between atoms: N_20  and  C_21
REMARK   16  A    between atoms: C_37  and  O_38
REMARK                            x       y       z     vdW  Elec       q    Type
REMARK                         _______ _______ _______ _____ _____    ______ ____
ROOT
ATOM      1  C   UNL A   1      44.558 -16.993 -35.337  0.00  0.00    -0.037 C 
ENDROOT
BRANCH   1   2
ATOM      2  C   UNL A   1      44.154 -16.161 -36.554  0.00  0.00    +0.012 C 
BRANCH   2   5
ATOM      3  C   UNL A   1      44.213 -16.617 -38.983  0.00  0.00    +0.224 C 
ATOM      4  O   UNL A   1      43.032 -16.325 -39.146  0.00  0.00    -0.275 OA
ATOM      5  N   UNL A   1      44.828 -16.622 -37.750  0.00  0.00    -0.315 N 
ATOM      6  H   UNL A   1      45.754 -16.949 -37.680  0.00  0.00    +0.000 HD
BRANCH   3   7
ATOM      7  C   UNL A   1      45.089 -17.040 -40.145  0.00  0.00    +0.097 C 
BRANCH   7   8
ATOM      8  C   UNL A   1      45.872 -15.864 -40.690  0.00  0.00    +0.142 C 
ATOM      9  C   UNL A   1      47.356 -15.850 -40.436  0.00  0.00    -0.005 C 
ATOM     10  O   UNL A   1      45.322 -14.971 -41.341  0.00  0.00    -0.297 OA
ENDBRANCH   7   8
BRANCH   7  11
ATOM     11  C   UNL A   1      46.026 -18.176 -39.718  0.00  0.00    -0.010 C 
BRANCH  11  14
ATOM     12  C   UNL A   1      46.411 -21.734 -41.059  0.00  0.00    +0.162 A 
ATOM     13  C   UNL A   1      46.565 -20.585 -40.276  0.00  0.00    -0.013 A 
ATOM     14  C   UNL A   1      45.876 -19.402 -40.590  0.00  0.00    -0.043 A 
ATOM     15  C   UNL A   1      45.020 -19.379 -41.699  0.00  0.00    -0.055 A 
ATOM     16  C   UNL A   1      44.855 -20.519 -42.484  0.00  0.00    -0.016 A 
ATOM     17  C   UNL A   1      45.546 -21.686 -42.160  0.00  0.00    +0.158 A 
BRANCH  12  19
ATOM     18  C   UNL A   1      48.455 -22.953 -40.895  0.00  0.00    +0.079 C 
ATOM     19  O   UNL A   1      47.036 -22.930 -40.831  0.00  0.00    -0.491 OA
ENDBRANCH  12  19
BRANCH  17  20
ATOM     20  O   UNL A   1      45.381 -22.806 -42.931  0.00  0.00    -0.503 OA
ATOM     21  H   UNL A   1      44.606 -22.910 -43.448  0.00  0.00    +0.000 HD
ENDBRANCH  17  20
ENDBRANCH  11  14
ENDBRANCH   7  11
ENDBRANCH   3   7
ENDBRANCH   2   5
ENDBRANCH   1   2
BRANCH   1  22
ATOM     22  C   UNL A   1      43.734 -16.615 -34.106  0.00  0.00    -0.052 C 
BRANCH  22  23
ATOM     23  C   UNL A   1      42.552 -17.556 -33.856  0.00  0.00    -0.052 C 
BRANCH  23  24
ATOM     24  C   UNL A   1      42.862 -18.681 -32.867  0.00  0.00    -0.037 C 
BRANCH  24  25
ATOM     25  C   UNL A   1      42.175 -19.984 -33.285  0.00  0.00    +0.009 C 
BRANCH  25  26
ATOM     26  N   UNL A   1      41.138 -19.678 -34.280  0.00  0.00    -0.343 N 
ATOM     27  H   UNL A   1      40.660 -18.819 -34.334  0.00  0.00    +0.000 HD
BRANCH  26  28
ATOM     28  C   UNL A   1      40.910 -20.781 -35.159  0.00  0.00    +0.041 A 
ATOM     29  C   UNL A   1      39.916 -21.739 -34.870  0.00  0.00    -0.005 A 
ATOM     30  C   UNL A   1      39.708 -22.754 -35.808  0.00  0.00    +0.047 A 
ATOM     31  N   UNL A   1      40.374 -22.829 -36.984  0.00  0.00    -0.251 NA
ATOM     32  C   UNL A   1      41.309 -21.911 -37.262  0.00  0.00    +0.073 A 
ATOM     33  C   UNL A   1      41.993 -22.010 -38.468  0.00  0.00    -0.036 A 
ATOM     34  C   UNL A   1      42.992 -21.104 -38.830  0.00  0.00    -0.060 A 
ATOM     35  C   UNL A   1      43.326 -20.073 -37.966  0.00  0.00    -0.061 A 
ATOM     36  C   UNL A   1      42.652 -19.952 -36.752  0.00  0.00    -0.051 A 
ATOM     37  C   UNL A   1      41.626 -20.858 -36.384  0.00  0.00    +0.021 A 
ATOM     38  C   UNL A   1      38.664 -23.823 -35.605  0.00  0.00    -0.010 C 
ATOM     39  C   UNL A   1      38.247 -23.990 -34.149  0.00  0.00    -0.047 C 
ATOM     40  C   UNL A   1      37.920 -22.631 -33.552  0.00  0.00    -0.049 C 
ATOM     41  C   UNL A   1      39.154 -21.728 -33.566  0.00  0.00    -0.024 C 
ENDBRANCH  26  28
ENDBRANCH  25  26
ENDBRANCH  24  25
ENDBRANCH  23  24
ENDBRANCH  22  23
ENDBRANCH   1  22
TORSDOF 14
ENDMDL
MODEL 13
REMARK VINA RESULT:    -6.523     17.381     21.360
REMARK INTER + INTRA:         -14.505
REMARK INTER:                 -11.121
REMARK INTRA:                  -3.384
REMARK UNBOUND:                -2.834
REMARK  Name = cpd142.pdb
REMARK  16 active torsions:
REMARK  status: ('A' for Active; 'I' for Inactive)
REMARK    1  A    between atoms: C_1  and  O_2
REMARK    2  A    between atoms: O_2  and  C_3
REMARK    3  A    between atoms: C_5  and  C_6
REMARK    4  A    between atoms: C_6  and  C_7
REMARK    5  A    between atoms: C_7  and  C_8
REMARK    6  A    between atoms: C_7  and  C_11
REMARK    7  A    between atoms: C_8  and  C_9
REMARK    8  A    between atoms: N_13  and  C_14
REMARK    9  A    between atoms: C_14  and  C_15
REMARK   10  A    between atoms: C_15  and  C_16
REMARK   11  A    between atoms: C_16  and  C_17
REMARK   12  A    between atoms: C_17  and  C_18
REMARK   13  A    between atoms: C_18  and  C_19
REMARK   14  A    between atoms: C_19  and  N_20
REMARK   15  A    between atoms: N_20  and  C_21
REMARK   16  A    between atoms: C_37  and  O_38
REMARK                            x       y       z     vdW  Elec       q    Type
REMARK                         _______ _______ _______ _____ _____    ______ ____
ROOT
ATOM      1  C   UNL A   1      40.335 -16.593 -37.519  0.00  0.00    -0.037 C 
ENDROOT
BRANCH   1   2
ATOM      2  C   UNL A   1      39.367 -17.676 -37.994  0.00  0.00    +0.012 C 
BRANCH   2   5
ATOM      3  C   UNL A   1      39.920 -20.061 -38.332  0.00  0.00    +0.224 C 
ATOM      4  O   UNL A   1      39.654 -20.034 -39.531  0.00  0.00    -0.275 OA
ATOM      5  N   UNL A   1      39.755 -18.979 -37.496  0.00  0.00    -0.315 N 
ATOM      6  H   UNL A   1      39.907 -19.096 -36.530  0.00  0.00    +0.000 HD
BRANCH   3   7
ATOM      7  C   UNL A   1      40.421 -21.326 -37.665  0.00  0.00    +0.097 C 
BRANCH   7   8
ATOM      8  C   UNL A   1      40.888 -22.335 -38.695  0.00  0.00    +0.142 C 
ATOM      9  C   UNL A   1      42.250 -22.119 -39.300  0.00  0.00    -0.005 C 
ATOM     10  O   UNL A   1      40.195 -23.308 -39.003  0.00  0.00    -0.297 OA
ENDBRANCH   7   8
BRANCH   7  11
ATOM     11  C   UNL A   1      41.542 -20.995 -36.672  0.00  0.00    -0.010 C 
BRANCH  11  14
ATOM     12  C   UNL A   1      40.164 -23.088 -33.787  0.00  0.00    +0.162 A 
ATOM     13  C   UNL A   1      40.437 -22.620 -35.076  0.00  0.00    -0.013 A 
ATOM     14  C   UNL A   1      41.227 -21.474 -35.273  0.00  0.00    -0.043 A 
ATOM     15  C   UNL A   1      41.750 -20.801 -34.161  0.00  0.00    -0.055 A 
ATOM     16  C   UNL A   1      41.488 -21.262 -32.872  0.00  0.00    -0.016 A 
ATOM     17  C   UNL A   1      40.702 -22.399 -32.693  0.00  0.00    +0.158 A 
BRANCH  12  19
ATOM     18  C   UNL A   1      37.999 -24.078 -33.624  0.00  0.00    +0.079 C 
ATOM     19  O   UNL A   1      39.410 -24.193 -33.496  0.00  0.00    -0.491 OA
ENDBRANCH  12  19
BRANCH  17  20
ATOM     20  O   UNL A   1      40.447 -22.853 -31.425  0.00  0.00    -0.503 OA
ATOM     21  H   UNL A   1      40.983 -23.524 -31.051  0.00  0.00    +0.000 HD
ENDBRANCH  17  20
ENDBRANCH  11  14
ENDBRANCH   7  11
ENDBRANCH   3   7
ENDBRANCH   2   5
ENDBRANCH   1   2
BRANCH   1  22
ATOM     22  C   UNL A   1      40.966 -15.854 -38.700  0.00  0.00    -0.052 C 
BRANCH  22  23
ATOM     23  C   UNL A   1      41.554 -16.793 -39.758  0.00  0.00    -0.052 C 
BRANCH  23  24
ATOM     24  C   UNL A   1      42.816 -16.248 -40.428  0.00  0.00    -0.037 C 
BRANCH  24  25
ATOM     25  C   UNL A   1      43.918 -17.310 -40.469  0.00  0.00    +0.009 C 
BRANCH  25  26
ATOM     26  N   UNL A   1      43.387 -18.569 -39.928  0.00  0.00    -0.343 N 
ATOM     27  H   UNL A   1      42.465 -18.885 -40.067  0.00  0.00    +0.000 HD
BRANCH  26  28
ATOM     28  C   UNL A   1      44.373 -19.277 -39.176  0.00  0.00    +0.041 A 
ATOM     29  C   UNL A   1      44.488 -19.092 -37.783  0.00  0.00    -0.005 A 
ATOM     30  C   UNL A   1      45.435 -19.866 -37.106  0.00  0.00    +0.047 A 
ATOM     31  N   UNL A   1      46.200 -20.805 -37.712  0.00  0.00    -0.251 NA
ATOM     32  C   UNL A   1      46.080 -20.988 -39.033  0.00  0.00    +0.073 A 
ATOM     33  C   UNL A   1      46.881 -21.947 -39.641  0.00  0.00    -0.036 A 
ATOM     34  C   UNL A   1      46.831 -22.192 -41.015  0.00  0.00    -0.060 A 
ATOM     35  C   UNL A   1      45.963 -21.459 -41.810  0.00  0.00    -0.061 A 
ATOM     36  C   UNL A   1      45.148 -20.494 -41.221  0.00  0.00    -0.051 A 
ATOM     37  C   UNL A   1      45.182 -20.249 -39.825  0.00  0.00    +0.021 A 
ATOM     38  C   UNL A   1      45.633 -19.756 -35.616  0.00  0.00    -0.010 C 
ATOM     39  C   UNL A   1      45.116 -18.447 -35.033  0.00  0.00    -0.047 C 
ATOM     40  C   UNL A   1      43.702 -18.191 -35.527  0.00  0.00    -0.049 C 
ATOM     41  C   UNL A   1      43.684 -18.045 -37.049  0.00  0.00    -0.024 C 
ENDBRANCH  26  28
ENDBRANCH  25  26
ENDBRANCH  24  25
ENDBRANCH  23  24
ENDBRANCH  22  23
ENDBRANCH   1  22
TORSDOF 14
ENDMDL
MODEL 14
REMARK VINA RESULT:    -6.490     18.657     22.200
REMARK INTER + INTRA:         -14.446
REMARK INTER:                 -12.366
REMARK INTRA:                  -2.079
REMARK UNBOUND:                -2.834
REMARK  Name = cpd142.pdb
REMARK  16 active torsions:
REMARK  status: ('A' for Active; 'I' for Inactive)
REMARK    1  A    between atoms: C_1  and  O_2
REMARK    2  A    between atoms: O_2  and  C_3
REMARK    3  A    between atoms: C_5  and  C_6
REMARK    4  A    between atoms: C_6  and  C_7
REMARK    5  A    between atoms: C_7  and  C_8
REMARK    6  A    between atoms: C_7  and  C_11
REMARK    7  A    between atoms: C_8  and  C_9
REMARK    8  A    between atoms: N_13  and  C_14
REMARK    9  A    between atoms: C_14  and  C_15
REMARK   10  A    between atoms: C_15  and  C_16
REMARK   11  A    between atoms: C_16  and  C_17
REMARK   12  A    between atoms: C_17  and  C_18
REMARK   13  A    between atoms: C_18  and  C_19
REMARK   14  A    between atoms: C_19  and  N_20
REMARK   15  A    between atoms: N_20  and  C_21
REMARK   16  A    between atoms: C_37  and  O_38
REMARK                            x       y       z     vdW  Elec       q    Type
REMARK                         _______ _______ _______ _____ _____    ______ ____
ROOT
ATOM      1  C   UNL A   1      44.755 -16.294 -36.009  0.00  0.00    -0.037 C 
ENDROOT
BRANCH   1   2
ATOM      2  C   UNL A   1      43.846 -15.965 -34.825  0.00  0.00    +0.012 C 
BRANCH   2   5
ATOM      3  C   UNL A   1      43.069 -17.769 -33.325  0.00  0.00    +0.224 C 
ATOM      4  O   UNL A   1      43.955 -17.571 -32.499  0.00  0.00    -0.275 OA
ATOM      5  N   UNL A   1      42.972 -17.076 -34.512  0.00  0.00    -0.315 N 
ATOM      6  H   UNL A   1      42.288 -17.345 -35.166  0.00  0.00    +0.000 HD
BRANCH   3   7
ATOM      7  C   UNL A   1      42.018 -18.841 -33.113  0.00  0.00    +0.097 C 
BRANCH   7   8
ATOM      8  C   UNL A   1      40.627 -18.293 -33.360  0.00  0.00    +0.142 C 
ATOM      9  C   UNL A   1      39.692 -18.235 -32.181  0.00  0.00    -0.005 C 
ATOM     10  O   UNL A   1      40.286 -17.882 -34.473  0.00  0.00    -0.297 OA
ENDBRANCH   7   8
BRANCH   7  11
ATOM     11  C   UNL A   1      42.301 -20.049 -34.014  0.00  0.00    -0.010 C 
BRANCH  11  14
ATOM     12  C   UNL A   1      40.764 -22.955 -32.065  0.00  0.00    +0.162 A 
ATOM     13  C   UNL A   1      41.575 -21.869 -32.413  0.00  0.00    -0.013 A 
ATOM     14  C   UNL A   1      41.440 -21.240 -33.662  0.00  0.00    -0.043 A 
ATOM     15  C   UNL A   1      40.475 -21.706 -34.564  0.00  0.00    -0.055 A 
ATOM     16  C   UNL A   1      39.658 -22.784 -34.227  0.00  0.00    -0.016 A 
ATOM     17  C   UNL A   1      39.804 -23.398 -32.984  0.00  0.00    +0.158 A 
BRANCH  12  19
ATOM     18  C   UNL A   1      41.969 -24.423 -30.622  0.00  0.00    +0.079 C 
ATOM     19  O   UNL A   1      40.819 -23.628 -30.874  0.00  0.00    -0.491 OA
ENDBRANCH  12  19
BRANCH  17  20
ATOM     20  O   UNL A   1      38.998 -24.456 -32.653  0.00  0.00    -0.503 OA
ATOM     21  H   UNL A   1      38.947 -24.744 -31.763  0.00  0.00    +0.000 HD
ENDBRANCH  17  20
ENDBRANCH  11  14
ENDBRANCH   7  11
ENDBRANCH   3   7
ENDBRANCH   2   5
ENDBRANCH   1   2
BRANCH   1  22
ATOM     22  C   UNL A   1      45.302 -17.719 -35.912  0.00  0.00    -0.052 C 
BRANCH  22  23
ATOM     23  C   UNL A   1      46.816 -17.772 -35.689  0.00  0.00    -0.052 C 
BRANCH  23  24
ATOM     24  C   UNL A   1      47.532 -18.793 -36.575  0.00  0.00    -0.037 C 
BRANCH  24  25
ATOM     25  C   UNL A   1      46.661 -19.188 -37.770  0.00  0.00    +0.009 C 
BRANCH  25  26
ATOM     26  N   UNL A   1      47.278 -18.673 -39.000  0.00  0.00    -0.343 N 
ATOM     27  H   UNL A   1      48.242 -18.503 -39.106  0.00  0.00    +0.000 HD
BRANCH  26  28
ATOM     28  C   UNL A   1      46.307 -18.451 -40.024  0.00  0.00    +0.041 A 
ATOM     29  C   UNL A   1      45.824 -19.522 -40.804  0.00  0.00    -0.005 A 
ATOM     30  C   UNL A   1      44.830 -19.237 -41.745  0.00  0.00    +0.047 A 
ATOM     31  N   UNL A   1      44.285 -18.007 -41.903  0.00  0.00    -0.251 NA
ATOM     32  C   UNL A   1      44.737 -16.994 -41.153  0.00  0.00    +0.073 A 
ATOM     33  C   UNL A   1      44.177 -15.736 -41.337  0.00  0.00    -0.036 A 
ATOM     34  C   UNL A   1      44.599 -14.622 -40.608  0.00  0.00    -0.060 A 
ATOM     35  C   UNL A   1      45.612 -14.761 -39.672  0.00  0.00    -0.061 A 
ATOM     36  C   UNL A   1      46.187 -16.015 -39.468  0.00  0.00    -0.051 A 
ATOM     37  C   UNL A   1      45.754 -17.152 -40.193  0.00  0.00    +0.021 A 
ATOM     38  C   UNL A   1      44.235 -20.308 -42.622  0.00  0.00    -0.010 C 
ATOM     39  C   UNL A   1      45.119 -21.542 -42.751  0.00  0.00    -0.047 C 
ATOM     40  C   UNL A   1      45.566 -21.998 -41.372  0.00  0.00    -0.049 C 
ATOM     41  C   UNL A   1      46.404 -20.912 -40.695  0.00  0.00    -0.024 C 
ENDBRANCH  26  28
ENDBRANCH  25  26
ENDBRANCH  24  25
ENDBRANCH  23  24
ENDBRANCH  22  23
ENDBRANCH   1  22
TORSDOF 14
ENDMDL
MODEL 15
REMARK VINA RESULT:    -6.487     18.641     22.545
REMARK INTER + INTRA:         -14.440
REMARK INTER:                  -9.727
REMARK INTRA:                  -4.713
REMARK UNBOUND:                -2.834
REMARK  Name = cpd142.pdb
REMARK  16 active torsions:
REMARK  status: ('A' for Active; 'I' for Inactive)
REMARK    1  A    between atoms: C_1  and  O_2
REMARK    2  A    between atoms: O_2  and  C_3
REMARK    3  A    between atoms: C_5  and  C_6
REMARK    4  A    between atoms: C_6  and  C_7
REMARK    5  A    between atoms: C_7  and  C_8
REMARK    6  A    between atoms: C_7  and  C_11
REMARK    7  A    between atoms: C_8  and  C_9
REMARK    8  A    between atoms: N_13  and  C_14
REMARK    9  A    between atoms: C_14  and  C_15
REMARK   10  A    between atoms: C_15  and  C_16
REMARK   11  A    between atoms: C_16  and  C_17
REMARK   12  A    between atoms: C_17  and  C_18
REMARK   13  A    between atoms: C_18  and  C_19
REMARK   14  A    between atoms: C_19  and  N_20
REMARK   15  A    between atoms: N_20  and  C_21
REMARK   16  A    between atoms: C_37  and  O_38
REMARK                            x       y       z     vdW  Elec       q    Type
REMARK                         _______ _______ _______ _____ _____    ______ ____
ROOT
ATOM      1  C   UNL A   1      46.198 -20.817 -40.972  0.00  0.00    -0.037 C 
ENDROOT
BRANCH   1   2
ATOM      2  C   UNL A   1      47.164 -21.044 -39.810  0.00  0.00    +0.012 C 
BRANCH   2   5
ATOM      3  C   UNL A   1      46.485 -20.054 -37.650  0.00  0.00    +0.224 C 
ATOM      4  O   UNL A   1      47.180 -19.054 -37.800  0.00  0.00    -0.275 OA
ATOM      5  N   UNL A   1      46.458 -21.099 -38.547  0.00  0.00    -0.315 N 
ATOM      6  H   UNL A   1      45.943 -21.907 -38.322  0.00  0.00    +0.000 HD
BRANCH   3   7
ATOM      7  C   UNL A   1      45.616 -20.233 -36.420  0.00  0.00    +0.097 C 
BRANCH   7   8
ATOM      8  C   UNL A   1      46.316 -19.711 -35.182  0.00  0.00    +0.142 C 
ATOM      9  C   UNL A   1      45.794 -18.430 -34.587  0.00  0.00    -0.005 C 
ATOM     10  O   UNL A   1      47.253 -20.325 -34.665  0.00  0.00    -0.297 OA
ENDBRANCH   7   8
BRANCH   7  11
ATOM     11  C   UNL A   1      44.263 -19.542 -36.621  0.00  0.00    -0.010 C 
BRANCH  11  14
ATOM     12  C   UNL A   1      41.658 -22.163 -37.594  0.00  0.00    +0.162 A 
ATOM     13  C   UNL A   1      42.708 -21.242 -37.668  0.00  0.00    -0.013 A 
ATOM     14  C   UNL A   1      43.106 -20.511 -36.536  0.00  0.00    -0.043 A 
ATOM     15  C   UNL A   1      42.443 -20.716 -35.319  0.00  0.00    -0.055 A 
ATOM     16  C   UNL A   1      41.398 -21.634 -35.232  0.00  0.00    -0.016 A 
ATOM     17  C   UNL A   1      41.014 -22.352 -36.364  0.00  0.00    +0.158 A 
BRANCH  12  19
ATOM     18  C   UNL A   1      41.280 -22.360 -39.941  0.00  0.00    +0.079 C 
ATOM     19  O   UNL A   1      41.203 -22.922 -38.638  0.00  0.00    -0.491 OA
ENDBRANCH  12  19
BRANCH  17  20
ATOM     20  O   UNL A   1      39.989 -23.256 -36.276  0.00  0.00    -0.503 OA
ATOM     21  H   UNL A   1      39.267 -23.092 -35.702  0.00  0.00    +0.000 HD
ENDBRANCH  17  20
ENDBRANCH  11  14
ENDBRANCH   7  11
ENDBRANCH   3   7
ENDBRANCH   2   5
ENDBRANCH   1   2
BRANCH   1  22
ATOM     22  C   UNL A   1      46.343 -19.408 -41.550  0.00  0.00    -0.052 C 
BRANCH  22  23
ATOM     23  C   UNL A   1      45.020 -18.637 -41.603  0.00  0.00    -0.052 C 
BRANCH  23  24
ATOM     24  C   UNL A   1      44.554 -18.124 -40.240  0.00  0.00    -0.037 C 
BRANCH  24  25
ATOM     25  C   UNL A   1      43.094 -18.503 -39.980  0.00  0.00    +0.009 C 
BRANCH  25  26
ATOM     26  N   UNL A   1      42.346 -17.294 -39.614  0.00  0.00    -0.343 N 
ATOM     27  H   UNL A   1      42.170 -16.545 -40.228  0.00  0.00    +0.000 HD
BRANCH  26  28
ATOM     28  C   UNL A   1      41.903 -17.338 -38.256  0.00  0.00    +0.041 A 
ATOM     29  C   UNL A   1      42.517 -16.537 -37.272  0.00  0.00    -0.005 A 
ATOM     30  C   UNL A   1      41.990 -16.588 -35.978  0.00  0.00    +0.047 A 
ATOM     31  N   UNL A   1      40.902 -17.324 -35.646  0.00  0.00    -0.251 NA
ATOM     32  C   UNL A   1      40.312 -18.074 -36.586  0.00  0.00    +0.073 A 
ATOM     33  C   UNL A   1      39.206 -18.833 -36.226  0.00  0.00    -0.036 A 
ATOM     34  C   UNL A   1      38.541 -19.654 -37.139  0.00  0.00    -0.060 A 
ATOM     35  C   UNL A   1      38.992 -19.727 -38.448  0.00  0.00    -0.061 A 
ATOM     36  C   UNL A   1      40.099 -18.973 -38.833  0.00  0.00    -0.051 A 
ATOM     37  C   UNL A   1      40.770 -18.126 -37.916  0.00  0.00    +0.021 A 
ATOM     38  C   UNL A   1      42.562 -15.765 -34.853  0.00  0.00    -0.010 C 
ATOM     39  C   UNL A   1      43.992 -15.305 -35.109  0.00  0.00    -0.047 C 
ATOM     40  C   UNL A   1      44.089 -14.682 -36.492  0.00  0.00    -0.049 C 
ATOM     41  C   UNL A   1      43.748 -15.713 -37.568  0.00  0.00    -0.024 C 
ENDBRANCH  26  28
ENDBRANCH  25  26
ENDBRANCH  24  25
ENDBRANCH  23  24
ENDBRANCH  22  23
ENDBRANCH   1  22
TORSDOF 14
ENDMDL
MODEL 16
REMARK VINA RESULT:    -6.475     18.941     23.188
REMARK INTER + INTRA:         -14.420
REMARK INTER:                 -10.419
REMARK INTRA:                  -4.001
REMARK UNBOUND:                -2.834
REMARK  Name = cpd142.pdb
REMARK  16 active torsions:
REMARK  status: ('A' for Active; 'I' for Inactive)
REMARK    1  A    between atoms: C_1  and  O_2
REMARK    2  A    between atoms: O_2  and  C_3
REMARK    3  A    between atoms: C_5  and  C_6
REMARK    4  A    between atoms: C_6  and  C_7
REMARK    5  A    between atoms: C_7  and  C_8
REMARK    6  A    between atoms: C_7  and  C_11
REMARK    7  A    between atoms: C_8  and  C_9
REMARK    8  A    between atoms: N_13  and  C_14
REMARK    9  A    between atoms: C_14  and  C_15
REMARK   10  A    between atoms: C_15  and  C_16
REMARK   11  A    between atoms: C_16  and  C_17
REMARK   12  A    between atoms: C_17  and  C_18
REMARK   13  A    between atoms: C_18  and  C_19
REMARK   14  A    between atoms: C_19  and  N_20
REMARK   15  A    between atoms: N_20  and  C_21
REMARK   16  A    between atoms: C_37  and  O_38
REMARK                            x       y       z     vdW  Elec       q    Type
REMARK                         _______ _______ _______ _____ _____    ______ ____
ROOT
ATOM      1  C   UNL A   1      46.240 -21.601 -40.536  0.00  0.00    -0.037 C 
ENDROOT
BRANCH   1   2
ATOM      2  C   UNL A   1      47.169 -20.442 -40.894  0.00  0.00    +0.012 C 
BRANCH   2   5
ATOM      3  C   UNL A   1      46.486 -18.351 -39.768  0.00  0.00    +0.224 C 
ATOM      4  O   UNL A   1      45.747 -18.006 -40.685  0.00  0.00    -0.275 OA
ATOM      5  N   UNL A   1      47.260 -19.490 -39.807  0.00  0.00    -0.315 N 
ATOM      6  H   UNL A   1      47.894 -19.661 -39.074  0.00  0.00    +0.000 HD
BRANCH   3   7
ATOM      7  C   UNL A   1      46.634 -17.510 -38.515  0.00  0.00    +0.097 C 
BRANCH   7   8
ATOM      8  C   UNL A   1      47.287 -16.180 -38.829  0.00  0.00    +0.142 C 
ATOM      9  C   UNL A   1      47.306 -15.148 -37.733  0.00  0.00    -0.005 C 
ATOM     10  O   UNL A   1      47.809 -15.963 -39.926  0.00  0.00    -0.297 OA
ENDBRANCH   7   8
BRANCH   7  11
ATOM     11  C   UNL A   1      45.269 -17.309 -37.846  0.00  0.00    -0.010 C 
BRANCH  11  14
ATOM     12  C   UNL A   1      44.894 -18.782 -34.340  0.00  0.00    +0.162 A 
ATOM     13  C   UNL A   1      45.141 -17.886 -35.385  0.00  0.00    -0.013 A 
ATOM     14  C   UNL A   1      45.030 -18.294 -36.725  0.00  0.00    -0.043 A 
ATOM     15  C   UNL A   1      44.661 -19.615 -37.012  0.00  0.00    -0.055 A 
ATOM     16  C   UNL A   1      44.407 -20.515 -35.978  0.00  0.00    -0.016 A 
ATOM     17  C   UNL A   1      44.522 -20.095 -34.654  0.00  0.00    +0.158 A 
BRANCH  12  19
ATOM     18  C   UNL A   1      45.347 -17.150 -32.659  0.00  0.00    +0.079 C 
ATOM     19  O   UNL A   1      44.973 -18.476 -33.008  0.00  0.00    -0.491 OA
ENDBRANCH  12  19
BRANCH  17  20
ATOM     20  O   UNL A   1      44.271 -20.980 -33.639  0.00  0.00    -0.503 OA
ATOM     21  H   UNL A   1      44.674 -20.860 -32.801  0.00  0.00    +0.000 HD
ENDBRANCH  17  20
ENDBRANCH  11  14
ENDBRANCH   7  11
ENDBRANCH   3   7
ENDBRANCH   2   5
ENDBRANCH   1   2
BRANCH   1  22
ATOM     22  C   UNL A   1      45.173 -21.813 -41.612  0.00  0.00    -0.052 C 
BRANCH  22  23
ATOM     23  C   UNL A   1      43.921 -20.957 -41.399  0.00  0.00    -0.052 C 
BRANCH  23  24
ATOM     24  C   UNL A   1      43.558 -20.757 -39.927  0.00  0.00    -0.037 C 
BRANCH  24  25
ATOM     25  C   UNL A   1      42.298 -21.545 -39.560  0.00  0.00    +0.009 C 
BRANCH  25  26
ATOM     26  N   UNL A   1      41.159 -20.619 -39.493  0.00  0.00    -0.343 N 
ATOM     27  H   UNL A   1      40.517 -20.478 -40.227  0.00  0.00    +0.000 HD
BRANCH  26  28
ATOM     28  C   UNL A   1      41.098 -19.948 -38.234  0.00  0.00    +0.041 A 
ATOM     29  C   UNL A   1      40.858 -20.668 -37.045  0.00  0.00    -0.005 A 
ATOM     30  C   UNL A   1      40.874 -19.952 -35.845  0.00  0.00    +0.047 A 
ATOM     31  N   UNL A   1      41.153 -18.629 -35.770  0.00  0.00    -0.251 NA
ATOM     32  C   UNL A   1      41.393 -17.950 -36.899  0.00  0.00    +0.073 A 
ATOM     33  C   UNL A   1      41.665 -16.591 -36.806  0.00  0.00    -0.036 A 
ATOM     34  C   UNL A   1      41.912 -15.805 -37.934  0.00  0.00    -0.060 A 
ATOM     35  C   UNL A   1      41.882 -16.386 -39.192  0.00  0.00    -0.061 A 
ATOM     36  C   UNL A   1      41.614 -17.749 -39.309  0.00  0.00    -0.051 A 
ATOM     37  C   UNL A   1      41.377 -18.556 -38.169  0.00  0.00    +0.021 A 
ATOM     38  C   UNL A   1      40.641 -20.624 -34.515  0.00  0.00    -0.010 C 
ATOM     39  C   UNL A   1      39.918 -21.960 -34.633  0.00  0.00    -0.047 C 
ATOM     40  C   UNL A   1      40.595 -22.816 -35.690  0.00  0.00    -0.049 C 
ATOM     41  C   UNL A   1      40.516 -22.139 -37.059  0.00  0.00    -0.024 C 
ENDBRANCH  26  28
ENDBRANCH  25  26
ENDBRANCH  24  25
ENDBRANCH  23  24
ENDBRANCH  22  23
ENDBRANCH   1  22
TORSDOF 14
ENDMDL
MODEL 17
REMARK VINA RESULT:    -6.341     18.066     21.961
REMARK INTER + INTRA:         -14.179
REMARK INTER:                 -11.073
REMARK INTRA:                  -3.106
REMARK UNBOUND:                -2.834
REMARK  Name = cpd142.pdb
REMARK  16 active torsions:
REMARK  status: ('A' for Active; 'I' for Inactive)
REMARK    1  A    between atoms: C_1  and  O_2
REMARK    2  A    between atoms: O_2  and  C_3
REMARK    3  A    between atoms: C_5  and  C_6
REMARK    4  A    between atoms: C_6  and  C_7
REMARK    5  A    between atoms: C_7  and  C_8
REMARK    6  A    between atoms: C_7  and  C_11
REMARK    7  A    between atoms: C_8  and  C_9
REMARK    8  A    between atoms: N_13  and  C_14
REMARK    9  A    between atoms: C_14  and  C_15
REMARK   10  A    between atoms: C_15  and  C_16
REMARK   11  A    between atoms: C_16  and  C_17
REMARK   12  A    between atoms: C_17  and  C_18
REMARK   13  A    between atoms: C_18  and  C_19
REMARK   14  A    between atoms: C_19  and  N_20
REMARK   15  A    between atoms: N_20  and  C_21
REMARK   16  A    between atoms: C_37  and  O_38
REMARK                            x       y       z     vdW  Elec       q    Type
REMARK                         _______ _______ _______ _____ _____    ______ ____
ROOT
ATOM      1  C   UNL A   1      45.589 -14.633 -36.770  0.00  0.00    -0.037 C 
ENDROOT
BRANCH   1   2
ATOM      2  C   UNL A   1      44.472 -14.878 -35.756  0.00  0.00    +0.012 C 
BRANCH   2   5
ATOM      3  C   UNL A   1      43.828 -16.671 -34.182  0.00  0.00    +0.224 C 
ATOM      4  O   UNL A   1      43.393 -15.887 -33.344  0.00  0.00    -0.275 OA
ATOM      5  N   UNL A   1      44.423 -16.269 -35.358  0.00  0.00    -0.315 N 
ATOM      6  H   UNL A   1      44.826 -16.949 -35.944  0.00  0.00    +0.000 HD
BRANCH   3   7
ATOM      7  C   UNL A   1      43.777 -18.170 -33.961  0.00  0.00    +0.097 C 
BRANCH   7   8
ATOM      8  C   UNL A   1      45.167 -18.772 -34.009  0.00  0.00    +0.142 C 
ATOM      9  C   UNL A   1      45.266 -20.249 -34.284  0.00  0.00    -0.005 C 
ATOM     10  O   UNL A   1      46.175 -18.077 -33.859  0.00  0.00    -0.297 OA
ENDBRANCH   7   8
BRANCH   7  11
ATOM     11  C   UNL A   1      43.085 -18.488 -32.630  0.00  0.00    -0.010 C 
BRANCH  11  14
ATOM     12  C   UNL A   1      40.619 -21.400 -32.812  0.00  0.00    +0.162 A 
ATOM     13  C   UNL A   1      41.801 -20.668 -32.665  0.00  0.00    -0.013 A 
ATOM     14  C   UNL A   1      41.807 -19.271 -32.822  0.00  0.00    -0.043 A 
ATOM     15  C   UNL A   1      40.610 -18.609 -33.123  0.00  0.00    -0.055 A 
ATOM     16  C   UNL A   1      39.425 -19.328 -33.268  0.00  0.00    -0.016 A 
ATOM     17  C   UNL A   1      39.435 -20.713 -33.110  0.00  0.00    +0.158 A 
BRANCH  12  19
ATOM     18  C   UNL A   1      41.290 -23.379 -31.660  0.00  0.00    +0.079 C 
ATOM     19  O   UNL A   1      40.513 -22.759 -32.676  0.00  0.00    -0.491 OA
ENDBRANCH  12  19
BRANCH  17  20
ATOM     20  O   UNL A   1      38.268 -21.419 -33.249  0.00  0.00    -0.503 OA
ATOM     21  H   UNL A   1      37.448 -21.011 -33.051  0.00  0.00    +0.000 HD
ENDBRANCH  17  20
ENDBRANCH  11  14
ENDBRANCH   7  11
ENDBRANCH   3   7
ENDBRANCH   2   5
ENDBRANCH   1   2
BRANCH   1  22
ATOM     22  C   UNL A   1      46.604 -15.777 -36.767  0.00  0.00    -0.052 C 
BRANCH  22  23
ATOM     23  C   UNL A   1      46.739 -16.470 -38.126  0.00  0.00    -0.052 C 
BRANCH  23  24
ATOM     24  C   UNL A   1      46.818 -17.994 -38.032  0.00  0.00    -0.037 C 
BRANCH  24  25
ATOM     25  C   UNL A   1      45.441 -18.599 -37.746  0.00  0.00    +0.009 C 
BRANCH  25  26
ATOM     26  N   UNL A   1      45.534 -20.062 -37.842  0.00  0.00    -0.343 N 
ATOM     27  H   UNL A   1      46.237 -20.601 -37.412  0.00  0.00    +0.000 HD
BRANCH  26  28
ATOM     28  C   UNL A   1      44.480 -20.607 -38.636  0.00  0.00    +0.041 A 
ATOM     29  C   UNL A   1      43.211 -20.859 -38.075  0.00  0.00    -0.005 A 
ATOM     30  C   UNL A   1      42.211 -21.334 -38.929  0.00  0.00    +0.047 A 
ATOM     31  N   UNL A   1      42.391 -21.513 -40.259  0.00  0.00    -0.251 NA
ATOM     32  C   UNL A   1      43.593 -21.261 -40.793  0.00  0.00    +0.073 A 
ATOM     33  C   UNL A   1      43.765 -21.462 -42.157  0.00  0.00    -0.036 A 
ATOM     34  C   UNL A   1      44.988 -21.238 -42.791  0.00  0.00    -0.060 A 
ATOM     35  C   UNL A   1      46.076 -20.806 -42.047  0.00  0.00    -0.061 A 
ATOM     36  C   UNL A   1      45.926 -20.595 -40.677  0.00  0.00    -0.051 A 
ATOM     37  C   UNL A   1      44.684 -20.806 -40.029  0.00  0.00    +0.021 A 
ATOM     38  C   UNL A   1      40.817 -21.626 -38.436  0.00  0.00    -0.010 C 
ATOM     39  C   UNL A   1      40.743 -21.843 -36.929  0.00  0.00    -0.047 C 
ATOM     40  C   UNL A   1      41.468 -20.715 -36.214  0.00  0.00    -0.049 C 
ATOM     41  C   UNL A   1      42.949 -20.705 -36.595  0.00  0.00    -0.024 C 
ENDBRANCH  26  28
ENDBRANCH  25  26
ENDBRANCH  24  25
ENDBRANCH  23  24
ENDBRANCH  22  23
ENDBRANCH   1  22
TORSDOF 14
ENDMDL
MODEL 18
REMARK VINA RESULT:    -6.326     18.043     21.820
REMARK INTER + INTRA:         -14.153
REMARK INTER:                 -11.013
REMARK INTRA:                  -3.140
REMARK UNBOUND:                -2.834
REMARK  Name = cpd142.pdb
REMARK  16 active torsions:
REMARK  status: ('A' for Active; 'I' for Inactive)
REMARK    1  A    between atoms: C_1  and  O_2
REMARK    2  A    between atoms: O_2  and  C_3
REMARK    3  A    between atoms: C_5  and  C_6
REMARK    4  A    between atoms: C_6  and  C_7
REMARK    5  A    between atoms: C_7  and  C_8
REMARK    6  A    between atoms: C_7  and  C_11
REMARK    7  A    between atoms: C_8  and  C_9
REMARK    8  A    between atoms: N_13  and  C_14
REMARK    9  A    between atoms: C_14  and  C_15
REMARK   10  A    between atoms: C_15  and  C_16
REMARK   11  A    between atoms: C_16  and  C_17
REMARK   12  A    between atoms: C_17  and  C_18
REMARK   13  A    between atoms: C_18  and  C_19
REMARK   14  A    between atoms: C_19  and  N_20
REMARK   15  A    between atoms: N_20  and  C_21
REMARK   16  A    between atoms: C_37  and  O_38
REMARK                            x       y       z     vdW  Elec       q    Type
REMARK                         _______ _______ _______ _____ _____    ______ ____
ROOT
ATOM      1  C   UNL A   1      45.850 -14.976 -37.075  0.00  0.00    -0.037 C 
ENDROOT
BRANCH   1   2
ATOM      2  C   UNL A   1      44.823 -15.061 -35.947  0.00  0.00    +0.012 C 
BRANCH   2   5
ATOM      3  C   UNL A   1      44.003 -16.733 -34.322  0.00  0.00    +0.224 C 
ATOM      4  O   UNL A   1      43.621 -15.884 -33.522  0.00  0.00    -0.275 OA
ATOM      5  N   UNL A   1      44.650 -16.427 -35.500  0.00  0.00    -0.315 N 
ATOM      6  H   UNL A   1      45.005 -17.160 -36.053  0.00  0.00    +0.000 HD
BRANCH   3   7
ATOM      7  C   UNL A   1      43.822 -18.213 -34.048  0.00  0.00    +0.097 C 
BRANCH   7   8
ATOM      8  C   UNL A   1      45.160 -18.922 -33.994  0.00  0.00    +0.142 C 
ATOM      9  C   UNL A   1      45.152 -20.419 -34.154  0.00  0.00    -0.005 C 
ATOM     10  O   UNL A   1      46.215 -18.296 -33.855  0.00  0.00    -0.297 OA
ENDBRANCH   7   8
BRANCH   7  11
ATOM     11  C   UNL A   1      43.037 -18.420 -32.748  0.00  0.00    -0.010 C 
BRANCH  11  14
ATOM     12  C   UNL A   1      40.586 -21.346 -32.937  0.00  0.00    +0.162 A 
ATOM     13  C   UNL A   1      41.760 -20.605 -32.766  0.00  0.00    -0.013 A 
ATOM     14  C   UNL A   1      41.769 -19.214 -32.965  0.00  0.00    -0.043 A 
ATOM     15  C   UNL A   1      40.583 -18.566 -33.332  0.00  0.00    -0.055 A 
ATOM     16  C   UNL A   1      39.406 -19.293 -33.501  0.00  0.00    -0.016 A 
ATOM     17  C   UNL A   1      39.413 -20.673 -33.300  0.00  0.00    +0.158 A 
BRANCH  12  19
ATOM     18  C   UNL A   1      41.284 -23.299 -31.757  0.00  0.00    +0.079 C 
ATOM     19  O   UNL A   1      40.478 -22.700 -32.763  0.00  0.00    -0.491 OA
ENDBRANCH  12  19
BRANCH  17  20
ATOM     20  O   UNL A   1      38.255 -21.386 -33.463  0.00  0.00    -0.503 OA
ATOM     21  H   UNL A   1      37.811 -21.377 -34.289  0.00  0.00    +0.000 HD
ENDBRANCH  17  20
ENDBRANCH  11  14
ENDBRANCH   7  11
ENDBRANCH   3   7
ENDBRANCH   2   5
ENDBRANCH   1   2
BRANCH   1  22
ATOM     22  C   UNL A   1      46.919 -16.061 -36.938  0.00  0.00    -0.052 C 
BRANCH  22  23
ATOM     23  C   UNL A   1      47.087 -16.908 -38.203  0.00  0.00    -0.052 C 
BRANCH  23  24
ATOM     24  C   UNL A   1      47.117 -18.414 -37.934  0.00  0.00    -0.037 C 
BRANCH  24  25
ATOM     25  C   UNL A   1      45.725 -18.933 -37.564  0.00  0.00    +0.009 C 
BRANCH  25  26
ATOM     26  N   UNL A   1      45.682 -20.384 -37.791  0.00  0.00    -0.343 N 
ATOM     27  H   UNL A   1      46.307 -21.026 -37.382  0.00  0.00    +0.000 HD
BRANCH  26  28
ATOM     28  C   UNL A   1      44.623 -20.748 -38.677  0.00  0.00    +0.041 A 
ATOM     29  C   UNL A   1      44.884 -21.033 -40.033  0.00  0.00    -0.005 A 
ATOM     30  C   UNL A   1      43.807 -21.443 -40.824  0.00  0.00    +0.047 A 
ATOM     31  N   UNL A   1      42.554 -21.623 -40.342  0.00  0.00    -0.251 NA
ATOM     32  C   UNL A   1      42.311 -21.364 -39.050  0.00  0.00    +0.073 A 
ATOM     33  C   UNL A   1      41.018 -21.540 -38.575  0.00  0.00    -0.036 A 
ATOM     34  C   UNL A   1      40.675 -21.279 -37.246  0.00  0.00    -0.060 A 
ATOM     35  C   UNL A   1      41.644 -20.824 -36.366  0.00  0.00    -0.061 A 
ATOM     36  C   UNL A   1      42.949 -20.642 -36.821  0.00  0.00    -0.051 A 
ATOM     37  C   UNL A   1      43.309 -20.918 -38.163  0.00  0.00    +0.021 A 
ATOM     38  C   UNL A   1      43.976 -21.783 -42.283  0.00  0.00    -0.010 C 
ATOM     39  C   UNL A   1      45.231 -21.180 -42.902  0.00  0.00    -0.047 C 
ATOM     40  C   UNL A   1      46.430 -21.474 -42.017  0.00  0.00    -0.049 C 
ATOM     41  C   UNL A   1      46.252 -20.831 -40.642  0.00  0.00    -0.024 C 
ENDBRANCH  26  28
ENDBRANCH  25  26
ENDBRANCH  24  25
ENDBRANCH  23  24
ENDBRANCH  22  23
ENDBRANCH   1  22
TORSDOF 14
ENDMDL
MODEL 19
REMARK VINA RESULT:    -6.326     17.607     21.930
REMARK INTER + INTRA:         -14.152
REMARK INTER:                 -11.085
REMARK INTRA:                  -3.068
REMARK UNBOUND:                -2.834
REMARK  Name = cpd142.pdb
REMARK  16 active torsions:
REMARK  status: ('A' for Active; 'I' for Inactive)
REMARK    1  A    between atoms: C_1  and  O_2
REMARK    2  A    between atoms: O_2  and  C_3
REMARK    3  A    between atoms: C_5  and  C_6
REMARK    4  A    between atoms: C_6  and  C_7
REMARK    5  A    between atoms: C_7  and  C_8
REMARK    6  A    between atoms: C_7  and  C_11
REMARK    7  A    between atoms: C_8  and  C_9
REMARK    8  A    between atoms: N_13  and  C_14
REMARK    9  A    between atoms: C_14  and  C_15
REMARK   10  A    between atoms: C_15  and  C_16
REMARK   11  A    between atoms: C_16  and  C_17
REMARK   12  A    between atoms: C_17  and  C_18
REMARK   13  A    between atoms: C_18  and  C_19
REMARK   14  A    between atoms: C_19  and  N_20
REMARK   15  A    between atoms: N_20  and  C_21
REMARK   16  A    between atoms: C_37  and  O_38
REMARK                            x       y       z     vdW  Elec       q    Type
REMARK                         _______ _______ _______ _____ _____    ______ ____
ROOT
ATOM      1  C   UNL A   1      43.524 -18.890 -33.138  0.00  0.00    -0.037 C 
ENDROOT
BRANCH   1   2
ATOM      2  C   UNL A   1      43.856 -19.899 -34.236  0.00  0.00    +0.012 C 
BRANCH   2   5
ATOM      3  C   UNL A   1      44.233 -19.789 -36.676  0.00  0.00    +0.224 C 
ATOM      4  O   UNL A   1      43.783 -20.913 -36.876  0.00  0.00    -0.275 OA
ATOM      5  N   UNL A   1      44.361 -19.237 -35.421  0.00  0.00    -0.315 N 
ATOM      6  H   UNL A   1      44.810 -18.366 -35.326  0.00  0.00    +0.000 HD
BRANCH   3   7
ATOM      7  C   UNL A   1      44.729 -18.924 -37.818  0.00  0.00    +0.097 C 
BRANCH   7   8
ATOM      8  C   UNL A   1      44.710 -17.458 -37.435  0.00  0.00    +0.142 C 
ATOM      9  C   UNL A   1      43.558 -16.631 -37.942  0.00  0.00    -0.005 C 
ATOM     10  O   UNL A   1      45.584 -16.970 -36.715  0.00  0.00    -0.297 OA
ENDBRANCH   7   8
BRANCH   7  11
ATOM     11  C   UNL A   1      46.135 -19.363 -38.245  0.00  0.00    -0.010 C 
BRANCH  11  14
ATOM     12  C   UNL A   1      47.218 -21.980 -40.810  0.00  0.00    +0.162 A 
ATOM     13  C   UNL A   1      47.243 -21.074 -39.745  0.00  0.00    -0.013 A 
ATOM     14  C   UNL A   1      46.106 -20.316 -39.418  0.00  0.00    -0.043 A 
ATOM     15  C   UNL A   1      44.933 -20.479 -40.167  0.00  0.00    -0.055 A 
ATOM     16  C   UNL A   1      44.896 -21.383 -41.228  0.00  0.00    -0.016 A 
ATOM     17  C   UNL A   1      46.032 -22.127 -41.540  0.00  0.00    +0.158 A 
BRANCH  12  19
ATOM     18  C   UNL A   1      49.576 -22.344 -40.823  0.00  0.00    +0.079 C 
ATOM     19  O   UNL A   1      48.272 -22.762 -41.201  0.00  0.00    -0.491 OA
ENDBRANCH  12  19
BRANCH  17  20
ATOM     20  O   UNL A   1      45.993 -23.017 -42.581  0.00  0.00    -0.503 OA
ATOM     21  H   UNL A   1      45.826 -23.925 -42.416  0.00  0.00    +0.000 HD
ENDBRANCH  17  20
ENDBRANCH  11  14
ENDBRANCH   7  11
ENDBRANCH   3   7
ENDBRANCH   2   5
ENDBRANCH   1   2
BRANCH   1  22
ATOM     22  C   UNL A   1      42.086 -18.386 -33.260  0.00  0.00    -0.052 C 
BRANCH  22  23
ATOM     23  C   UNL A   1      41.952 -17.143 -34.144  0.00  0.00    -0.052 C 
BRANCH  23  24
ATOM     24  C   UNL A   1      40.655 -17.102 -34.953  0.00  0.00    -0.037 C 
BRANCH  24  25
ATOM     25  C   UNL A   1      40.755 -17.990 -36.196  0.00  0.00    +0.009 C 
BRANCH  25  26
ATOM     26  N   UNL A   1      39.606 -18.905 -36.222  0.00  0.00    -0.343 N 
ATOM     27  H   UNL A   1      38.666 -18.612 -36.258  0.00  0.00    +0.000 HD
BRANCH  26  28
ATOM     28  C   UNL A   1      40.019 -20.272 -36.188  0.00  0.00    +0.041 A 
ATOM     29  C   UNL A   1      39.896 -21.033 -35.008  0.00  0.00    -0.005 A 
ATOM     30  C   UNL A   1      40.263 -22.381 -35.069  0.00  0.00    +0.047 A 
ATOM     31  N   UNL A   1      40.679 -22.989 -36.206  0.00  0.00    -0.251 NA
ATOM     32  C   UNL A   1      40.783 -22.266 -37.329  0.00  0.00    +0.073 A 
ATOM     33  C   UNL A   1      41.223 -22.902 -38.483  0.00  0.00    -0.036 A 
ATOM     34  C   UNL A   1      41.375 -22.221 -39.693  0.00  0.00    -0.060 A 
ATOM     35  C   UNL A   1      41.085 -20.866 -39.756  0.00  0.00    -0.061 A 
ATOM     36  C   UNL A   1      40.639 -20.208 -38.611  0.00  0.00    -0.051 A 
ATOM     37  C   UNL A   1      40.469 -20.896 -37.384  0.00  0.00    +0.021 A 
ATOM     38  C   UNL A   1      40.161 -23.288 -33.870  0.00  0.00    -0.010 C 
ATOM     39  C   UNL A   1      40.122 -22.536 -32.545  0.00  0.00    -0.047 C 
ATOM     40  C   UNL A   1      39.087 -21.425 -32.618  0.00  0.00    -0.049 C 
ATOM     41  C   UNL A   1      39.462 -20.413 -33.701  0.00  0.00    -0.024 C 
ENDBRANCH  26  28
ENDBRANCH  25  26
ENDBRANCH  24  25
ENDBRANCH  23  24
ENDBRANCH  22  23
ENDBRANCH   1  22
TORSDOF 14
ENDMDL
MODEL 20
REMARK VINA RESULT:    -6.308     18.946     23.264
REMARK INTER + INTRA:         -14.121
REMARK INTER:                 -11.066
REMARK INTRA:                  -3.055
REMARK UNBOUND:                -2.834
REMARK  Name = cpd142.pdb
REMARK  16 active torsions:
REMARK  status: ('A' for Active; 'I' for Inactive)
REMARK    1  A    between atoms: C_1  and  O_2
REMARK    2  A    between atoms: O_2  and  C_3
REMARK    3  A    between atoms: C_5  and  C_6
REMARK    4  A    between atoms: C_6  and  C_7
REMARK    5  A    between atoms: C_7  and  C_8
REMARK    6  A    between atoms: C_7  and  C_11
REMARK    7  A    between atoms: C_8  and  C_9
REMARK    8  A    between atoms: N_13  and  C_14
REMARK    9  A    between atoms: C_14  and  C_15
REMARK   10  A    between atoms: C_15  and  C_16
REMARK   11  A    between atoms: C_16  and  C_17
REMARK   12  A    between atoms: C_17  and  C_18
REMARK   13  A    between atoms: C_18  and  C_19
REMARK   14  A    between atoms: C_19  and  N_20
REMARK   15  A    between atoms: N_20  and  C_21
REMARK   16  A    between atoms: C_37  and  O_38
REMARK                            x       y       z     vdW  Elec       q    Type
REMARK                         _______ _______ _______ _____ _____    ______ ____
ROOT
ATOM      1  C   UNL A   1      41.827 -16.858 -37.284  0.00  0.00    -0.037 C 
ENDROOT
BRANCH   1   2
ATOM      2  C   UNL A   1      42.734 -15.665 -37.581  0.00  0.00    +0.012 C 
BRANCH   2   5
ATOM      3  C   UNL A   1      43.675 -15.949 -39.848  0.00  0.00    +0.224 C 
ATOM      4  O   UNL A   1      42.622 -15.658 -40.407  0.00  0.00    -0.275 OA
ATOM      5  N   UNL A   1      43.807 -16.035 -38.480  0.00  0.00    -0.315 N 
ATOM      6  H   UNL A   1      44.657 -16.357 -38.102  0.00  0.00    +0.000 HD
BRANCH   3   7
ATOM      7  C   UNL A   1      44.923 -16.282 -40.641  0.00  0.00    +0.097 C 
BRANCH   7   8
ATOM      8  C   UNL A   1      45.882 -15.110 -40.661  0.00  0.00    +0.142 C 
ATOM      9  C   UNL A   1      47.303 -15.391 -41.071  0.00  0.00    -0.005 C 
ATOM     10  O   UNL A   1      45.507 -13.968 -40.382  0.00  0.00    -0.297 OA
ENDBRANCH   7   8
BRANCH   7  11
ATOM     11  C   UNL A   1      45.597 -17.536 -40.070  0.00  0.00    -0.010 C 
BRANCH  11  14
ATOM     12  C   UNL A   1      46.445 -20.818 -41.833  0.00  0.00    +0.162 A 
ATOM     13  C   UNL A   1      46.509 -19.717 -40.973  0.00  0.00    -0.013 A 
ATOM     14  C   UNL A   1      45.535 -18.705 -41.026  0.00  0.00    -0.043 A 
ATOM     15  C   UNL A   1      44.488 -18.808 -41.950  0.00  0.00    -0.055 A 
ATOM     16  C   UNL A   1      44.412 -19.903 -42.809  0.00  0.00    -0.016 A 
ATOM     17  C   UNL A   1      45.385 -20.899 -42.745  0.00  0.00    +0.158 A 
BRANCH  12  19
ATOM     18  C   UNL A   1      47.212 -22.854 -40.854  0.00  0.00    +0.079 C 
ATOM     19  O   UNL A   1      47.342 -21.853 -41.853  0.00  0.00    -0.491 OA
ENDBRANCH  12  19
BRANCH  17  20
ATOM     20  O   UNL A   1      45.308 -21.977 -43.588  0.00  0.00    -0.503 OA
ATOM     21  H   UNL A   1      46.049 -22.540 -43.697  0.00  0.00    +0.000 HD
ENDBRANCH  17  20
ENDBRANCH  11  14
ENDBRANCH   7  11
ENDBRANCH   3   7
ENDBRANCH   2   5
ENDBRANCH   1   2
BRANCH   1  22
ATOM     22  C   UNL A   1      41.779 -17.162 -35.786  0.00  0.00    -0.052 C 
BRANCH  22  23
ATOM     23  C   UNL A   1      43.074 -16.797 -35.053  0.00  0.00    -0.052 C 
BRANCH  23  24
ATOM     24  C   UNL A   1      43.761 -17.991 -34.390  0.00  0.00    -0.037 C 
BRANCH  24  25
ATOM     25  C   UNL A   1      42.732 -19.007 -33.887  0.00  0.00    +0.009 C 
BRANCH  25  26
ATOM     26  N   UNL A   1      43.170 -20.357 -34.270  0.00  0.00    -0.343 N 
ATOM     27  H   UNL A   1      44.011 -20.771 -33.970  0.00  0.00    +0.000 HD
BRANCH  26  28
ATOM     28  C   UNL A   1      42.224 -20.994 -35.130  0.00  0.00    +0.041 A 
ATOM     29  C   UNL A   1      42.452 -21.072 -36.519  0.00  0.00    -0.005 A 
ATOM     30  C   UNL A   1      41.512 -21.765 -37.288  0.00  0.00    +0.047 A 
ATOM     31  N   UNL A   1      40.436 -22.395 -36.759  0.00  0.00    -0.251 NA
ATOM     32  C   UNL A   1      40.228 -22.330 -35.438  0.00  0.00    +0.073 A 
ATOM     33  C   UNL A   1      39.113 -22.972 -34.913  0.00  0.00    -0.036 A 
ATOM     34  C   UNL A   1      38.814 -22.942 -33.549  0.00  0.00    -0.060 A 
ATOM     35  C   UNL A   1      39.645 -22.249 -32.681  0.00  0.00    -0.061 A 
ATOM     36  C   UNL A   1      40.771 -21.601 -33.185  0.00  0.00    -0.051 A 
ATOM     37  C   UNL A   1      41.090 -21.639 -34.566  0.00  0.00    +0.021 A 
ATOM     38  C   UNL A   1      41.663 -21.919 -38.780  0.00  0.00    -0.010 C 
ATOM     39  C   UNL A   1      42.587 -20.880 -39.403  0.00  0.00    -0.047 C 
ATOM     40  C   UNL A   1      43.886 -20.813 -38.616  0.00  0.00    -0.049 C 
ATOM     41  C   UNL A   1      43.617 -20.372 -37.177  0.00  0.00    -0.024 C 
ENDBRANCH  26  28
ENDBRANCH  25  26
ENDBRANCH  24  25
ENDBRANCH  23  24
ENDBRANCH  22  23
ENDBRANCH   1  22
TORSDOF 14
ENDMDL
