REMARK  Name = cpd142.pdb
REMARK  16 active torsions:
REMARK  status: ('A' for Active; 'I' for Inactive)
REMARK    1  A    between atoms: C_1  and  O_2
REMARK    2  A    between atoms: O_2  and  C_3
REMARK    3  A    between atoms: C_5  and  C_6
REMARK    4  A    between atoms: C_6  and  C_7
REMARK    5  A    between atoms: C_7  and  C_8
REMARK    6  A    between atoms: C_7  and  C_11
REMARK    7  A    between atoms: C_8  and  C_9
REMARK    8  A    between atoms: N_13  and  C_14
REMARK    9  A    between atoms: C_14  and  C_15
REMARK   10  A    between atoms: C_15  and  C_16
REMARK   11  A    between atoms: C_16  and  C_17
REMARK   12  A    between atoms: C_17  and  C_18
REMARK   13  A    between atoms: C_18  and  C_19
REMARK   14  A    between atoms: C_19  and  N_20
REMARK   15  A    between atoms: N_20  and  C_21
REMARK   16  A    between atoms: C_37  and  O_38
REMARK                            x       y       z     vdW  Elec       q    Type
REMARK                         _______ _______ _______ _____ _____    ______ ____
ROOT
ATOM      1  C   UNL A   1       5.987   3.475   1.589  0.00  0.00    -0.037 C 
ENDROOT
BRANCH   1   2
ATOM      2  C   UNL A   1       4.556   3.976   1.780  0.00  0.00    +0.012 C 
BRANCH   2   5
ATOM      3  C   UNL A   1       3.145   2.736   0.174  0.00  0.00    +0.224 C 
ATOM      4  O   UNL A   1       3.441   3.464  -0.769  0.00  0.00    -0.275 OA
ATOM      5  N   UNL A   1       3.593   2.943   1.460  0.00  0.00    -0.315 N 
ATOM      6  H   UNL A   1       3.248   2.371   2.183  0.00  0.00    +0.000 HD
BRANCH   3   7
ATOM      7  C   UNL A   1       2.213   1.554  -0.005  0.00  0.00    +0.097 C 
BRANCH   7   8
ATOM      8  C   UNL A   1       2.878   0.267   0.439  0.00  0.00    +0.142 C 
ATOM      9  C   UNL A   1       3.206  -0.741  -0.630  0.00  0.00    -0.005 C 
ATOM     10  O   UNL A   1       3.166   0.067   1.622  0.00  0.00    -0.297 OA
ENDBRANCH   7   8
BRANCH   7  11
ATOM     11  C   UNL A   1       0.904   1.789   0.758  0.00  0.00    -0.010 C 
BRANCH  11  14
ATOM     12  C   UNL A   1      -1.934   0.102  -1.166  0.00  0.00    +0.162 A 
ATOM     13  C   UNL A   1      -0.955   1.023  -0.779  0.00  0.00    -0.013 A 
ATOM     14  C   UNL A   1      -0.172   0.802   0.367  0.00  0.00    -0.043 A 
ATOM     15  C   UNL A   1      -0.375  -0.359   1.124  0.00  0.00    -0.055 A 
ATOM     16  C   UNL A   1      -1.345  -1.286   0.745  0.00  0.00    -0.016 A 
ATOM     17  C   UNL A   1      -2.114  -1.053  -0.394  0.00  0.00    +0.158 A 
BRANCH  12  19
ATOM     18  C   UNL A   1      -2.667   1.443  -2.998  0.00  0.00    +0.079 C 
ATOM     19  O   UNL A   1      -2.741   0.228  -2.265  0.00  0.00    -0.491 OA
ENDBRANCH  12  19
BRANCH  17  20
ATOM     20  O   UNL A   1      -3.065  -1.966  -0.767  0.00  0.00    -0.503 OA
ATOM     21  H   UNL A   1      -3.585  -1.815  -1.532  0.00  0.00    +0.000 HD
ENDBRANCH  17  20
ENDBRANCH  11  14
ENDBRANCH   7  11
ENDBRANCH   3   7
ENDBRANCH   2   5
ENDBRANCH   1   2
BRANCH   1  22
ATOM     22  C   UNL A   1       7.008   4.554   1.952  0.00  0.00    -0.052 C 
BRANCH  22  23
ATOM     23  C   UNL A   1       8.450   4.038   1.979  0.00  0.00    -0.052 C 
BRANCH  23  24
ATOM     24  C   UNL A   1       8.969   3.596   0.610  0.00  0.00    -0.037 C 
BRANCH  24  25
ATOM     25  C   UNL A   1      10.424   3.129   0.699  0.00  0.00    +0.009 C 
BRANCH  25  26
ATOM     26  N   UNL A   1      10.874   2.715  -0.637  0.00  0.00    -0.343 N 
ATOM     27  H   UNL A   1      10.357   2.856  -1.463  0.00  0.00    +0.000 HD
BRANCH  26  28
ATOM     28  C   UNL A   1      12.154   2.083  -0.590  0.00  0.00    +0.041 A 
ATOM     29  C   UNL A   1      13.335   2.832  -0.770  0.00  0.00    -0.005 A 
ATOM     30  C   UNL A   1      14.552   2.155  -0.649  0.00  0.00    +0.047 A 
ATOM     31  N   UNL A   1      14.646   0.844  -0.323  0.00  0.00    -0.251 NA
ATOM     32  C   UNL A   1      13.523   0.137  -0.140  0.00  0.00    +0.073 A 
ATOM     33  C   UNL A   1      13.637  -1.210   0.181  0.00  0.00    -0.036 A 
ATOM     34  C   UNL A   1      12.518  -2.023   0.374  0.00  0.00    -0.060 A 
ATOM     35  C   UNL A   1      11.248  -1.483   0.239  0.00  0.00    -0.061 A 
ATOM     36  C   UNL A   1      11.110  -0.133  -0.080  0.00  0.00    -0.051 A 
ATOM     37  C   UNL A   1      12.240   0.702  -0.263  0.00  0.00    +0.021 A 
ATOM     38  C   UNL A   1      15.874   2.861  -0.811  0.00  0.00    -0.010 C 
ATOM     39  C   UNL A   1      15.768   4.171  -1.582  0.00  0.00    -0.047 C 
ATOM     40  C   UNL A   1      14.641   5.013  -1.007  0.00  0.00    -0.049 C 
ATOM     41  C   UNL A   1      13.302   4.291  -1.159  0.00  0.00    -0.024 C 
ENDBRANCH  26  28
ENDBRANCH  25  26
ENDBRANCH  24  25
ENDBRANCH  23  24
ENDBRANCH  22  23
ENDBRANCH   1  22
TORSDOF 14
