MODEL 1
REMARK VINA RESULT:    -8.956      0.000      0.000
REMARK INTER + INTRA:         -11.071
REMARK INTER:                 -10.527
REMARK INTRA:                  -0.545
REMARK UNBOUND:                -0.545
REMARK  Name = cpd115.pdb
REMARK  5 active torsions:
REMARK  status: ('A' for Active; 'I' for Inactive)
REMARK    1  A    between atoms: C_1  and  C_2
REMARK    2  A    between atoms: C_6  and  C_7
REMARK    3  A    between atoms: C_9  and  N_10
REMARK    4  A    between atoms: C_11  and  C_12
REMARK    5  A    between atoms: C_13  and  C_14
REMARK                            x       y       z     vdW  Elec       q    Type
REMARK                         _______ _______ _______ _____ _____    ______ ____
ROOT
ATOM      1  C   UNL A   1      33.594 -38.846 -32.142  0.00  0.00    -0.046 C 
ATOM      2  C   UNL A   1      34.337 -37.798 -31.378  0.00  0.00    -0.085 C 
ATOM      3  C   UNL A   1      33.837 -36.781 -30.640  0.00  0.00    -0.035 C 
ATOM      4  C   UNL A   1      32.358 -36.526 -30.416  0.00  0.00    +0.006 C 
ATOM      5  C   UNL A   1      32.023 -36.399 -28.947  0.00  0.00    -0.077 C 
ATOM      6  C   UNL A   1      32.937 -36.113 -28.002  0.00  0.00    -0.073 C 
ATOM      7  C   UNL A   1      32.589 -36.009 -26.547  0.00  0.00    -0.044 C 
ATOM      8  C   UNL A   1      34.386 -35.878 -28.373  0.00  0.00    +0.001 C 
ATOM      9  C   UNL A   1      34.681 -35.724 -29.905  0.00  0.00    +0.113 C 
ATOM     10  C   UNL A   1      34.286 -34.327 -30.402  0.00  0.00    -0.000 C 
ATOM     11  C   UNL A   1      35.100 -33.271 -30.586  0.00  0.00    -0.068 C 
ATOM     12  C   UNL A   1      34.604 -31.929 -31.023  0.00  0.00    +0.045 C 
ATOM     13  C   UNL A   1      33.113 -31.788 -30.759  0.00  0.00    +0.240 C 
ATOM     14  O   UNL A   1      32.637 -30.697 -30.453  0.00  0.00    -0.273 OA
ATOM     15  N   UNL A   1      32.332 -32.896 -30.980  0.00  0.00    -0.185 NA
ATOM     16  C   UNL A   1      32.861 -34.067 -30.810  0.00  0.00    +0.040 C 
ATOM     17  C   UNL A   1      31.972 -35.254 -31.158  0.00  0.00    -0.002 C 
ENDROOT
BRANCH   9  18
ATOM     18  N   UNL A   1      36.109 -35.976 -30.218  0.00  0.00    -0.276 NA
ATOM     19  C   UNL A   1      36.863 -36.639 -29.424  0.00  0.00    +0.024 C 
BRANCH  19  20
ATOM     20  C   UNL A   1      38.291 -36.924 -29.702  0.00  0.00    -0.043 C 
ATOM     21  C   UNL A   1      38.935 -36.273 -30.681  0.00  0.00    -0.053 C 
BRANCH  21  22
ATOM     22  C   UNL A   1      40.356 -36.476 -30.992  0.00  0.00    -0.025 A 
ATOM     23  C   UNL A   1      41.145 -35.473 -31.571  0.00  0.00    -0.055 A 
ATOM     24  C   UNL A   1      42.501 -35.697 -31.828  0.00  0.00    -0.061 A 
ATOM     25  C   UNL A   1      43.081 -36.920 -31.501  0.00  0.00    -0.062 A 
ATOM     26  C   UNL A   1      42.310 -37.919 -30.910  0.00  0.00    -0.061 A 
ATOM     27  C   UNL A   1      40.955 -37.696 -30.650  0.00  0.00    -0.055 A 
ENDBRANCH  21  22
ENDBRANCH  19  20
ENDBRANCH   9  18
TORSDOF 3
ENDMDL
MODEL 2
REMARK VINA RESULT:    -8.700      2.503      4.144
REMARK INTER + INTRA:         -10.770
REMARK INTER:                 -10.124
REMARK INTRA:                  -0.646
REMARK UNBOUND:                -0.545
REMARK  Name = cpd115.pdb
REMARK  5 active torsions:
REMARK  status: ('A' for Active; 'I' for Inactive)
REMARK    1  A    between atoms: C_1  and  C_2
REMARK    2  A    between atoms: C_6  and  C_7
REMARK    3  A    between atoms: C_9  and  N_10
REMARK    4  A    between atoms: C_11  and  C_12
REMARK    5  A    between atoms: C_13  and  C_14
REMARK                            x       y       z     vdW  Elec       q    Type
REMARK                         _______ _______ _______ _____ _____    ______ ____
ROOT
ATOM      1  C   UNL A   1      34.070 -31.938 -30.170  0.00  0.00    -0.046 C 
ATOM      2  C   UNL A   1      34.257 -33.392 -29.879  0.00  0.00    -0.085 C 
ATOM      3  C   UNL A   1      33.364 -34.271 -29.372  0.00  0.00    -0.035 C 
ATOM      4  C   UNL A   1      31.927 -33.932 -29.020  0.00  0.00    +0.006 C 
ATOM      5  C   UNL A   1      30.947 -34.882 -29.670  0.00  0.00    -0.077 C 
ATOM      6  C   UNL A   1      31.290 -36.099 -30.129  0.00  0.00    -0.073 C 
ATOM      7  C   UNL A   1      30.307 -37.020 -30.789  0.00  0.00    -0.044 C 
ATOM      8  C   UNL A   1      32.711 -36.603 -29.997  0.00  0.00    +0.001 C 
ATOM      9  C   UNL A   1      33.654 -35.754 -29.076  0.00  0.00    +0.113 C 
ATOM     10  C   UNL A   1      33.373 -36.038 -27.594  0.00  0.00    -0.000 C 
ATOM     11  C   UNL A   1      34.055 -36.867 -26.783  0.00  0.00    -0.068 C 
ATOM     12  C   UNL A   1      33.665 -37.117 -25.361  0.00  0.00    +0.045 C 
ATOM     13  C   UNL A   1      32.212 -36.736 -25.121  0.00  0.00    +0.240 C 
ATOM     14  O   UNL A   1      31.529 -37.367 -24.319  0.00  0.00    -0.273 OA
ATOM     15  N   UNL A   1      31.750 -35.609 -25.755  0.00  0.00    -0.185 NA
ATOM     16  C   UNL A   1      32.272 -35.285 -26.897  0.00  0.00    +0.040 C 
ATOM     17  C   UNL A   1      31.781 -33.978 -27.505  0.00  0.00    -0.002 C 
ENDROOT
BRANCH   9  18
ATOM     18  N   UNL A   1      35.085 -36.011 -29.367  0.00  0.00    -0.276 NA
ATOM     19  C   UNL A   1      35.449 -36.911 -30.201  0.00  0.00    +0.024 C 
BRANCH  19  20
ATOM     20  C   UNL A   1      36.867 -37.193 -30.530  0.00  0.00    -0.043 C 
ATOM     21  C   UNL A   1      37.650 -36.233 -31.040  0.00  0.00    -0.053 C 
BRANCH  21  22
ATOM     22  C   UNL A   1      39.070 -36.428 -31.359  0.00  0.00    -0.025 A 
ATOM     23  C   UNL A   1      39.649 -35.925 -32.532  0.00  0.00    -0.055 A 
ATOM     24  C   UNL A   1      41.011 -36.108 -32.786  0.00  0.00    -0.061 A 
ATOM     25  C   UNL A   1      41.807 -36.789 -31.868  0.00  0.00    -0.062 A 
ATOM     26  C   UNL A   1      41.246 -37.279 -30.691  0.00  0.00    -0.061 A 
ATOM     27  C   UNL A   1      39.886 -37.094 -30.434  0.00  0.00    -0.055 A 
ENDBRANCH  21  22
ENDBRANCH  19  20
ENDBRANCH   9  18
TORSDOF 3
ENDMDL
MODEL 3
REMARK VINA RESULT:    -8.596      2.078      2.566
REMARK INTER + INTRA:         -10.648
REMARK INTER:                  -9.998
REMARK INTRA:                  -0.650
REMARK UNBOUND:                -0.545
REMARK  Name = cpd115.pdb
REMARK  5 active torsions:
REMARK  status: ('A' for Active; 'I' for Inactive)
REMARK    1  A    between atoms: C_1  and  C_2
REMARK    2  A    between atoms: C_6  and  C_7
REMARK    3  A    between atoms: C_9  and  N_10
REMARK    4  A    between atoms: C_11  and  C_12
REMARK    5  A    between atoms: C_13  and  C_14
REMARK                            x       y       z     vdW  Elec       q    Type
REMARK                         _______ _______ _______ _____ _____    ______ ____
ROOT
ATOM      1  C   UNL A   1      33.902 -41.311 -29.721  0.00  0.00    -0.046 C 
ATOM      2  C   UNL A   1      34.699 -40.123 -29.290  0.00  0.00    -0.085 C 
ATOM      3  C   UNL A   1      34.276 -39.019 -28.636  0.00  0.00    -0.035 C 
ATOM      4  C   UNL A   1      32.852 -38.787 -28.168  0.00  0.00    +0.006 C 
ATOM      5  C   UNL A   1      32.790 -38.431 -26.699  0.00  0.00    -0.077 C 
ATOM      6  C   UNL A   1      33.842 -37.957 -26.009  0.00  0.00    -0.073 C 
ATOM      7  C   UNL A   1      33.767 -37.627 -24.548  0.00  0.00    -0.044 C 
ATOM      8  C   UNL A   1      35.176 -37.731 -26.689  0.00  0.00    +0.001 C 
ATOM      9  C   UNL A   1      35.168 -37.822 -28.254  0.00  0.00    +0.113 C 
ATOM     10  C   UNL A   1      34.590 -36.543 -28.875  0.00  0.00    -0.000 C 
ATOM     11  C   UNL A   1      35.278 -35.502 -29.377  0.00  0.00    -0.068 C 
ATOM     12  C   UNL A   1      34.617 -34.271 -29.911  0.00  0.00    +0.045 C 
ATOM     13  C   UNL A   1      33.196 -34.146 -29.385  0.00  0.00    +0.240 C 
ATOM     14  O   UNL A   1      32.711 -33.039 -29.164  0.00  0.00    -0.273 OA
ATOM     15  N   UNL A   1      32.467 -35.304 -29.273  0.00  0.00    -0.185 NA
ATOM     16  C   UNL A   1      33.099 -36.410 -29.030  0.00  0.00    +0.040 C 
ATOM     17  C   UNL A   1      32.246 -37.671 -29.009  0.00  0.00    -0.002 C 
ENDROOT
BRANCH   9  18
ATOM     18  N   UNL A   1      36.525 -38.067 -28.797  0.00  0.00    -0.276 NA
ATOM     19  C   UNL A   1      37.555 -38.109 -28.038  0.00  0.00    +0.024 C 
BRANCH  19  20
ATOM     20  C   UNL A   1      38.928 -38.362 -28.538  0.00  0.00    -0.043 C 
ATOM     21  C   UNL A   1      39.468 -37.568 -29.472  0.00  0.00    -0.053 C 
BRANCH  21  22
ATOM     22  C   UNL A   1      40.832 -37.735 -29.990  0.00  0.00    -0.025 A 
ATOM     23  C   UNL A   1      41.382 -36.865 -30.941  0.00  0.00    -0.055 A 
ATOM     24  C   UNL A   1      42.694 -37.041 -31.389  0.00  0.00    -0.061 A 
ATOM     25  C   UNL A   1      43.469 -38.084 -30.886  0.00  0.00    -0.062 A 
ATOM     26  C   UNL A   1      42.938 -38.945 -29.929  0.00  0.00    -0.061 A 
ATOM     27  C   UNL A   1      41.628 -38.767 -29.478  0.00  0.00    -0.055 A 
ENDBRANCH  21  22
ENDBRANCH  19  20
ENDBRANCH   9  18
TORSDOF 3
ENDMDL
MODEL 4
REMARK VINA RESULT:    -8.511      2.812      7.657
REMARK INTER + INTRA:         -10.548
REMARK INTER:                  -9.865
REMARK INTRA:                  -0.683
REMARK UNBOUND:                -0.545
REMARK  Name = cpd115.pdb
REMARK  5 active torsions:
REMARK  status: ('A' for Active; 'I' for Inactive)
REMARK    1  A    between atoms: C_1  and  C_2
REMARK    2  A    between atoms: C_6  and  C_7
REMARK    3  A    between atoms: C_9  and  N_10
REMARK    4  A    between atoms: C_11  and  C_12
REMARK    5  A    between atoms: C_13  and  C_14
REMARK                            x       y       z     vdW  Elec       q    Type
REMARK                         _______ _______ _______ _____ _____    ______ ____
ROOT
ATOM      1  C   UNL A   1      34.356 -37.264 -26.436  0.00  0.00    -0.046 C 
ATOM      2  C   UNL A   1      34.519 -36.924 -27.882  0.00  0.00    -0.085 C 
ATOM      3  C   UNL A   1      35.403 -37.430 -28.771  0.00  0.00    -0.035 C 
ATOM      4  C   UNL A   1      36.417 -38.513 -28.456  0.00  0.00    +0.006 C 
ATOM      5  C   UNL A   1      36.337 -39.664 -29.433  0.00  0.00    -0.077 C 
ATOM      6  C   UNL A   1      35.771 -39.564 -30.649  0.00  0.00    -0.073 C 
ATOM      7  C   UNL A   1      35.683 -40.722 -31.597  0.00  0.00    -0.044 C 
ATOM      8  C   UNL A   1      35.185 -38.251 -31.124  0.00  0.00    +0.001 C 
ATOM      9  C   UNL A   1      35.520 -36.997 -30.245  0.00  0.00    +0.113 C 
ATOM     10  C   UNL A   1      36.947 -36.503 -30.515  0.00  0.00    -0.000 C 
ATOM     11  C   UNL A   1      37.317 -35.491 -31.320  0.00  0.00    -0.068 C 
ATOM     12  C   UNL A   1      38.747 -35.122 -31.559  0.00  0.00    +0.045 C 
ATOM     13  C   UNL A   1      39.672 -36.276 -31.203  0.00  0.00    +0.240 C 
ATOM     14  O   UNL A   1      40.708 -36.460 -31.838  0.00  0.00    -0.273 OA
ATOM     15  N   UNL A   1      39.347 -37.017 -30.094  0.00  0.00    -0.185 NA
ATOM     16  C   UNL A   1      38.096 -37.134 -29.775  0.00  0.00    +0.040 C 
ATOM     17  C   UNL A   1      37.807 -37.891 -28.485  0.00  0.00    -0.002 C 
ENDROOT
BRANCH   9  18
ATOM     18  N   UNL A   1      34.560 -35.890 -30.478  0.00  0.00    -0.276 NA
ATOM     19  C   UNL A   1      33.654 -35.965 -31.378  0.00  0.00    +0.024 C 
BRANCH  19  20
ATOM     20  C   UNL A   1      32.669 -34.889 -31.637  0.00  0.00    -0.043 C 
ATOM     21  C   UNL A   1      32.548 -33.859 -30.788  0.00  0.00    -0.053 C 
BRANCH  21  22
ATOM     22  C   UNL A   1      31.620 -32.740 -30.994  0.00  0.00    -0.025 A 
ATOM     23  C   UNL A   1      31.879 -31.454 -30.504  0.00  0.00    -0.055 A 
ATOM     24  C   UNL A   1      30.983 -30.409 -30.744  0.00  0.00    -0.061 A 
ATOM     25  C   UNL A   1      29.825 -30.638 -31.484  0.00  0.00    -0.062 A 
ATOM     26  C   UNL A   1      29.566 -31.909 -31.992  0.00  0.00    -0.061 A 
ATOM     27  C   UNL A   1      30.462 -32.954 -31.754  0.00  0.00    -0.055 A 
ENDBRANCH  21  22
ENDBRANCH  19  20
ENDBRANCH   9  18
TORSDOF 3
ENDMDL
MODEL 5
REMARK VINA RESULT:    -8.489     16.753     20.056
REMARK INTER + INTRA:         -10.523
REMARK INTER:                  -9.918
REMARK INTRA:                  -0.604
REMARK UNBOUND:                -0.545
REMARK  Name = cpd115.pdb
REMARK  5 active torsions:
REMARK  status: ('A' for Active; 'I' for Inactive)
REMARK    1  A    between atoms: C_1  and  C_2
REMARK    2  A    between atoms: C_6  and  C_7
REMARK    3  A    between atoms: C_9  and  N_10
REMARK    4  A    between atoms: C_11  and  C_12
REMARK    5  A    between atoms: C_13  and  C_14
REMARK                            x       y       z     vdW  Elec       q    Type
REMARK                         _______ _______ _______ _____ _____    ______ ____
ROOT
ATOM      1  C   UNL A   1      41.212 -22.171 -42.042  0.00  0.00    -0.046 C 
ATOM      2  C   UNL A   1      42.202 -21.742 -41.007  0.00  0.00    -0.085 C 
ATOM      3  C   UNL A   1      43.374 -21.092 -41.182  0.00  0.00    -0.035 C 
ATOM      4  C   UNL A   1      43.908 -20.625 -42.523  0.00  0.00    +0.006 C 
ATOM      5  C   UNL A   1      44.274 -19.158 -42.506  0.00  0.00    -0.077 C 
ATOM      6  C   UNL A   1      44.512 -18.468 -41.376  0.00  0.00    -0.073 C 
ATOM      7  C   UNL A   1      44.855 -17.009 -41.377  0.00  0.00    -0.044 C 
ATOM      8  C   UNL A   1      44.443 -19.149 -40.025  0.00  0.00    +0.001 C 
ATOM      9  C   UNL A   1      44.352 -20.713 -40.053  0.00  0.00    +0.113 C 
ATOM     10  C   UNL A   1      45.723 -21.339 -40.342  0.00  0.00    -0.000 C 
ATOM     11  C   UNL A   1      46.590 -21.844 -39.446  0.00  0.00    -0.068 C 
ATOM     12  C   UNL A   1      47.933 -22.382 -39.827  0.00  0.00    +0.045 C 
ATOM     13  C   UNL A   1      48.363 -21.856 -41.188  0.00  0.00    +0.240 C 
ATOM     14  O   UNL A   1      49.549 -21.639 -41.423  0.00  0.00    -0.273 OA
ATOM     15  N   UNL A   1      47.389 -21.741 -42.149  0.00  0.00    -0.185 NA
ATOM     16  C   UNL A   1      46.173 -21.494 -41.770  0.00  0.00    +0.040 C 
ATOM     17  C   UNL A   1      45.126 -21.469 -42.875  0.00  0.00    -0.002 C 
ENDROOT
BRANCH   9  18
ATOM     18  N   UNL A   1      43.818 -21.256 -38.780  0.00  0.00    -0.276 NA
ATOM     19  C   UNL A   1      43.377 -20.489 -37.856  0.00  0.00    +0.024 C 
BRANCH  19  20
ATOM     20  C   UNL A   1      42.826 -20.989 -36.574  0.00  0.00    -0.043 C 
ATOM     21  C   UNL A   1      41.509 -21.190 -36.433  0.00  0.00    -0.053 C 
BRANCH  21  22
ATOM     22  C   UNL A   1      40.894 -21.714 -35.207  0.00  0.00    -0.025 A 
ATOM     23  C   UNL A   1      39.923 -22.725 -35.231  0.00  0.00    -0.055 A 
ATOM     24  C   UNL A   1      39.381 -23.216 -34.040  0.00  0.00    -0.061 A 
ATOM     25  C   UNL A   1      39.809 -22.708 -32.816  0.00  0.00    -0.062 A 
ATOM     26  C   UNL A   1      40.786 -21.715 -32.779  0.00  0.00    -0.061 A 
ATOM     27  C   UNL A   1      41.331 -21.225 -33.969  0.00  0.00    -0.055 A 
ENDBRANCH  21  22
ENDBRANCH  19  20
ENDBRANCH   9  18
TORSDOF 3
ENDMDL
MODEL 6
REMARK VINA RESULT:    -7.866      1.670      2.139
REMARK INTER + INTRA:          -9.791
REMARK INTER:                  -9.190
REMARK INTRA:                  -0.601
REMARK UNBOUND:                -0.545
REMARK  Name = cpd115.pdb
REMARK  5 active torsions:
REMARK  status: ('A' for Active; 'I' for Inactive)
REMARK    1  A    between atoms: C_1  and  C_2
REMARK    2  A    between atoms: C_6  and  C_7
REMARK    3  A    between atoms: C_9  and  N_10
REMARK    4  A    between atoms: C_11  and  C_12
REMARK    5  A    between atoms: C_13  and  C_14
REMARK                            x       y       z     vdW  Elec       q    Type
REMARK                         _______ _______ _______ _____ _____    ______ ____
ROOT
ATOM      1  C   UNL A   1      32.257 -36.896 -34.106  0.00  0.00    -0.046 C 
ATOM      2  C   UNL A   1      32.897 -36.195 -32.951  0.00  0.00    -0.085 C 
ATOM      3  C   UNL A   1      32.302 -35.591 -31.899  0.00  0.00    -0.035 C 
ATOM      4  C   UNL A   1      30.803 -35.542 -31.669  0.00  0.00    +0.006 C 
ATOM      5  C   UNL A   1      30.426 -36.032 -30.289  0.00  0.00    -0.077 C 
ATOM      6  C   UNL A   1      31.293 -36.089 -29.262  0.00  0.00    -0.073 C 
ATOM      7  C   UNL A   1      30.905 -36.597 -27.906  0.00  0.00    -0.044 C 
ATOM      8  C   UNL A   1      32.727 -35.635 -29.434  0.00  0.00    +0.001 C 
ATOM      9  C   UNL A   1      33.044 -34.863 -30.761  0.00  0.00    +0.113 C 
ATOM     10  C   UNL A   1      32.551 -33.412 -30.684  0.00  0.00    -0.000 C 
ATOM     11  C   UNL A   1      33.282 -32.321 -30.393  0.00  0.00    -0.068 C 
ATOM     12  C   UNL A   1      32.692 -30.951 -30.287  0.00  0.00    +0.045 C 
ATOM     13  C   UNL A   1      31.188 -31.022 -30.067  0.00  0.00    +0.240 C 
ATOM     14  O   UNL A   1      30.621 -30.177 -29.379  0.00  0.00    -0.273 OA
ATOM     15  N   UNL A   1      30.503 -31.997 -30.749  0.00  0.00    -0.185 NA
ATOM     16  C   UNL A   1      31.118 -33.103 -31.029  0.00  0.00    +0.040 C 
ATOM     17  C   UNL A   1      30.335 -34.106 -31.865  0.00  0.00    -0.002 C 
ENDROOT
BRANCH   9  18
ATOM     18  N   UNL A   1      34.493 -34.878 -31.074  0.00  0.00    -0.276 NA
ATOM     19  C   UNL A   1      35.359 -35.289 -30.225  0.00  0.00    +0.024 C 
BRANCH  19  20
ATOM     20  C   UNL A   1      36.815 -35.331 -30.498  0.00  0.00    -0.043 C 
ATOM     21  C   UNL A   1      37.334 -36.297 -31.269  0.00  0.00    -0.053 C 
BRANCH  21  22
ATOM     22  C   UNL A   1      38.759 -36.385 -31.612  0.00  0.00    -0.025 A 
ATOM     23  C   UNL A   1      39.275 -35.858 -32.803  0.00  0.00    -0.055 A 
ATOM     24  C   UNL A   1      40.642 -35.937 -33.081  0.00  0.00    -0.061 A 
ATOM     25  C   UNL A   1      41.506 -36.537 -32.167  0.00  0.00    -0.062 A 
ATOM     26  C   UNL A   1      41.007 -37.049 -30.972  0.00  0.00    -0.061 A 
ATOM     27  C   UNL A   1      39.641 -36.968 -30.692  0.00  0.00    -0.055 A 
ENDBRANCH  21  22
ENDBRANCH  19  20
ENDBRANCH   9  18
TORSDOF 3
ENDMDL
MODEL 7
REMARK VINA RESULT:    -7.518     18.529     21.200
REMARK INTER + INTRA:          -9.382
REMARK INTER:                  -8.709
REMARK INTRA:                  -0.673
REMARK UNBOUND:                -0.545
REMARK  Name = cpd115.pdb
REMARK  5 active torsions:
REMARK  status: ('A' for Active; 'I' for Inactive)
REMARK    1  A    between atoms: C_1  and  C_2
REMARK    2  A    between atoms: C_6  and  C_7
REMARK    3  A    between atoms: C_9  and  N_10
REMARK    4  A    between atoms: C_11  and  C_12
REMARK    5  A    between atoms: C_13  and  C_14
REMARK                            x       y       z     vdW  Elec       q    Type
REMARK                         _______ _______ _______ _____ _____    ______ ____
ROOT
ATOM      1  C   UNL A   1      46.837 -16.672 -40.826  0.00  0.00    -0.046 C 
ATOM      2  C   UNL A   1      46.291 -17.721 -39.912  0.00  0.00    -0.085 C 
ATOM      3  C   UNL A   1      45.927 -18.988 -40.208  0.00  0.00    -0.035 C 
ATOM      4  C   UNL A   1      46.045 -19.619 -41.582  0.00  0.00    +0.006 C 
ATOM      5  C   UNL A   1      46.793 -20.933 -41.540  0.00  0.00    -0.077 C 
ATOM      6  C   UNL A   1      46.950 -21.658 -40.418  0.00  0.00    -0.073 C 
ATOM      7  C   UNL A   1      47.711 -22.949 -40.391  0.00  0.00    -0.044 C 
ATOM      8  C   UNL A   1      46.352 -21.193 -39.106  0.00  0.00    +0.001 C 
ATOM      9  C   UNL A   1      45.343 -19.998 -39.202  0.00  0.00    +0.113 C 
ATOM     10  C   UNL A   1      43.973 -20.475 -39.703  0.00  0.00    -0.000 C 
ATOM     11  C   UNL A   1      42.890 -20.756 -38.957  0.00  0.00    -0.068 C 
ATOM     12  C   UNL A   1      41.612 -21.271 -39.540  0.00  0.00    +0.045 C 
ATOM     13  C   UNL A   1      41.846 -21.872 -40.918  0.00  0.00    +0.240 C 
ATOM     14  O   UNL A   1      41.182 -22.833 -41.297  0.00  0.00    -0.273 OA
ATOM     15  N   UNL A   1      42.746 -21.231 -41.733  0.00  0.00    -0.185 NA
ATOM     16  C   UNL A   1      43.733 -20.593 -41.184  0.00  0.00    +0.040 C 
ATOM     17  C   UNL A   1      44.642 -19.828 -42.136  0.00  0.00    -0.002 C 
ENDROOT
BRANCH   9  18
ATOM     18  N   UNL A   1      45.182 -19.309 -37.899  0.00  0.00    -0.276 NA
ATOM     19  C   UNL A   1      45.819 -19.688 -36.856  0.00  0.00    +0.024 C 
BRANCH  19  20
ATOM     20  C   UNL A   1      45.696 -19.022 -35.537  0.00  0.00    -0.043 C 
ATOM     21  C   UNL A   1      45.054 -17.851 -35.424  0.00  0.00    -0.053 C 
BRANCH  21  22
ATOM     22  C   UNL A   1      44.863 -17.150 -34.148  0.00  0.00    -0.025 A 
ATOM     23  C   UNL A   1      45.419 -17.615 -32.949  0.00  0.00    -0.055 A 
ATOM     24  C   UNL A   1      45.236 -16.904 -31.760  0.00  0.00    -0.061 A 
ATOM     25  C   UNL A   1      44.504 -15.719 -31.760  0.00  0.00    -0.062 A 
ATOM     26  C   UNL A   1      43.961 -15.238 -32.949  0.00  0.00    -0.061 A 
ATOM     27  C   UNL A   1      44.146 -15.946 -34.139  0.00  0.00    -0.055 A 
ENDBRANCH  21  22
ENDBRANCH  19  20
ENDBRANCH   9  18
TORSDOF 3
ENDMDL
MODEL 8
REMARK VINA RESULT:    -7.345      2.501      4.206
REMARK INTER + INTRA:          -9.178
REMARK INTER:                  -8.575
REMARK INTRA:                  -0.603
REMARK UNBOUND:                -0.545
REMARK  Name = cpd115.pdb
REMARK  5 active torsions:
REMARK  status: ('A' for Active; 'I' for Inactive)
REMARK    1  A    between atoms: C_1  and  C_2
REMARK    2  A    between atoms: C_6  and  C_7
REMARK    3  A    between atoms: C_9  and  N_10
REMARK    4  A    between atoms: C_11  and  C_12
REMARK    5  A    between atoms: C_13  and  C_14
REMARK                            x       y       z     vdW  Elec       q    Type
REMARK                         _______ _______ _______ _____ _____    ______ ____
ROOT
ATOM      1  C   UNL A   1      32.054 -36.450 -27.109  0.00  0.00    -0.046 C 
ATOM      2  C   UNL A   1      32.656 -36.118 -28.436  0.00  0.00    -0.085 C 
ATOM      3  C   UNL A   1      32.057 -35.575 -29.520  0.00  0.00    -0.035 C 
ATOM      4  C   UNL A   1      30.601 -35.151 -29.577  0.00  0.00    +0.006 C 
ATOM      5  C   UNL A   1      30.446 -33.723 -30.050  0.00  0.00    -0.077 C 
ATOM      6  C   UNL A   1      31.397 -33.064 -30.735  0.00  0.00    -0.073 C 
ATOM      7  C   UNL A   1      31.233 -31.641 -31.179  0.00  0.00    -0.044 C 
ATOM      8  C   UNL A   1      32.703 -33.742 -31.095  0.00  0.00    +0.001 C 
ATOM      9  C   UNL A   1      32.752 -35.291 -30.865  0.00  0.00    +0.113 C 
ATOM     10  C   UNL A   1      32.011 -36.036 -31.983  0.00  0.00    -0.000 C 
ATOM     11  C   UNL A   1      32.553 -36.622 -33.066  0.00  0.00    -0.068 C 
ATOM     12  C   UNL A   1      31.734 -37.277 -34.132  0.00  0.00    +0.045 C 
ATOM     13  C   UNL A   1      30.295 -36.786 -34.091  0.00  0.00    +0.240 C 
ATOM     14  O   UNL A   1      29.647 -36.676 -35.129  0.00  0.00    -0.273 OA
ATOM     15  N   UNL A   1      29.741 -36.578 -32.852  0.00  0.00    -0.185 NA
ATOM     16  C   UNL A   1      30.521 -36.225 -31.878  0.00  0.00    +0.040 C 
ATOM     17  C   UNL A   1      29.862 -36.100 -30.511  0.00  0.00    -0.002 C 
ENDROOT
BRANCH   9  18
ATOM     18  N   UNL A   1      34.146 -35.790 -30.777  0.00  0.00    -0.276 NA
ATOM     19  C   UNL A   1      35.134 -34.994 -30.611  0.00  0.00    +0.024 C 
BRANCH  19  20
ATOM     20  C   UNL A   1      36.541 -35.450 -30.507  0.00  0.00    -0.043 C 
ATOM     21  C   UNL A   1      36.855 -36.523 -29.768  0.00  0.00    -0.053 C 
BRANCH  21  22
ATOM     22  C   UNL A   1      38.219 -37.053 -29.645  0.00  0.00    -0.025 A 
ATOM     23  C   UNL A   1      38.584 -37.949 -28.631  0.00  0.00    -0.055 A 
ATOM     24  C   UNL A   1      39.886 -38.452 -28.564  0.00  0.00    -0.061 A 
ATOM     25  C   UNL A   1      40.832 -38.071 -29.513  0.00  0.00    -0.062 A 
ATOM     26  C   UNL A   1      40.476 -37.194 -30.535  0.00  0.00    -0.061 A 
ATOM     27  C   UNL A   1      39.174 -36.693 -30.605  0.00  0.00    -0.055 A 
ENDBRANCH  21  22
ENDBRANCH  19  20
ENDBRANCH   9  18
TORSDOF 3
ENDMDL
MODEL 9
REMARK VINA RESULT:    -7.261      3.342      6.746
REMARK INTER + INTRA:          -9.079
REMARK INTER:                  -8.490
REMARK INTRA:                  -0.589
REMARK UNBOUND:                -0.545
REMARK  Name = cpd115.pdb
REMARK  5 active torsions:
REMARK  status: ('A' for Active; 'I' for Inactive)
REMARK    1  A    between atoms: C_1  and  C_2
REMARK    2  A    between atoms: C_6  and  C_7
REMARK    3  A    between atoms: C_9  and  N_10
REMARK    4  A    between atoms: C_11  and  C_12
REMARK    5  A    between atoms: C_13  and  C_14
REMARK                            x       y       z     vdW  Elec       q    Type
REMARK                         _______ _______ _______ _____ _____    ______ ____
ROOT
ATOM      1  C   UNL A   1      33.715 -39.715 -27.160  0.00  0.00    -0.046 C 
ATOM      2  C   UNL A   1      34.101 -39.443 -28.578  0.00  0.00    -0.085 C 
ATOM      3  C   UNL A   1      34.744 -38.367 -29.083  0.00  0.00    -0.035 C 
ATOM      4  C   UNL A   1      35.247 -37.198 -28.258  0.00  0.00    +0.006 C 
ATOM      5  C   UNL A   1      36.709 -36.910 -28.516  0.00  0.00    -0.077 C 
ATOM      6  C   UNL A   1      37.361 -37.325 -29.617  0.00  0.00    -0.073 C 
ATOM      7  C   UNL A   1      38.816 -37.046 -29.847  0.00  0.00    -0.044 C 
ATOM      8  C   UNL A   1      36.640 -38.107 -30.695  0.00  0.00    +0.001 C 
ATOM      9  C   UNL A   1      35.078 -38.156 -30.573  0.00  0.00    +0.113 C 
ATOM     10  C   UNL A   1      34.447 -36.841 -31.049  0.00  0.00    -0.000 C 
ATOM     11  C   UNL A   1      33.906 -36.591 -32.255  0.00  0.00    -0.068 C 
ATOM     12  C   UNL A   1      33.366 -35.250 -32.642  0.00  0.00    +0.045 C 
ATOM     13  C   UNL A   1      33.928 -34.158 -31.746  0.00  0.00    +0.240 C 
ATOM     14  O   UNL A   1      34.140 -33.034 -32.195  0.00  0.00    -0.273 OA
ATOM     15  N   UNL A   1      34.084 -34.460 -30.416  0.00  0.00    -0.185 NA
ATOM     16  C   UNL A   1      34.331 -35.690 -30.086  0.00  0.00    +0.040 C 
ATOM     17  C   UNL A   1      34.401 -35.976 -28.592  0.00  0.00    -0.002 C 
ENDROOT
BRANCH   9  18
ATOM     18  N   UNL A   1      34.502 -39.288 -31.338  0.00  0.00    -0.276 NA
ATOM     19  C   UNL A   1      35.243 -40.187 -31.867  0.00  0.00    +0.024 C 
BRANCH  19  20
ATOM     20  C   UNL A   1      34.710 -41.340 -32.631  0.00  0.00    -0.043 C 
ATOM     21  C   UNL A   1      34.227 -41.169 -33.870  0.00  0.00    -0.053 C 
BRANCH  21  22
ATOM     22  C   UNL A   1      33.714 -42.267 -34.699  0.00  0.00    -0.025 A 
ATOM     23  C   UNL A   1      33.321 -43.496 -34.153  0.00  0.00    -0.055 A 
ATOM     24  C   UNL A   1      32.813 -44.507 -34.974  0.00  0.00    -0.061 A 
ATOM     25  C   UNL A   1      32.685 -44.296 -36.344  0.00  0.00    -0.062 A 
ATOM     26  C   UNL A   1      33.056 -43.072 -36.896  0.00  0.00    -0.061 A 
ATOM     27  C   UNL A   1      33.562 -42.059 -36.077  0.00  0.00    -0.055 A 
ENDBRANCH  21  22
ENDBRANCH  19  20
ENDBRANCH   9  18
TORSDOF 3
ENDMDL
MODEL 10
REMARK VINA RESULT:    -6.951     14.512     17.467
REMARK INTER + INTRA:          -8.715
REMARK INTER:                  -8.082
REMARK INTRA:                  -0.633
REMARK UNBOUND:                -0.545
REMARK  Name = cpd115.pdb
REMARK  5 active torsions:
REMARK  status: ('A' for Active; 'I' for Inactive)
REMARK    1  A    between atoms: C_1  and  C_2
REMARK    2  A    between atoms: C_6  and  C_7
REMARK    3  A    between atoms: C_9  and  N_10
REMARK    4  A    between atoms: C_11  and  C_12
REMARK    5  A    between atoms: C_13  and  C_14
REMARK                            x       y       z     vdW  Elec       q    Type
REMARK                         _______ _______ _______ _____ _____    ______ ____
ROOT
ATOM      1  C   UNL A   1      42.109 -17.467 -34.710  0.00  0.00    -0.046 C 
ATOM      2  C   UNL A   1      41.465 -18.599 -35.442  0.00  0.00    -0.085 C 
ATOM      3  C   UNL A   1      40.236 -19.131 -35.256  0.00  0.00    -0.035 C 
ATOM      4  C   UNL A   1      39.224 -18.628 -34.244  0.00  0.00    +0.006 C 
ATOM      5  C   UNL A   1      37.882 -18.344 -34.879  0.00  0.00    -0.077 C 
ATOM      6  C   UNL A   1      37.497 -18.864 -36.058  0.00  0.00    -0.073 C 
ATOM      7  C   UNL A   1      36.169 -18.555 -36.682  0.00  0.00    -0.044 C 
ATOM      8  C   UNL A   1      38.406 -19.803 -36.823  0.00  0.00    +0.001 C 
ATOM      9  C   UNL A   1      39.661 -20.324 -36.042  0.00  0.00    +0.113 C 
ATOM     10  C   UNL A   1      39.273 -21.437 -35.059  0.00  0.00    -0.000 C 
ATOM     11  C   UNL A   1      39.386 -22.764 -35.249  0.00  0.00    -0.068 C 
ATOM     12  C   UNL A   1      38.925 -23.772 -34.245  0.00  0.00    +0.045 C 
ATOM     13  C   UNL A   1      37.923 -23.158 -33.279  0.00  0.00    +0.240 C 
ATOM     14  O   UNL A   1      37.006 -23.835 -32.822  0.00  0.00    -0.273 OA
ATOM     15  N   UNL A   1      38.157 -21.866 -32.875  0.00  0.00    -0.185 NA
ATOM     16  C   UNL A   1      38.769 -21.065 -33.690  0.00  0.00    +0.040 C 
ATOM     17  C   UNL A   1      39.080 -19.676 -33.148  0.00  0.00    -0.002 C 
ENDROOT
BRANCH   9  18
ATOM     18  N   UNL A   1      40.714 -20.820 -36.961  0.00  0.00    -0.276 NA
ATOM     19  C   UNL A   1      40.527 -20.879 -38.226  0.00  0.00    +0.024 C 
BRANCH  19  20
ATOM     20  C   UNL A   1      41.554 -21.358 -39.182  0.00  0.00    -0.043 C 
ATOM     21  C   UNL A   1      42.677 -20.654 -39.381  0.00  0.00    -0.053 C 
BRANCH  21  22
ATOM     22  C   UNL A   1      43.753 -21.081 -40.284  0.00  0.00    -0.025 A 
ATOM     23  C   UNL A   1      44.961 -21.611 -39.811  0.00  0.00    -0.055 A 
ATOM     24  C   UNL A   1      45.951 -22.030 -40.704  0.00  0.00    -0.061 A 
ATOM     25  C   UNL A   1      45.739 -21.932 -42.077  0.00  0.00    -0.062 A 
ATOM     26  C   UNL A   1      44.535 -21.423 -42.560  0.00  0.00    -0.061 A 
ATOM     27  C   UNL A   1      43.544 -21.006 -41.668  0.00  0.00    -0.055 A 
ENDBRANCH  21  22
ENDBRANCH  19  20
ENDBRANCH   9  18
TORSDOF 3
ENDMDL
MODEL 11
REMARK VINA RESULT:    -6.942      3.066      7.247
REMARK INTER + INTRA:          -8.704
REMARK INTER:                  -8.141
REMARK INTRA:                  -0.563
REMARK UNBOUND:                -0.545
REMARK  Name = cpd115.pdb
REMARK  5 active torsions:
REMARK  status: ('A' for Active; 'I' for Inactive)
REMARK    1  A    between atoms: C_1  and  C_2
REMARK    2  A    between atoms: C_6  and  C_7
REMARK    3  A    between atoms: C_9  and  N_10
REMARK    4  A    between atoms: C_11  and  C_12
REMARK    5  A    between atoms: C_13  and  C_14
REMARK                            x       y       z     vdW  Elec       q    Type
REMARK                         _______ _______ _______ _____ _____    ______ ____
ROOT
ATOM      1  C   UNL A   1      30.691 -37.366 -31.096  0.00  0.00    -0.046 C 
ATOM      2  C   UNL A   1      31.701 -36.892 -30.101  0.00  0.00    -0.085 C 
ATOM      3  C   UNL A   1      32.729 -36.036 -30.288  0.00  0.00    -0.035 C 
ATOM      4  C   UNL A   1      33.041 -35.338 -31.599  0.00  0.00    +0.006 C 
ATOM      5  C   UNL A   1      33.168 -33.841 -31.426  0.00  0.00    -0.077 C 
ATOM      6  C   UNL A   1      33.407 -33.251 -30.242  0.00  0.00    -0.073 C 
ATOM      7  C   UNL A   1      33.510 -31.763 -30.087  0.00  0.00    -0.044 C 
ATOM      8  C   UNL A   1      33.587 -34.079 -28.987  0.00  0.00    +0.001 C 
ATOM      9  C   UNL A   1      33.745 -35.623 -29.206  0.00  0.00    +0.113 C 
ATOM     10  C   UNL A   1      35.161 -35.968 -29.685  0.00  0.00    -0.000 C 
ATOM     11  C   UNL A   1      36.185 -36.413 -28.935  0.00  0.00    -0.068 C 
ATOM     12  C   UNL A   1      37.551 -36.668 -29.490  0.00  0.00    +0.045 C 
ATOM     13  C   UNL A   1      37.749 -35.929 -30.805  0.00  0.00    +0.240 C 
ATOM     14  O   UNL A   1      38.855 -35.487 -31.108  0.00  0.00    -0.273 OA
ATOM     15  N   UNL A   1      36.675 -35.875 -31.659  0.00  0.00    -0.185 NA
ATOM     16  C   UNL A   1      35.482 -35.884 -31.153  0.00  0.00    +0.040 C 
ATOM     17  C   UNL A   1      34.335 -35.917 -32.155  0.00  0.00    -0.002 C 
ENDROOT
BRANCH   9  18
ATOM     18  N   UNL A   1      33.439 -36.387 -27.972  0.00  0.00    -0.276 NA
ATOM     19  C   UNL A   1      32.937 -35.822 -26.939  0.00  0.00    +0.024 C 
BRANCH  19  20
ATOM     20  C   UNL A   1      32.606 -36.549 -25.691  0.00  0.00    -0.043 C 
ATOM     21  C   UNL A   1      33.519 -36.679 -24.718  0.00  0.00    -0.053 C 
BRANCH  21  22
ATOM     22  C   UNL A   1      33.254 -37.354 -23.441  0.00  0.00    -0.025 A 
ATOM     23  C   UNL A   1      32.266 -38.339 -23.307  0.00  0.00    -0.055 A 
ATOM     24  C   UNL A   1      32.062 -38.978 -22.081  0.00  0.00    -0.061 A 
ATOM     25  C   UNL A   1      32.849 -38.645 -20.981  0.00  0.00    -0.062 A 
ATOM     26  C   UNL A   1      33.846 -37.680 -21.107  0.00  0.00    -0.061 A 
ATOM     27  C   UNL A   1      34.052 -37.042 -22.333  0.00  0.00    -0.055 A 
ENDBRANCH  21  22
ENDBRANCH  19  20
ENDBRANCH   9  18
TORSDOF 3
ENDMDL
MODEL 12
REMARK VINA RESULT:    -6.902     15.480     18.384
REMARK INTER + INTRA:          -8.657
REMARK INTER:                  -8.042
REMARK INTRA:                  -0.615
REMARK UNBOUND:                -0.545
REMARK  Name = cpd115.pdb
REMARK  5 active torsions:
REMARK  status: ('A' for Active; 'I' for Inactive)
REMARK    1  A    between atoms: C_1  and  C_2
REMARK    2  A    between atoms: C_6  and  C_7
REMARK    3  A    between atoms: C_9  and  N_10
REMARK    4  A    between atoms: C_11  and  C_12
REMARK    5  A    between atoms: C_13  and  C_14
REMARK                            x       y       z     vdW  Elec       q    Type
REMARK                         _______ _______ _______ _____ _____    ______ ____
ROOT
ATOM      1  C   UNL A   1      45.045 -17.710 -34.807  0.00  0.00    -0.046 C 
ATOM      2  C   UNL A   1      44.090 -18.614 -35.519  0.00  0.00    -0.085 C 
ATOM      3  C   UNL A   1      42.768 -18.785 -35.295  0.00  0.00    -0.035 C 
ATOM      4  C   UNL A   1      41.966 -18.028 -34.253  0.00  0.00    +0.006 C 
ATOM      5  C   UNL A   1      40.737 -17.377 -34.848  0.00  0.00    -0.077 C 
ATOM      6  C   UNL A   1      40.189 -17.761 -36.014  0.00  0.00    -0.073 C 
ATOM      7  C   UNL A   1      38.981 -17.091 -36.598  0.00  0.00    -0.044 C 
ATOM      8  C   UNL A   1      40.778 -18.909 -36.806  0.00  0.00    +0.001 C 
ATOM      9  C   UNL A   1      41.861 -19.765 -36.063  0.00  0.00    +0.113 C 
ATOM     10  C   UNL A   1      41.209 -20.734 -35.068  0.00  0.00    -0.000 C 
ATOM     11  C   UNL A   1      40.943 -22.038 -35.260  0.00  0.00    -0.068 C 
ATOM     12  C   UNL A   1      40.249 -22.886 -34.242  0.00  0.00    +0.045 C 
ATOM     13  C   UNL A   1      39.486 -22.026 -33.247  0.00  0.00    +0.240 C 
ATOM     14  O   UNL A   1      38.430 -22.425 -32.762  0.00  0.00    -0.273 OA
ATOM     15  N   UNL A   1      40.081 -20.853 -32.851  0.00  0.00    -0.185 NA
ATOM     16  C   UNL A   1      40.868 -20.247 -33.685  0.00  0.00    +0.040 C 
ATOM     17  C   UNL A   1      41.568 -19.004 -33.153  0.00  0.00    -0.002 C 
ENDROOT
BRANCH   9  18
ATOM     18  N   UNL A   1      42.707 -20.527 -37.013  0.00  0.00    -0.276 NA
ATOM     19  C   UNL A   1      42.635 -20.338 -38.277  0.00  0.00    +0.024 C 
BRANCH  19  20
ATOM     20  C   UNL A   1      43.468 -21.069 -39.261  0.00  0.00    -0.043 C 
ATOM     21  C   UNL A   1      44.805 -20.984 -39.216  0.00  0.00    -0.053 C 
BRANCH  21  22
ATOM     22  C   UNL A   1      45.696 -21.704 -40.134  0.00  0.00    -0.025 A 
ATOM     23  C   UNL A   1      45.315 -22.031 -41.442  0.00  0.00    -0.055 A 
ATOM     24  C   UNL A   1      46.202 -22.694 -42.295  0.00  0.00    -0.061 A 
ATOM     25  C   UNL A   1      47.479 -23.029 -41.850  0.00  0.00    -0.062 A 
ATOM     26  C   UNL A   1      47.875 -22.694 -40.557  0.00  0.00    -0.061 A 
ATOM     27  C   UNL A   1      46.990 -22.029 -39.705  0.00  0.00    -0.055 A 
ENDBRANCH  21  22
ENDBRANCH  19  20
ENDBRANCH   9  18
TORSDOF 3
ENDMDL
MODEL 13
REMARK VINA RESULT:    -6.881      3.410      5.033
REMARK INTER + INTRA:          -8.632
REMARK INTER:                  -8.043
REMARK INTRA:                  -0.589
REMARK UNBOUND:                -0.545
REMARK  Name = cpd115.pdb
REMARK  5 active torsions:
REMARK  status: ('A' for Active; 'I' for Inactive)
REMARK    1  A    between atoms: C_1  and  C_2
REMARK    2  A    between atoms: C_6  and  C_7
REMARK    3  A    between atoms: C_9  and  N_10
REMARK    4  A    between atoms: C_11  and  C_12
REMARK    5  A    between atoms: C_13  and  C_14
REMARK                            x       y       z     vdW  Elec       q    Type
REMARK                         _______ _______ _______ _____ _____    ______ ____
ROOT
ATOM      1  C   UNL A   1      31.906 -35.629 -30.297  0.00  0.00    -0.046 C 
ATOM      2  C   UNL A   1      32.893 -36.349 -29.437  0.00  0.00    -0.085 C 
ATOM      3  C   UNL A   1      32.658 -37.270 -28.477  0.00  0.00    -0.035 C 
ATOM      4  C   UNL A   1      31.284 -37.792 -28.102  0.00  0.00    +0.006 C 
ATOM      5  C   UNL A   1      31.226 -39.303 -28.128  0.00  0.00    -0.077 C 
ATOM      6  C   UNL A   1      32.318 -40.086 -28.060  0.00  0.00    -0.073 C 
ATOM      7  C   UNL A   1      32.243 -41.582 -28.106  0.00  0.00    -0.044 C 
ATOM      8  C   UNL A   1      33.699 -39.478 -27.930  0.00  0.00    +0.001 C 
ATOM      9  C   UNL A   1      33.742 -37.944 -27.614  0.00  0.00    +0.113 C 
ATOM     10  C   UNL A   1      33.444 -37.680 -26.132  0.00  0.00    -0.000 C 
ATOM     11  C   UNL A   1      34.338 -37.461 -25.151  0.00  0.00    -0.068 C 
ATOM     12  C   UNL A   1      33.945 -37.269 -23.720  0.00  0.00    +0.045 C 
ATOM     13  C   UNL A   1      32.551 -37.820 -23.461  0.00  0.00    +0.240 C 
ATOM     14  O   UNL A   1      32.275 -38.324 -22.375  0.00  0.00    -0.273 OA
ATOM     15  N   UNL A   1      31.613 -37.632 -24.445  0.00  0.00    -0.185 NA
ATOM     16  C   UNL A   1      32.013 -37.575 -25.677  0.00  0.00    +0.040 C 
ATOM     17  C   UNL A   1      30.937 -37.274 -26.712  0.00  0.00    -0.002 C 
ENDROOT
BRANCH   9  18
ATOM     18  N   UNL A   1      35.052 -37.346 -27.970  0.00  0.00    -0.276 NA
ATOM     19  C   UNL A   1      35.976 -38.035 -28.526  0.00  0.00    +0.024 C 
BRANCH  19  20
ATOM     20  C   UNL A   1      37.294 -37.475 -28.909  0.00  0.00    -0.043 C 
ATOM     21  C   UNL A   1      37.600 -37.277 -30.198  0.00  0.00    -0.053 C 
BRANCH  21  22
ATOM     22  C   UNL A   1      38.871 -36.696 -30.651  0.00  0.00    -0.025 A 
ATOM     23  C   UNL A   1      40.109 -37.141 -30.171  0.00  0.00    -0.055 A 
ATOM     24  C   UNL A   1      41.298 -36.581 -30.647  0.00  0.00    -0.061 A 
ATOM     25  C   UNL A   1      41.259 -35.577 -31.612  0.00  0.00    -0.062 A 
ATOM     26  C   UNL A   1      40.034 -35.139 -32.109  0.00  0.00    -0.061 A 
ATOM     27  C   UNL A   1      38.845 -35.700 -31.636  0.00  0.00    -0.055 A 
ENDBRANCH  21  22
ENDBRANCH  19  20
ENDBRANCH   9  18
TORSDOF 3
ENDMDL
MODEL 14
REMARK VINA RESULT:    -6.826     16.738     20.295
REMARK INTER + INTRA:          -8.568
REMARK INTER:                  -7.998
REMARK INTRA:                  -0.570
REMARK UNBOUND:                -0.545
REMARK  Name = cpd115.pdb
REMARK  5 active torsions:
REMARK  status: ('A' for Active; 'I' for Inactive)
REMARK    1  A    between atoms: C_1  and  C_2
REMARK    2  A    between atoms: C_6  and  C_7
REMARK    3  A    between atoms: C_9  and  N_10
REMARK    4  A    between atoms: C_11  and  C_12
REMARK    5  A    between atoms: C_13  and  C_14
REMARK                            x       y       z     vdW  Elec       q    Type
REMARK                         _______ _______ _______ _____ _____    ______ ____
ROOT
ATOM      1  C   UNL A   1      43.708 -15.409 -37.499  0.00  0.00    -0.046 C 
ATOM      2  C   UNL A   1      43.784 -16.891 -37.318  0.00  0.00    -0.085 C 
ATOM      3  C   UNL A   1      44.852 -17.704 -37.476  0.00  0.00    -0.035 C 
ATOM      4  C   UNL A   1      46.244 -17.234 -37.852  0.00  0.00    +0.006 C 
ATOM      5  C   UNL A   1      47.293 -17.742 -36.888  0.00  0.00    -0.077 C 
ATOM      6  C   UNL A   1      47.103 -18.801 -36.081  0.00  0.00    -0.073 C 
ATOM      7  C   UNL A   1      48.147 -19.279 -35.117  0.00  0.00    -0.044 C 
ATOM      8  C   UNL A   1      45.800 -19.572 -36.109  0.00  0.00    +0.001 C 
ATOM      9  C   UNL A   1      44.833 -19.234 -37.295  0.00  0.00    +0.113 C 
ATOM     10  C   UNL A   1      45.302 -19.902 -38.594  0.00  0.00    -0.000 C 
ATOM     11  C   UNL A   1      44.846 -21.050 -39.127  0.00  0.00    -0.068 C 
ATOM     12  C   UNL A   1      45.413 -21.649 -40.375  0.00  0.00    +0.045 C 
ATOM     13  C   UNL A   1      46.803 -21.101 -40.659  0.00  0.00    +0.240 C 
ATOM     14  O   UNL A   1      47.656 -21.812 -41.184  0.00  0.00    -0.273 OA
ATOM     15  N   UNL A   1      47.015 -19.769 -40.397  0.00  0.00    -0.185 NA
ATOM     16  C   UNL A   1      46.335 -19.212 -39.444  0.00  0.00    +0.040 C 
ATOM     17  C   UNL A   1      46.548 -17.714 -39.265  0.00  0.00    -0.002 C 
ENDROOT
BRANCH   9  18
ATOM     18  N   UNL A   1      43.438 -19.645 -37.003  0.00  0.00    -0.276 NA
ATOM     19  C   UNL A   1      43.135 -20.273 -35.929  0.00  0.00    +0.024 C 
BRANCH  19  20
ATOM     20  C   UNL A   1      41.754 -20.693 -35.592  0.00  0.00    -0.043 C 
ATOM     21  C   UNL A   1      41.498 -21.317 -34.434  0.00  0.00    -0.053 C 
BRANCH  21  22
ATOM     22  C   UNL A   1      40.152 -21.733 -34.016  0.00  0.00    -0.025 A 
ATOM     23  C   UNL A   1      39.366 -20.959 -33.152  0.00  0.00    -0.055 A 
ATOM     24  C   UNL A   1      38.080 -21.376 -32.799  0.00  0.00    -0.061 A 
ATOM     25  C   UNL A   1      37.566 -22.565 -33.312  0.00  0.00    -0.062 A 
ATOM     26  C   UNL A   1      38.332 -23.334 -34.185  0.00  0.00    -0.061 A 
ATOM     27  C   UNL A   1      39.617 -22.916 -34.541  0.00  0.00    -0.055 A 
ENDBRANCH  21  22
ENDBRANCH  19  20
ENDBRANCH   9  18
TORSDOF 3
ENDMDL
MODEL 15
REMARK VINA RESULT:    -6.695     15.612     18.264
REMARK INTER + INTRA:          -8.414
REMARK INTER:                  -7.820
REMARK INTRA:                  -0.594
REMARK UNBOUND:                -0.545
REMARK  Name = cpd115.pdb
REMARK  5 active torsions:
REMARK  status: ('A' for Active; 'I' for Inactive)
REMARK    1  A    between atoms: C_1  and  C_2
REMARK    2  A    between atoms: C_6  and  C_7
REMARK    3  A    between atoms: C_9  and  N_10
REMARK    4  A    between atoms: C_11  and  C_12
REMARK    5  A    between atoms: C_13  and  C_14
REMARK                            x       y       z     vdW  Elec       q    Type
REMARK                         _______ _______ _______ _____ _____    ______ ____
ROOT
ATOM      1  C   UNL A   1      39.060 -23.027 -34.738  0.00  0.00    -0.046 C 
ATOM      2  C   UNL A   1      39.706 -22.050 -35.666  0.00  0.00    -0.085 C 
ATOM      3  C   UNL A   1      39.456 -20.729 -35.804  0.00  0.00    -0.035 C 
ATOM      4  C   UNL A   1      38.449 -19.952 -34.978  0.00  0.00    +0.006 C 
ATOM      5  C   UNL A   1      39.064 -18.724 -34.344  0.00  0.00    -0.077 C 
ATOM      6  C   UNL A   1      40.199 -18.155 -34.785  0.00  0.00    -0.073 C 
ATOM      7  C   UNL A   1      40.804 -16.949 -34.131  0.00  0.00    -0.044 C 
ATOM      8  C   UNL A   1      40.931 -18.717 -35.985  0.00  0.00    +0.001 C 
ATOM      9  C   UNL A   1      40.155 -19.798 -36.813  0.00  0.00    +0.113 C 
ATOM     10  C   UNL A   1      39.098 -19.145 -37.714  0.00  0.00    -0.000 C 
ATOM     11  C   UNL A   1      39.212 -18.859 -39.023  0.00  0.00    -0.068 C 
ATOM     12  C   UNL A   1      38.138 -18.166 -39.802  0.00  0.00    +0.045 C 
ATOM     13  C   UNL A   1      37.184 -17.430 -38.875  0.00  0.00    +0.240 C 
ATOM     14  O   UNL A   1      36.663 -16.375 -39.230  0.00  0.00    -0.273 OA
ATOM     15  N   UNL A   1      36.863 -18.047 -37.690  0.00  0.00    -0.185 NA
ATOM     16  C   UNL A   1      37.740 -18.830 -37.145  0.00  0.00    +0.040 C 
ATOM     17  C   UNL A   1      37.290 -19.555 -35.883  0.00  0.00    -0.002 C 
ENDROOT
BRANCH   9  18
ATOM     18  N   UNL A   1      41.071 -20.620 -37.640  0.00  0.00    -0.276 NA
ATOM     19  C   UNL A   1      42.303 -20.306 -37.792  0.00  0.00    +0.024 C 
BRANCH  19  20
ATOM     20  C   UNL A   1      43.255 -21.104 -38.600  0.00  0.00    -0.043 C 
ATOM     21  C   UNL A   1      43.685 -20.652 -39.786  0.00  0.00    -0.053 C 
BRANCH  21  22
ATOM     22  C   UNL A   1      44.653 -21.369 -40.626  0.00  0.00    -0.025 A 
ATOM     23  C   UNL A   1      45.789 -21.992 -40.093  0.00  0.00    -0.055 A 
ATOM     24  C   UNL A   1      46.672 -22.687 -40.922  0.00  0.00    -0.061 A 
ATOM     25  C   UNL A   1      46.424 -22.773 -42.290  0.00  0.00    -0.062 A 
ATOM     26  C   UNL A   1      45.289 -22.172 -42.830  0.00  0.00    -0.061 A 
ATOM     27  C   UNL A   1      44.403 -21.479 -42.001  0.00  0.00    -0.055 A 
ENDBRANCH  21  22
ENDBRANCH  19  20
ENDBRANCH   9  18
TORSDOF 3
ENDMDL
MODEL 16
REMARK VINA RESULT:    -6.644     16.225     18.919
REMARK INTER + INTRA:          -8.353
REMARK INTER:                  -7.720
REMARK INTRA:                  -0.634
REMARK UNBOUND:                -0.545
REMARK  Name = cpd115.pdb
REMARK  5 active torsions:
REMARK  status: ('A' for Active; 'I' for Inactive)
REMARK    1  A    between atoms: C_1  and  C_2
REMARK    2  A    between atoms: C_6  and  C_7
REMARK    3  A    between atoms: C_9  and  N_10
REMARK    4  A    between atoms: C_11  and  C_12
REMARK    5  A    between atoms: C_13  and  C_14
REMARK                            x       y       z     vdW  Elec       q    Type
REMARK                         _______ _______ _______ _____ _____    ______ ____
ROOT
ATOM      1  C   UNL A   1      39.068 -17.077 -37.613  0.00  0.00    -0.046 C 
ATOM      2  C   UNL A   1      40.171 -18.031 -37.286  0.00  0.00    -0.085 C 
ATOM      3  C   UNL A   1      40.606 -18.430 -36.071  0.00  0.00    -0.035 C 
ATOM      4  C   UNL A   1      40.001 -17.987 -34.752  0.00  0.00    +0.006 C 
ATOM      5  C   UNL A   1      39.638 -19.163 -33.872  0.00  0.00    -0.077 C 
ATOM      6  C   UNL A   1      40.162 -20.392 -34.028  0.00  0.00    -0.073 C 
ATOM      7  C   UNL A   1      39.776 -21.551 -33.158  0.00  0.00    -0.044 C 
ATOM      8  C   UNL A   1      41.187 -20.665 -35.109  0.00  0.00    +0.001 C 
ATOM      9  C   UNL A   1      41.776 -19.402 -35.825  0.00  0.00    +0.113 C 
ATOM     10  C   UNL A   1      42.828 -18.713 -34.947  0.00  0.00    -0.000 C 
ATOM     11  C   UNL A   1      44.165 -18.841 -35.030  0.00  0.00    -0.068 C 
ATOM     12  C   UNL A   1      45.108 -18.166 -34.084  0.00  0.00    +0.045 C 
ATOM     13  C   UNL A   1      44.394 -17.759 -32.804  0.00  0.00    +0.240 C 
ATOM     14  O   UNL A   1      44.990 -17.776 -31.730  0.00  0.00    -0.273 OA
ATOM     15  N   UNL A   1      43.112 -17.282 -32.928  0.00  0.00    -0.185 NA
ATOM     16  C   UNL A   1      42.382 -17.722 -33.905  0.00  0.00    +0.040 C 
ATOM     17  C   UNL A   1      41.004 -17.087 -34.042  0.00  0.00    -0.002 C 
ENDROOT
BRANCH   9  18
ATOM     18  N   UNL A   1      42.374 -19.743 -37.139  0.00  0.00    -0.276 NA
ATOM     19  C   UNL A   1      42.410 -20.949 -37.567  0.00  0.00    +0.024 C 
BRANCH  19  20
ATOM     20  C   UNL A   1      42.988 -21.333 -38.877  0.00  0.00    -0.043 C 
ATOM     21  C   UNL A   1      44.315 -21.327 -39.062  0.00  0.00    -0.053 C 
BRANCH  21  22
ATOM     22  C   UNL A   1      44.961 -21.727 -40.319  0.00  0.00    -0.025 A 
ATOM     23  C   UNL A   1      46.165 -22.443 -40.345  0.00  0.00    -0.055 A 
ATOM     24  C   UNL A   1      46.735 -22.828 -41.561  0.00  0.00    -0.061 A 
ATOM     25  C   UNL A   1      46.103 -22.509 -42.761  0.00  0.00    -0.062 A 
ATOM     26  C   UNL A   1      44.897 -21.812 -42.746  0.00  0.00    -0.061 A 
ATOM     27  C   UNL A   1      44.325 -21.429 -41.531  0.00  0.00    -0.055 A 
ENDBRANCH  21  22
ENDBRANCH  19  20
ENDBRANCH   9  18
TORSDOF 3
ENDMDL
MODEL 17
REMARK VINA RESULT:    -6.638     16.840     20.154
REMARK INTER + INTRA:          -8.347
REMARK INTER:                  -7.682
REMARK INTRA:                  -0.665
REMARK UNBOUND:                -0.545
REMARK  Name = cpd115.pdb
REMARK  5 active torsions:
REMARK  status: ('A' for Active; 'I' for Inactive)
REMARK    1  A    between atoms: C_1  and  C_2
REMARK    2  A    between atoms: C_6  and  C_7
REMARK    3  A    between atoms: C_9  and  N_10
REMARK    4  A    between atoms: C_11  and  C_12
REMARK    5  A    between atoms: C_13  and  C_14
REMARK                            x       y       z     vdW  Elec       q    Type
REMARK                         _______ _______ _______ _____ _____    ______ ____
ROOT
ATOM      1  C   UNL A   1      46.692 -20.238 -36.544  0.00  0.00    -0.046 C 
ATOM      2  C   UNL A   1      45.411 -20.265 -37.313  0.00  0.00    -0.085 C 
ATOM      3  C   UNL A   1      45.154 -19.757 -38.539  0.00  0.00    -0.035 C 
ATOM      4  C   UNL A   1      46.180 -19.063 -39.415  0.00  0.00    +0.006 C 
ATOM      5  C   UNL A   1      46.238 -19.663 -40.802  0.00  0.00    -0.077 C 
ATOM      6  C   UNL A   1      45.244 -20.399 -41.331  0.00  0.00    -0.073 C 
ATOM      7  C   UNL A   1      45.328 -21.002 -42.701  0.00  0.00    -0.044 C 
ATOM      8  C   UNL A   1      43.972 -20.656 -40.552  0.00  0.00    +0.001 C 
ATOM      9  C   UNL A   1      43.787 -19.806 -39.248  0.00  0.00    +0.113 C 
ATOM     10  C   UNL A   1      43.341 -18.376 -39.582  0.00  0.00    -0.000 C 
ATOM     11  C   UNL A   1      42.087 -17.890 -39.551  0.00  0.00    -0.068 C 
ATOM     12  C   UNL A   1      41.748 -16.489 -39.952  0.00  0.00    +0.045 C 
ATOM     13  C   UNL A   1      42.846 -15.890 -40.817  0.00  0.00    +0.240 C 
ATOM     14  O   UNL A   1      42.567 -15.096 -41.713  0.00  0.00    -0.273 OA
ATOM     15  N   UNL A   1      44.142 -16.198 -40.483  0.00  0.00    -0.185 NA
ATOM     16  C   UNL A   1      44.380 -17.342 -39.923  0.00  0.00    +0.040 C 
ATOM     17  C   UNL A   1      45.821 -17.585 -39.494  0.00  0.00    -0.002 C 
ENDROOT
BRANCH   9  18
ATOM     18  N   UNL A   1      42.810 -20.426 -38.321  0.00  0.00    -0.276 NA
ATOM     19  C   UNL A   1      42.237 -21.538 -38.594  0.00  0.00    +0.024 C 
BRANCH  19  20
ATOM     20  C   UNL A   1      41.263 -22.198 -37.693  0.00  0.00    -0.043 C 
ATOM     21  C   UNL A   1      41.080 -21.748 -36.444  0.00  0.00    -0.053 C 
BRANCH  21  22
ATOM     22  C   UNL A   1      40.111 -22.328 -35.506  0.00  0.00    -0.025 A 
ATOM     23  C   UNL A   1      39.162 -23.280 -35.904  0.00  0.00    -0.055 A 
ATOM     24  C   UNL A   1      38.274 -23.828 -34.975  0.00  0.00    -0.061 A 
ATOM     25  C   UNL A   1      38.331 -23.437 -33.639  0.00  0.00    -0.062 A 
ATOM     26  C   UNL A   1      39.280 -22.504 -33.229  0.00  0.00    -0.061 A 
ATOM     27  C   UNL A   1      40.171 -21.957 -34.156  0.00  0.00    -0.055 A 
ENDBRANCH  21  22
ENDBRANCH  19  20
ENDBRANCH   9  18
TORSDOF 3
ENDMDL
MODEL 18
REMARK VINA RESULT:    -6.468     22.936     26.267
REMARK INTER + INTRA:          -8.147
REMARK INTER:                  -7.569
REMARK INTRA:                  -0.578
REMARK UNBOUND:                -0.545
REMARK  Name = cpd115.pdb
REMARK  5 active torsions:
REMARK  status: ('A' for Active; 'I' for Inactive)
REMARK    1  A    between atoms: C_1  and  C_2
REMARK    2  A    between atoms: C_6  and  C_7
REMARK    3  A    between atoms: C_9  and  N_10
REMARK    4  A    between atoms: C_11  and  C_12
REMARK    5  A    between atoms: C_13  and  C_14
REMARK                            x       y       z     vdW  Elec       q    Type
REMARK                         _______ _______ _______ _____ _____    ______ ____
ROOT
ATOM      1  C   UNL A   1      55.533 -56.683 -31.810  0.00  0.00    -0.046 C 
ATOM      2  C   UNL A   1      54.506 -55.861 -31.100  0.00  0.00    -0.085 C 
ATOM      3  C   UNL A   1      54.691 -54.930 -30.139  0.00  0.00    -0.035 C 
ATOM      4  C   UNL A   1      56.044 -54.503 -29.602  0.00  0.00    +0.006 C 
ATOM      5  C   UNL A   1      56.226 -53.003 -29.654  0.00  0.00    -0.077 C 
ATOM      6  C   UNL A   1      55.201 -52.137 -29.745  0.00  0.00    -0.073 C 
ATOM      7  C   UNL A   1      55.402 -50.653 -29.815  0.00  0.00    -0.044 C 
ATOM      8  C   UNL A   1      53.771 -52.632 -29.781  0.00  0.00    +0.001 C 
ATOM      9  C   UNL A   1      53.564 -54.147 -29.438  0.00  0.00    +0.113 C 
ATOM     10  C   UNL A   1      53.651 -54.385 -27.924  0.00  0.00    -0.000 C 
ATOM     11  C   UNL A   1      52.625 -54.502 -27.061  0.00  0.00    -0.068 C 
ATOM     12  C   UNL A   1      52.818 -54.677 -25.588  0.00  0.00    +0.045 C 
ATOM     13  C   UNL A   1      54.207 -54.227 -25.164  0.00  0.00    +0.240 C 
ATOM     14  O   UNL A   1      54.384 -53.711 -24.063  0.00  0.00    -0.273 OA
ATOM     15  N   UNL A   1      55.244 -54.518 -26.016  0.00  0.00    -0.185 NA
ATOM     16  C   UNL A   1      55.000 -54.584 -27.287  0.00  0.00    +0.040 C 
ATOM     17  C   UNL A   1      56.170 -55.001 -28.168  0.00  0.00    -0.002 C 
ENDROOT
BRANCH   9  18
ATOM     18  N   UNL A   1      52.266 -54.654 -29.945  0.00  0.00    -0.276 NA
ATOM     19  C   UNL A   1      51.559 -53.980 -30.772  0.00  0.00    +0.024 C 
BRANCH  19  20
ATOM     20  C   UNL A   1      50.263 -54.453 -31.313  0.00  0.00    -0.043 C 
ATOM     21  C   UNL A   1      49.239 -54.717 -30.490  0.00  0.00    -0.053 C 
BRANCH  21  22
ATOM     22  C   UNL A   1      47.917 -55.156 -30.953  0.00  0.00    -0.025 A 
ATOM     23  C   UNL A   1      47.734 -55.814 -32.177  0.00  0.00    -0.055 A 
ATOM     24  C   UNL A   1      46.462 -56.239 -32.571  0.00  0.00    -0.061 A 
ATOM     25  C   UNL A   1      45.364 -56.019 -31.742  0.00  0.00    -0.062 A 
ATOM     26  C   UNL A   1      45.537 -55.381 -30.516  0.00  0.00    -0.061 A 
ATOM     27  C   UNL A   1      46.808 -54.958 -30.120  0.00  0.00    -0.055 A 
ENDBRANCH  21  22
ENDBRANCH  19  20
ENDBRANCH   9  18
TORSDOF 3
ENDMDL
MODEL 19
REMARK VINA RESULT:    -6.412     20.991     23.878
REMARK INTER + INTRA:          -8.081
REMARK INTER:                  -7.466
REMARK INTRA:                  -0.615
REMARK UNBOUND:                -0.545
REMARK  Name = cpd115.pdb
REMARK  5 active torsions:
REMARK  status: ('A' for Active; 'I' for Inactive)
REMARK    1  A    between atoms: C_1  and  C_2
REMARK    2  A    between atoms: C_6  and  C_7
REMARK    3  A    between atoms: C_9  and  N_10
REMARK    4  A    between atoms: C_11  and  C_12
REMARK    5  A    between atoms: C_13  and  C_14
REMARK                            x       y       z     vdW  Elec       q    Type
REMARK                         _______ _______ _______ _____ _____    ______ ____
ROOT
ATOM      1  C   UNL A   1      47.504 -17.988 -35.240  0.00  0.00    -0.046 C 
ATOM      2  C   UNL A   1      47.285 -17.799 -36.706  0.00  0.00    -0.085 C 
ATOM      3  C   UNL A   1      46.470 -18.492 -37.531  0.00  0.00    -0.035 C 
ATOM      4  C   UNL A   1      45.558 -19.622 -37.092  0.00  0.00    +0.006 C 
ATOM      5  C   UNL A   1      44.130 -19.403 -37.538  0.00  0.00    -0.077 C 
ATOM      6  C   UNL A   1      43.787 -18.573 -38.539  0.00  0.00    -0.073 C 
ATOM      7  C   UNL A   1      42.363 -18.353 -38.954  0.00  0.00    -0.044 C 
ATOM      8  C   UNL A   1      44.845 -17.808 -39.306  0.00  0.00    +0.001 C 
ATOM      9  C   UNL A   1      46.327 -18.246 -39.045  0.00  0.00    +0.113 C 
ATOM     10  C   UNL A   1      46.658 -19.540 -39.801  0.00  0.00    -0.000 C 
ATOM     11  C   UNL A   1      47.295 -19.651 -40.980  0.00  0.00    -0.068 C 
ATOM     12  C   UNL A   1      47.520 -20.962 -41.664  0.00  0.00    +0.045 C 
ATOM     13  C   UNL A   1      46.560 -22.019 -41.141  0.00  0.00    +0.240 C 
ATOM     14  O   UNL A   1      46.135 -22.896 -41.889  0.00  0.00    -0.273 OA
ATOM     15  N   UNL A   1      46.285 -22.002 -39.795  0.00  0.00    -0.185 NA
ATOM     16  C   UNL A   1      46.320 -20.865 -39.173  0.00  0.00    +0.040 C 
ATOM     17  C   UNL A   1      46.097 -20.925 -37.667  0.00  0.00    -0.002 C 
ENDROOT
BRANCH   9  18
ATOM     18  N   UNL A   1      47.290 -17.186 -39.432  0.00  0.00    -0.276 NA
ATOM     19  C   UNL A   1      46.922 -16.153 -40.092  0.00  0.00    +0.024 C 
BRANCH  19  20
ATOM     20  C   UNL A   1      47.848 -15.066 -40.489  0.00  0.00    -0.043 C 
ATOM     21  C   UNL A   1      48.319 -14.207 -39.575  0.00  0.00    -0.053 C 
BRANCH  21  22
ATOM     22  C   UNL A   1      49.264 -13.127 -39.887  0.00  0.00    -0.025 A 
ATOM     23  C   UNL A   1      50.482 -12.981 -39.209  0.00  0.00    -0.055 A 
ATOM     24  C   UNL A   1      51.367 -11.956 -39.554  0.00  0.00    -0.061 A 
ATOM     25  C   UNL A   1      51.047 -11.073 -40.583  0.00  0.00    -0.062 A 
ATOM     26  C   UNL A   1      49.847 -11.220 -41.275  0.00  0.00    -0.061 A 
ATOM     27  C   UNL A   1      48.963 -12.246 -40.934  0.00  0.00    -0.055 A 
ENDBRANCH  21  22
ENDBRANCH  19  20
ENDBRANCH   9  18
TORSDOF 3
ENDMDL
MODEL 20
REMARK VINA RESULT:    -6.030      3.208      7.961
REMARK INTER + INTRA:          -7.632
REMARK INTER:                  -7.012
REMARK INTRA:                  -0.621
REMARK UNBOUND:                -0.545
REMARK  Name = cpd115.pdb
REMARK  5 active torsions:
REMARK  status: ('A' for Active; 'I' for Inactive)
REMARK    1  A    between atoms: C_1  and  C_2
REMARK    2  A    between atoms: C_6  and  C_7
REMARK    3  A    between atoms: C_9  and  N_10
REMARK    4  A    between atoms: C_11  and  C_12
REMARK    5  A    between atoms: C_13  and  C_14
REMARK                            x       y       z     vdW  Elec       q    Type
REMARK                         _______ _______ _______ _____ _____    ______ ____
ROOT
ATOM      1  C   UNL A   1      32.493 -37.868 -33.168  0.00  0.00    -0.046 C 
ATOM      2  C   UNL A   1      32.887 -37.101 -31.947  0.00  0.00    -0.085 C 
ATOM      3  C   UNL A   1      33.720 -37.475 -30.951  0.00  0.00    -0.035 C 
ATOM      4  C   UNL A   1      34.470 -38.793 -30.905  0.00  0.00    +0.006 C 
ATOM      5  C   UNL A   1      35.953 -38.593 -30.684  0.00  0.00    -0.077 C 
ATOM      6  C   UNL A   1      36.478 -37.467 -30.168  0.00  0.00    -0.073 C 
ATOM      7  C   UNL A   1      37.953 -37.279 -29.974  0.00  0.00    -0.044 C 
ATOM      8  C   UNL A   1      35.586 -36.316 -29.753  0.00  0.00    +0.001 C 
ATOM      9  C   UNL A   1      34.050 -36.626 -29.708  0.00  0.00    +0.113 C 
ATOM     10  C   UNL A   1      33.685 -37.418 -28.445  0.00  0.00    -0.000 C 
ATOM     11  C   UNL A   1      33.173 -36.929 -27.301  0.00  0.00    -0.068 C 
ATOM     12  C   UNL A   1      32.904 -37.781 -26.101  0.00  0.00    +0.045 C 
ATOM     13  C   UNL A   1      33.699 -39.076 -26.165  0.00  0.00    +0.240 C 
ATOM     14  O   UNL A   1      34.121 -39.596 -25.135  0.00  0.00    -0.273 OA
ATOM     15  N   UNL A   1      33.826 -39.671 -27.396  0.00  0.00    -0.185 NA
ATOM     16  C   UNL A   1      33.829 -38.916 -28.450  0.00  0.00    +0.040 C 
ATOM     17  C   UNL A   1      33.880 -39.642 -29.787  0.00  0.00    -0.002 C 
ENDROOT
BRANCH   9  18
ATOM     18  N   UNL A   1      33.237 -35.387 -29.769  0.00  0.00    -0.276 NA
ATOM     19  C   UNL A   1      33.748 -34.237 -29.537  0.00  0.00    +0.024 C 
BRANCH  19  20
ATOM     20  C   UNL A   1      32.976 -32.973 -29.597  0.00  0.00    -0.043 C 
ATOM     21  C   UNL A   1      31.738 -32.957 -30.110  0.00  0.00    -0.053 C 
BRANCH  21  22
ATOM     22  C   UNL A   1      30.901 -31.752 -30.172  0.00  0.00    -0.025 A 
ATOM     23  C   UNL A   1      30.680 -30.937 -29.053  0.00  0.00    -0.055 A 
ATOM     24  C   UNL A   1      29.898 -29.784 -29.159  0.00  0.00    -0.061 A 
ATOM     25  C   UNL A   1      29.336 -29.431 -30.384  0.00  0.00    -0.062 A 
ATOM     26  C   UNL A   1      29.563 -30.224 -31.506  0.00  0.00    -0.061 A 
ATOM     27  C   UNL A   1      30.347 -31.376 -31.402  0.00  0.00    -0.055 A 
ENDBRANCH  21  22
ENDBRANCH  19  20
ENDBRANCH   9  18
TORSDOF 3
ENDMDL
