REMARK  Name = cpd115.pdb
REMARK  5 active torsions:
REMARK  status: ('A' for Active; 'I' for Inactive)
REMARK    1  A    between atoms: C_1  and  C_2
REMARK    2  A    between atoms: C_6  and  C_7
REMARK    3  A    between atoms: C_9  and  N_10
REMARK    4  A    between atoms: C_11  and  C_12
REMARK    5  A    between atoms: C_13  and  C_14
REMARK                            x       y       z     vdW  Elec       q    Type
REMARK                         _______ _______ _______ _____ _____    ______ ____
ROOT
ATOM      1  C   UNL A   1       0.718  -3.727  -3.009  0.00  0.00    -0.046 C 
ATOM      2  C   UNL A   1       1.286  -2.994  -1.837  0.00  0.00    -0.085 C 
ATOM      3  C   UNL A   1       0.632  -2.284  -0.891  0.00  0.00    -0.035 C 
ATOM      4  C   UNL A   1      -0.875  -2.122  -0.824  0.00  0.00    +0.006 C 
ATOM      5  C   UNL A   1      -1.424  -2.494   0.535  0.00  0.00    -0.077 C 
ATOM      6  C   UNL A   1      -0.672  -2.539   1.649  0.00  0.00    -0.073 C 
ATOM      7  C   UNL A   1      -1.230  -2.929   2.985  0.00  0.00    -0.044 C 
ATOM      8  C   UNL A   1       0.801  -2.191   1.603  0.00  0.00    +0.001 C 
ATOM      9  C   UNL A   1       1.305  -1.532   0.273  0.00  0.00    +0.113 C 
ATOM     10  C   UNL A   1       0.912  -0.050   0.211  0.00  0.00    -0.000 C 
ATOM     11  C   UNL A   1       1.686   1.008   0.513  0.00  0.00    -0.068 C 
ATOM     12  C   UNL A   1       1.188   2.418   0.474  0.00  0.00    +0.045 C 
ATOM     13  C   UNL A   1      -0.331   2.460   0.538  0.00  0.00    +0.240 C 
ATOM     14  O   UNL A   1      -0.903   3.384   1.111  0.00  0.00    -0.273 OA
ATOM     15  N   UNL A   1      -1.012   1.488  -0.153  0.00  0.00    -0.185 NA
ATOM     16  C   UNL A   1      -0.452   0.328  -0.301  0.00  0.00    +0.040 C 
ATOM     17  C   UNL A   1      -1.217  -0.675  -1.154  0.00  0.00    -0.002 C 
ENDROOT
BRANCH   9  18
ATOM     18  N   UNL A   1       2.774  -1.662   0.117  0.00  0.00    -0.276 NA
ATOM     19  C   UNL A   1       3.561  -1.637   1.126  0.00  0.00    +0.024 C 
BRANCH  19  20
ATOM     20  C   UNL A   1       5.033  -1.774   1.017  0.00  0.00    -0.043 C 
ATOM     21  C   UNL A   1       5.646  -1.601  -0.162  0.00  0.00    -0.053 C 
BRANCH  21  22
ATOM     22  C   UNL A   1       7.101  -1.687  -0.341  0.00  0.00    -0.025 A 
ATOM     23  C   UNL A   1       7.875  -2.670   0.290  0.00  0.00    -0.055 A 
ATOM     24  C   UNL A   1       9.254  -2.735   0.073  0.00  0.00    -0.061 A 
ATOM     25  C   UNL A   1       9.870  -1.824  -0.782  0.00  0.00    -0.062 A 
ATOM     26  C   UNL A   1       9.108  -0.853  -1.428  0.00  0.00    -0.061 A 
ATOM     27  C   UNL A   1       7.729  -0.789  -1.214  0.00  0.00    -0.055 A 
ENDBRANCH  21  22
ENDBRANCH  19  20
ENDBRANCH   9  18
TORSDOF 3
