@<TRIPOS>MOLECULE
*****
 27 30 0 0 0
SMALL
GASTEIGER

@<TRIPOS>ATOM
      1 C           0.0000   -5.4390    0.0000 C.3     1  UNL1        0.0301
      2 C           0.7850   -4.9857    0.0000 C.2     1  UNL1       -0.0319
      3 C           0.7850   -1.3597    0.0000 C.2     1  UNL1       -0.0204
      4 C           0.0000   -0.9065    0.0000 C.3     1  UNL1        0.0473
      5 C           0.1555   -1.5877    0.0000 C.2     1  UNL1       -0.0303
      6 C           0.7850   -1.8909    0.0000 C.2     1  UNL1       -0.0453
      7 C           0.7850   -2.7974    0.0000 C.3     1  UNL1        0.0261
      8 C           1.4146   -1.5877    0.0000 C.3     1  UNL1        0.0523
      9 C           1.5701   -0.9065    0.0000 C.3     1  UNL1        0.1231
     10 N           2.4457   -0.6719    0.0000 N.2     1  UNL1       -0.2644
     11 C           3.0867   -1.3129    0.0000 C.2     1  UNL1        0.0938
     12 C           3.9623   -1.0782    0.0000 C.2     1  UNL1        0.0202
     13 C           4.6033   -1.7192    0.0000 C.2     1  UNL1        0.0016
     14 C           5.4789   -1.4846    0.0000 C.ar    1  UNL1        0.0000
     15 C           6.1199   -2.1256    0.0000 C.ar    1  UNL1        0.0000
     16 C           6.9955   -1.8910    0.0000 C.ar    1  UNL1        0.0000
     17 C           7.2301   -1.0154    0.0000 C.ar    1  UNL1        0.0000
     18 C           6.5891   -0.3744    0.0000 C.ar    1  UNL1        0.0000
     19 C           5.7135   -0.6090    0.0000 C.ar    1  UNL1        0.0000
     20 C           1.5701    0.0000    0.0000 C.ar    1  UNL1        0.0154
     21 C           2.3551    0.4532    0.0000 C.ar    1  UNL1        0.0040
     22 C           2.3551    1.3597    0.0000 C.ar    1  UNL1        0.0623
     23 C           1.5701    1.8130    0.0000 C.ar    1  UNL1        0.2790
     24 O           1.5701    2.7195    0.0000 O.2     1  UNL1       -0.2652
     25 N           0.7850    1.3597    0.0000 N.ar    1  UNL1       -0.2125
     26 C           0.7850    0.4532    0.0000 C.ar    1  UNL1        0.0609
     27 C          -0.0000   -0.0000    0.0000 C.3     1  UNL1        0.0541
@<TRIPOS>BOND
     1     1     2    1
     2     2     3    2
     3     3     4    1
     4     4     5    1
     5     5     6    2
     6     6     7    1
     7     6     8    1
     8     8     9    1
     9     3     9    1
    10     9    10    1
    11    10    11    2
    12    11    12    1
    13    12    13    2
    14    13    14    1
    15    14    15   ar
    16    15    16   ar
    17    16    17   ar
    18    17    18   ar
    19    18    19   ar
    20    14    19   ar
    21     9    20    1
    22    20    21   ar
    23    21    22   ar
    24    22    23   ar
    25    23    24    2
    26    23    25   ar
    27    25    26   ar
    28    20    26   ar
    29    26    27    1
    30     4    27    1
