@<TRIPOS>MOLECULE
*****
 22 24 0 0 0
SMALL
GASTEIGER

@<TRIPOS>ATOM
      1 C          -0.8660    0.5000    0.0000 C.ar    1  UNL1        0.0000
      2 C          -0.8660    1.5000    0.0000 C.ar    1  UNL1        0.0000
      3 C           0.0000    2.0000    0.0000 C.ar    1  UNL1        0.0016
      4 C           0.8660    1.5000    0.0000 C.ar    1  UNL1        0.0194
      5 C           1.7321    2.0000    0.0000 C.ar    1  UNL1        0.1030
      6 C           1.7321    3.0000    0.0000 C.ar    1  UNL1        0.0239
      7 C           2.5981    3.5000    0.0000 C.ar    1  UNL1        0.0392
      8 C           3.4641    3.0000    0.0000 C.ar    1  UNL1        0.1693
      9 N           4.3301    3.5000    0.0000 N.pl3   1  UNL1       -0.2188
     10 C           4.3301    4.5000    0.0000 C.3     1  UNL1        0.1153
     11 C           5.1962    5.0000    0.0000 C.3     1  UNL1        0.0407
     12 C           6.0622    4.5000    0.0000 C.3     1  UNL1        0.0741
     13 N           6.0622    3.5000    0.0000 N.3     1  UNL1       -0.2684
     14 C           6.9282    3.0000    0.0000 C.3     1  UNL1        0.1046
     15 C           6.9282    2.0000    0.0000 C.3     1  UNL1        0.1595
     16 O           6.0622    1.5000    0.0000 O.3     1  UNL1       -0.3508
     17 C           5.1962    2.0000    0.0000 C.3     1  UNL1        0.1595
     18 C           5.1962    3.0000    0.0000 C.3     1  UNL1        0.1046
     19 N           3.4641    2.0000    0.0000 N.ar    1  UNL1       -0.1314
     20 N           2.5981    1.5000    0.0000 N.ar    1  UNL1       -0.1467
     21 C           0.8660    0.5000    0.0000 C.ar    1  UNL1        0.0016
     22 C           0.0000    0.0000    0.0000 C.ar    1  UNL1        0.0000
@<TRIPOS>BOND
     1     1     2   ar
     2     2     3   ar
     3     3     4   ar
     4     4     5    1
     5     5     6   ar
     6     6     7   ar
     7     7     8   ar
     8     8     9    1
     9     9    10    1
    10    10    11    1
    11    11    12    1
    12    12    13    1
    13    13    14    1
    14    14    15    1
    15    15    16    1
    16    16    17    1
    17    17    18    1
    18    13    18    1
    19     8    19   ar
    20    19    20   ar
    21     5    20   ar
    22     4    21   ar
    23    21    22   ar
    24     1    22   ar
