REMARK  Name = cpd272.pdb
REMARK  6 active torsions:
REMARK  status: ('A' for Active; 'I' for Inactive)
REMARK    1  A    between atoms: C_4  and  C_5
REMARK    2  A    between atoms: C_8  and  N_9
REMARK    3  A    between atoms: N_9  and  C_10
REMARK    4  A    between atoms: C_10  and  C_11
REMARK    5  A    between atoms: C_11  and  C_12
REMARK    6  A    between atoms: C_12  and  N_13
REMARK                            x       y       z     vdW  Elec       q    Type
REMARK                         _______ _______ _______ _____ _____    ______ ____
ROOT
ATOM      1  C   UNL     1       0.700   2.113  -0.436  0.00  0.00    +0.093 A 
ATOM      2  C   UNL     1       0.687   3.395  -0.970  0.00  0.00    -0.031 A 
ATOM      3  C   UNL     1       1.888   4.091  -1.114  0.00  0.00    -0.018 A 
ATOM      4  C   UNL     1       3.074   3.494  -0.723  0.00  0.00    +0.141 A 
ATOM      5  N   UNL     1       3.064   2.243  -0.230  0.00  0.00    -0.134 NA
ATOM      6  N   UNL     1       1.877   1.553  -0.078  0.00  0.00    -0.147 NA
ENDROOT
BRANCH   1  10
ATOM      7  C   UNL     1      -2.807  -0.323   0.135  0.00  0.00    -0.062 A 
ATOM      8  C   UNL     1      -2.908   1.063   0.197  0.00  0.00    -0.061 A 
ATOM      9  C   UNL     1      -1.772   1.859   0.015  0.00  0.00    -0.053 A 
ATOM     10  C   UNL     1      -0.509   1.290  -0.238  0.00  0.00    +0.002 A 
ATOM     11  C   UNL     1      -0.437  -0.116  -0.287  0.00  0.00    -0.053 A 
ATOM     12  C   UNL     1      -1.571  -0.914  -0.106  0.00  0.00    -0.061 A 
ENDBRANCH   1  10
BRANCH   4  13
ATOM     13  N   UNL     1       4.307   4.141  -0.856  0.00  0.00    -0.328 N 
ATOM     14  H   UNL     1       5.038   3.794  -1.417  0.00  0.00    +0.000 HD
BRANCH  13  15
ATOM     15  C   UNL     1       4.413   5.379  -0.087  0.00  0.00    +0.012 C 
BRANCH  15  16
ATOM     16  C   UNL     1       5.883   5.796   0.049  0.00  0.00    -0.025 C 
BRANCH  16  17
ATOM     17  C   UNL     1       6.693   4.878   0.979  0.00  0.00    +0.000 C 
BRANCH  17  18
ATOM     18  N   UNL     1       6.779   3.489   0.503  0.00  0.00    -0.298 N 
ATOM     19  C   UNL     1       7.733   3.347  -0.623  0.00  0.00    +0.022 C 
ATOM     20  C   UNL     1       7.863   1.879  -1.065  0.00  0.00    +0.060 C 
ATOM     21  O   UNL     1       8.288   1.049   0.023  0.00  0.00    -0.377 OA
ATOM     22  C   UNL     1       7.343   1.135   1.098  0.00  0.00    +0.060 C 
ATOM     23  C   UNL     1       7.205   2.583   1.594  0.00  0.00    +0.022 C 
ATOM     24  H   UNL     1       5.845   3.236   0.181  0.00  0.00    +0.000 HD
ENDBRANCH  17  18
ENDBRANCH  16  17
ENDBRANCH  15  16
ENDBRANCH  13  15
ENDBRANCH   4  13
TORSDOF 6
