REMARK  Name = cpd267.pdb
REMARK  8 active torsions:
REMARK  status: ('A' for Active; 'I' for Inactive)
REMARK    1  A    between atoms: C_4  and  C_5
REMARK    2  A    between atoms: C_8  and  N_9
REMARK    3  A    between atoms: N_9  and  C_10
REMARK    4  A    between atoms: C_10  and  C_11
REMARK    5  A    between atoms: C_11  and  C_12
REMARK    6  A    between atoms: C_12  and  C_13
REMARK    7  A    between atoms: C_13  and  C_14
REMARK    8  A    between atoms: C_14  and  N_15
REMARK                            x       y       z     vdW  Elec       q    Type
REMARK                         _______ _______ _______ _____ _____    ______ ____
ROOT
ATOM      1  C   UNL     1      -5.312   1.382   0.004  0.00  0.00    +0.010 C 
ENDROOT
BRANCH   1   2
ATOM      2  N   UNL     1      -4.349   2.012  -0.895  0.00  0.00    -0.328 N 
ATOM      3  H   UNL     1      -4.627   2.488  -1.711  0.00  0.00    +0.000 HD
BRANCH   2   7
ATOM      4  C   UNL     1      -0.334   1.814   0.177  0.00  0.00    +0.093 A 
ATOM      5  C   UNL     1      -1.043   0.629   0.035  0.00  0.00    -0.031 A 
ATOM      6  C   UNL     1      -2.393   0.673  -0.318  0.00  0.00    -0.018 A 
ATOM      7  C   UNL     1      -3.007   1.896  -0.522  0.00  0.00    +0.141 A 
ATOM      8  N   UNL     1      -2.293   3.030  -0.402  0.00  0.00    -0.134 NA
ATOM      9  N   UNL     1      -0.958   2.992  -0.045  0.00  0.00    -0.147 NA
BRANCH   4  13
ATOM     10  C   UNL     1       3.837   2.040   1.228  0.00  0.00    -0.062 A 
ATOM     11  C   UNL     1       3.062   0.981   1.689  0.00  0.00    -0.061 A 
ATOM     12  C   UNL     1       1.706   0.904   1.353  0.00  0.00    -0.053 A 
ATOM     13  C   UNL     1       1.094   1.881   0.545  0.00  0.00    +0.002 A 
ATOM     14  C   UNL     1       1.901   2.946   0.101  0.00  0.00    -0.053 A 
ATOM     15  C   UNL     1       3.257   3.025   0.435  0.00  0.00    -0.061 A 
ENDBRANCH   4  13
ENDBRANCH   2   7
ENDBRANCH   1   2
BRANCH   1  16
ATOM     16  C   UNL     1      -5.979   0.199  -0.698  0.00  0.00    -0.037 C 
BRANCH  16  17
ATOM     17  C   UNL     1      -7.017  -0.471   0.204  0.00  0.00    -0.050 C 
BRANCH  17  18
ATOM     18  C   UNL     1      -7.649  -1.686  -0.481  0.00  0.00    -0.040 C 
BRANCH  18  19
ATOM     19  C   UNL     1      -8.693  -2.352   0.426  0.00  0.00    -0.001 C 
BRANCH  19  20
ATOM     20  N   UNL     1      -9.198  -3.617  -0.129  0.00  0.00    -0.298 N 
ATOM     21  C   UNL     1     -10.093  -3.411  -1.280  0.00  0.00    +0.003 C 
ATOM     22  C   UNL     1     -10.447  -4.752  -1.940  0.00  0.00    -0.015 C 
ATOM     23  C   UNL     1     -10.901  -5.788  -0.945  0.00  0.00    -0.042 A 
ATOM     24  C   UNL     1     -11.561  -6.945  -1.381  0.00  0.00    -0.058 A 
ATOM     25  C   UNL     1     -11.949  -7.921  -0.464  0.00  0.00    -0.061 A 
ATOM     26  C   UNL     1     -11.675  -7.753   0.891  0.00  0.00    -0.061 A 
ATOM     27  C   UNL     1     -11.009  -6.609   1.332  0.00  0.00    -0.057 A 
ATOM     28  C   UNL     1     -10.603  -5.624   0.418  0.00  0.00    -0.030 A 
ATOM     29  C   UNL     1      -9.921  -4.369   0.919  0.00  0.00    +0.024 C 
ATOM     30  H   UNL     1      -8.389  -4.145  -0.456  0.00  0.00    +0.000 HD
ENDBRANCH  19  20
ENDBRANCH  18  19
ENDBRANCH  17  18
ENDBRANCH  16  17
ENDBRANCH   1  16
TORSDOF 8
