@<TRIPOS>MOLECULE
*****
 28 31 0 0 0
SMALL
GASTEIGER

@<TRIPOS>ATOM
      1 C           0.0000   -1.0000    0.0000 C.ar    1  UNL1        0.0000
      2 C          -0.8660   -1.5000    0.0000 C.ar    1  UNL1        0.0000
      3 C          -1.7321   -1.0000    0.0000 C.ar    1  UNL1        0.0016
      4 C          -1.7321   -0.0000    0.0000 C.ar    1  UNL1        0.0194
      5 C          -2.5981    0.5000    0.0000 C.ar    1  UNL1        0.1030
      6 C          -3.4641   -0.0000    0.0000 C.ar    1  UNL1        0.0239
      7 C          -4.3301    0.5000    0.0000 C.ar    1  UNL1        0.0392
      8 C          -4.3301    1.5000    0.0000 C.ar    1  UNL1        0.1693
      9 N          -5.1962    2.0000    0.0000 N.pl3   1  UNL1       -0.2189
     10 C          -6.0622    1.5000    0.0000 C.3     1  UNL1        0.1139
     11 C          -6.0622    0.5000    0.0000 C.3     1  UNL1        0.0234
     12 C          -6.9282    0.0000    0.0000 C.3     1  UNL1        0.0032
     13 C          -6.9282   -1.0000    0.0000 C.3     1  UNL1        0.0174
     14 C          -7.7942   -1.5000    0.0000 C.3     1  UNL1        0.0724
     15 N          -7.7942   -2.5000    0.0000 N.3     1  UNL1       -0.2687
     16 C          -6.9282   -3.0000    0.0000 C.3     1  UNL1        0.0771
     17 C          -6.9282   -4.0000    0.0000 C.3     1  UNL1        0.0434
     18 C          -7.7942   -4.5000    0.0000 C.ar    1  UNL1       -0.0234
     19 C          -7.7942   -5.5000    0.0000 C.ar    1  UNL1       -0.0045
     20 C          -8.6603   -6.0000    0.0000 C.ar    1  UNL1       -0.0003
     21 C          -9.5263   -5.5000    0.0000 C.ar    1  UNL1       -0.0003
     22 C          -9.5263   -4.5000    0.0000 C.ar    1  UNL1       -0.0032
     23 C          -8.6603   -4.0000    0.0000 C.ar    1  UNL1       -0.0101
     24 C          -8.6603   -3.0000    0.0000 C.3     1  UNL1        0.0988
     25 N          -3.4641    2.0000    0.0000 N.ar    1  UNL1       -0.1314
     26 N          -2.5981    1.5000    0.0000 N.ar    1  UNL1       -0.1467
     27 C          -0.8660    0.5000    0.0000 C.ar    1  UNL1        0.0016
     28 C          -0.0000   -0.0000    0.0000 C.ar    1  UNL1        0.0000
@<TRIPOS>BOND
     1     1     2   ar
     2     2     3   ar
     3     3     4   ar
     4     4     5    1
     5     5     6   ar
     6     6     7   ar
     7     7     8   ar
     8     8     9    1
     9     9    10    1
    10    10    11    1
    11    11    12    1
    12    12    13    1
    13    13    14    1
    14    14    15    1
    15    15    16    1
    16    16    17    1
    17    17    18    1
    18    18    19   ar
    19    19    20   ar
    20    20    21   ar
    21    21    22   ar
    22    22    23   ar
    23    18    23   ar
    24    23    24    1
    25    15    24    1
    26     8    25   ar
    27    25    26   ar
    28     5    26   ar
    29     4    27   ar
    30    27    28   ar
    31     1    28   ar
