MODEL 1
REMARK VINA RESULT:   -10.660      0.000      0.000
REMARK INTER + INTRA:         -16.057
REMARK INTER:                 -15.646
REMARK INTRA:                  -0.411
REMARK UNBOUND:                -0.411
REMARK  Name = cpd267.pdb
REMARK  8 active torsions:
REMARK  status: ('A' for Active; 'I' for Inactive)
REMARK    1  A    between atoms: C_4  and  C_5
REMARK    2  A    between atoms: C_8  and  N_9
REMARK    3  A    between atoms: N_9  and  C_10
REMARK    4  A    between atoms: C_10  and  C_11
REMARK    5  A    between atoms: C_11  and  C_12
REMARK    6  A    between atoms: C_12  and  C_13
REMARK    7  A    between atoms: C_13  and  C_14
REMARK    8  A    between atoms: C_14  and  N_15
REMARK                            x       y       z     vdW  Elec       q    Type
REMARK                         _______ _______ _______ _____ _____    ______ ____
ROOT
ATOM      1  C   UNL     1      42.860 -38.883 -30.886  0.00  0.00    +0.010 C 
ENDROOT
BRANCH   1   2
ATOM      2  N   UNL     1      43.472 -39.274 -29.619  0.00  0.00    -0.328 N 
ATOM      3  H   UNL     1      42.936 -39.562 -28.845  0.00  0.00    +0.000 HD
BRANCH   2   7
ATOM      4  C   UNL     1      47.618 -38.939 -29.522  0.00  0.00    +0.093 A 
ATOM      5  C   UNL     1      47.055 -40.206 -29.580  0.00  0.00    -0.031 A 
ATOM      6  C   UNL     1      45.665 -40.342 -29.607  0.00  0.00    -0.018 A 
ATOM      7  C   UNL     1      44.868 -39.212 -29.576  0.00  0.00    +0.141 A 
ATOM      8  N   UNL     1      45.437 -37.993 -29.544  0.00  0.00    -0.134 NA
ATOM      9  N   UNL     1      46.812 -37.854 -29.509  0.00  0.00    -0.147 NA
BRANCH   4  13
ATOM     10  C   UNL     1      51.855 -38.176 -29.396  0.00  0.00    -0.062 A 
ATOM     11  C   UNL     1      51.287 -38.749 -30.529  0.00  0.00    -0.061 A 
ATOM     12  C   UNL     1      49.911 -39.002 -30.575  0.00  0.00    -0.053 A 
ATOM     13  C   UNL     1      49.071 -38.683 -29.491  0.00  0.00    +0.002 A 
ATOM     14  C   UNL     1      49.676 -38.113 -28.354  0.00  0.00    -0.053 A 
ATOM     15  C   UNL     1      51.051 -37.859 -28.307  0.00  0.00    -0.061 A 
ENDBRANCH   4  13
ENDBRANCH   2   7
ENDBRANCH   1   2
BRANCH   1  16
ATOM     16  C   UNL     1      42.195 -37.515 -30.741  0.00  0.00    -0.037 C 
BRANCH  16  17
ATOM     17  C   UNL     1      41.326 -37.186 -31.956  0.00  0.00    -0.050 C 
BRANCH  17  18
ATOM     18  C   UNL     1      40.620 -35.838 -31.787  0.00  0.00    -0.040 C 
BRANCH  18  19
ATOM     19  C   UNL     1      39.315 -35.791 -32.595  0.00  0.00    -0.001 C 
BRANCH  19  20
ATOM     20  N   UNL     1      38.126 -36.023 -31.760  0.00  0.00    -0.298 N 
ATOM     21  C   UNL     1      37.408 -34.777 -31.442  0.00  0.00    +0.003 C 
ATOM     22  C   UNL     1      36.081 -35.081 -30.731  0.00  0.00    -0.015 C 
ATOM     23  C   UNL     1      36.243 -36.045 -29.585  0.00  0.00    -0.042 A 
ATOM     24  C   UNL     1      35.223 -36.190 -28.634  0.00  0.00    -0.058 A 
ATOM     25  C   UNL     1      35.357 -37.109 -27.594  0.00  0.00    -0.061 A 
ATOM     26  C   UNL     1      36.504 -37.893 -27.499  0.00  0.00    -0.061 A 
ATOM     27  C   UNL     1      37.519 -37.763 -28.448  0.00  0.00    -0.057 A 
ATOM     28  C   UNL     1      37.392 -36.850 -29.507  0.00  0.00    -0.030 A 
ATOM     29  C   UNL     1      38.522 -36.690 -30.501  0.00  0.00    +0.024 C 
ATOM     30  H   UNL     1      37.494 -36.616 -32.297  0.00  0.00    +0.000 HD
ENDBRANCH  19  20
ENDBRANCH  18  19
ENDBRANCH  17  18
ENDBRANCH  16  17
ENDBRANCH   1  16
TORSDOF 8
ENDMDL
MODEL 2
REMARK VINA RESULT:   -10.166      2.018      9.829
REMARK INTER + INTRA:         -15.331
REMARK INTER:                 -14.092
REMARK INTRA:                  -1.239
REMARK UNBOUND:                -0.411
REMARK  Name = cpd267.pdb
REMARK  8 active torsions:
REMARK  status: ('A' for Active; 'I' for Inactive)
REMARK    1  A    between atoms: C_4  and  C_5
REMARK    2  A    between atoms: C_8  and  N_9
REMARK    3  A    between atoms: N_9  and  C_10
REMARK    4  A    between atoms: C_10  and  C_11
REMARK    5  A    between atoms: C_11  and  C_12
REMARK    6  A    between atoms: C_12  and  C_13
REMARK    7  A    between atoms: C_13  and  C_14
REMARK    8  A    between atoms: C_14  and  N_15
REMARK                            x       y       z     vdW  Elec       q    Type
REMARK                         _______ _______ _______ _____ _____    ______ ____
ROOT
ATOM      1  C   UNL     1      45.696 -36.034 -29.851  0.00  0.00    +0.010 C 
ENDROOT
BRANCH   1   2
ATOM      2  N   UNL     1      44.946 -36.963 -30.691  0.00  0.00    -0.328 N 
ATOM      3  H   UNL     1      45.391 -37.603 -31.292  0.00  0.00    +0.000 HD
BRANCH   2   7
ATOM      4  C   UNL     1      40.800 -36.884 -30.354  0.00  0.00    +0.093 A 
ATOM      5  C   UNL     1      41.444 -35.776 -30.888  0.00  0.00    -0.031 A 
ATOM      6  C   UNL     1      42.836 -35.780 -31.005  0.00  0.00    -0.018 A 
ATOM      7  C   UNL     1      43.554 -36.886 -30.586  0.00  0.00    +0.141 A 
ATOM      8  N   UNL     1      42.905 -37.956 -30.094  0.00  0.00    -0.134 NA
ATOM      9  N   UNL     1      41.529 -37.955 -29.969  0.00  0.00    -0.147 NA
BRANCH   4  13
ATOM     10  C   UNL     1      36.525 -37.152 -29.895  0.00  0.00    -0.062 A 
ATOM     11  C   UNL     1      37.361 -37.868 -29.044  0.00  0.00    -0.061 A 
ATOM     12  C   UNL     1      38.750 -37.787 -29.190  0.00  0.00    -0.053 A 
ATOM     13  C   UNL     1      39.337 -36.985 -30.187  0.00  0.00    +0.002 A 
ATOM     14  C   UNL     1      38.466 -36.279 -31.040  0.00  0.00    -0.053 A 
ATOM     15  C   UNL     1      37.077 -36.358 -30.895  0.00  0.00    -0.061 A 
ENDBRANCH   4  13
ENDBRANCH   2   7
ENDBRANCH   1   2
BRANCH   1  16
ATOM     16  C   UNL     1      46.622 -35.182 -30.720  0.00  0.00    -0.037 C 
BRANCH  16  17
ATOM     17  C   UNL     1      47.837 -35.984 -31.191  0.00  0.00    -0.050 C 
BRANCH  17  18
ATOM     18  C   UNL     1      48.785 -36.293 -30.029  0.00  0.00    -0.040 C 
BRANCH  18  19
ATOM     19  C   UNL     1      49.178 -37.777 -30.015  0.00  0.00    -0.001 C 
BRANCH  19  20
ATOM     20  N   UNL     1      48.012 -38.670 -30.071  0.00  0.00    -0.298 N 
ATOM     21  C   UNL     1      47.472 -38.978 -28.736  0.00  0.00    +0.003 C 
ATOM     22  C   UNL     1      46.153 -39.757 -28.850  0.00  0.00    -0.015 C 
ATOM     23  C   UNL     1      46.248 -40.927 -29.795  0.00  0.00    -0.042 A 
ATOM     24  C   UNL     1      45.266 -41.927 -29.783  0.00  0.00    -0.058 A 
ATOM     25  C   UNL     1      45.334 -42.991 -30.682  0.00  0.00    -0.061 A 
ATOM     26  C   UNL     1      46.377 -43.060 -31.602  0.00  0.00    -0.061 A 
ATOM     27  C   UNL     1      47.353 -42.063 -31.627  0.00  0.00    -0.057 A 
ATOM     28  C   UNL     1      47.290 -40.981 -30.735  0.00  0.00    -0.030 A 
ATOM     29  C   UNL     1      48.381 -39.932 -30.748  0.00  0.00    +0.024 C 
ATOM     30  H   UNL     1      47.285 -38.182 -30.595  0.00  0.00    +0.000 HD
ENDBRANCH  19  20
ENDBRANCH  18  19
ENDBRANCH  17  18
ENDBRANCH  16  17
ENDBRANCH   1  16
TORSDOF 8
ENDMDL
MODEL 3
REMARK VINA RESULT:    -8.251      5.226      8.573
REMARK INTER + INTRA:         -12.520
REMARK INTER:                 -11.339
REMARK INTRA:                  -1.181
REMARK UNBOUND:                -0.411
REMARK  Name = cpd267.pdb
REMARK  8 active torsions:
REMARK  status: ('A' for Active; 'I' for Inactive)
REMARK    1  A    between atoms: C_4  and  C_5
REMARK    2  A    between atoms: C_8  and  N_9
REMARK    3  A    between atoms: N_9  and  C_10
REMARK    4  A    between atoms: C_10  and  C_11
REMARK    5  A    between atoms: C_11  and  C_12
REMARK    6  A    between atoms: C_12  and  C_13
REMARK    7  A    between atoms: C_13  and  C_14
REMARK    8  A    between atoms: C_14  and  N_15
REMARK                            x       y       z     vdW  Elec       q    Type
REMARK                         _______ _______ _______ _____ _____    ______ ____
ROOT
ATOM      1  C   UNL     1      34.538 -37.343 -26.576  0.00  0.00    +0.010 C 
ENDROOT
BRANCH   1   2
ATOM      2  N   UNL     1      35.372 -38.422 -27.098  0.00  0.00    -0.328 N 
ATOM      3  H   UNL     1      35.243 -39.361 -26.829  0.00  0.00    +0.000 HD
BRANCH   2   7
ATOM      4  C   UNL     1      38.428 -37.344 -29.706  0.00  0.00    +0.093 A 
ATOM      5  C   UNL     1      37.187 -36.740 -29.852  0.00  0.00    -0.031 A 
ATOM      6  C   UNL     1      36.145 -37.092 -28.991  0.00  0.00    -0.018 A 
ATOM      7  C   UNL     1      36.364 -38.037 -28.004  0.00  0.00    +0.141 A 
ATOM      8  N   UNL     1      37.582 -38.590 -27.867  0.00  0.00    -0.134 NA
ATOM      9  N   UNL     1      38.615 -38.251 -28.722  0.00  0.00    -0.147 NA
BRANCH   4  13
ATOM     10  C   UNL     1      41.811 -36.449 -32.218  0.00  0.00    -0.062 A 
ATOM     11  C   UNL     1      41.946 -37.354 -31.170  0.00  0.00    -0.061 A 
ATOM     12  C   UNL     1      40.851 -37.646 -30.349  0.00  0.00    -0.053 A 
ATOM     13  C   UNL     1      39.595 -37.044 -30.559  0.00  0.00    +0.002 A 
ATOM     14  C   UNL     1      39.492 -36.126 -31.621  0.00  0.00    -0.053 A 
ATOM     15  C   UNL     1      40.585 -35.833 -32.444  0.00  0.00    -0.061 A 
ENDBRANCH   4  13
ENDBRANCH   2   7
ENDBRANCH   1   2
BRANCH   1  16
ATOM     16  C   UNL     1      33.073 -37.780 -26.562  0.00  0.00    -0.037 C 
BRANCH  16  17
ATOM     17  C   UNL     1      32.249 -36.937 -25.587  0.00  0.00    -0.050 C 
BRANCH  17  18
ATOM     18  C   UNL     1      31.224 -36.073 -26.327  0.00  0.00    -0.040 C 
BRANCH  18  19
ATOM     19  C   UNL     1      31.416 -36.165 -27.847  0.00  0.00    -0.001 C 
BRANCH  19  20
ATOM     20  N   UNL     1      31.935 -34.917 -28.427  0.00  0.00    -0.298 N 
ATOM     21  C   UNL     1      30.965 -34.264 -29.322  0.00  0.00    +0.003 C 
ATOM     22  C   UNL     1      31.472 -32.881 -29.757  0.00  0.00    -0.015 C 
ATOM     23  C   UNL     1      32.893 -32.913 -30.256  0.00  0.00    -0.042 A 
ATOM     24  C   UNL     1      33.411 -31.833 -30.983  0.00  0.00    -0.058 A 
ATOM     25  C   UNL     1      34.737 -31.846 -31.414  0.00  0.00    -0.061 A 
ATOM     26  C   UNL     1      35.556 -32.932 -31.116  0.00  0.00    -0.061 A 
ATOM     27  C   UNL     1      35.051 -34.007 -30.383  0.00  0.00    -0.057 A 
ATOM     28  C   UNL     1      33.722 -34.001 -29.934  0.00  0.00    -0.030 A 
ATOM     29  C   UNL     1      33.178 -35.195 -29.178  0.00  0.00    +0.024 C 
ATOM     30  H   UNL     1      32.119 -34.280 -27.652  0.00  0.00    +0.000 HD
ENDBRANCH  19  20
ENDBRANCH  18  19
ENDBRANCH  17  18
ENDBRANCH  16  17
ENDBRANCH   1  16
TORSDOF 8
ENDMDL
MODEL 4
REMARK VINA RESULT:    -8.122      7.821     11.217
REMARK INTER + INTRA:         -12.331
REMARK INTER:                  -9.058
REMARK INTRA:                  -3.273
REMARK UNBOUND:                -0.411
REMARK  Name = cpd267.pdb
REMARK  8 active torsions:
REMARK  status: ('A' for Active; 'I' for Inactive)
REMARK    1  A    between atoms: C_4  and  C_5
REMARK    2  A    between atoms: C_8  and  N_9
REMARK    3  A    between atoms: N_9  and  C_10
REMARK    4  A    between atoms: C_10  and  C_11
REMARK    5  A    between atoms: C_11  and  C_12
REMARK    6  A    between atoms: C_12  and  C_13
REMARK    7  A    between atoms: C_13  and  C_14
REMARK    8  A    between atoms: C_14  and  N_15
REMARK                            x       y       z     vdW  Elec       q    Type
REMARK                         _______ _______ _______ _____ _____    ______ ____
ROOT
ATOM      1  C   UNL     1      31.251 -30.994 -29.885  0.00  0.00    +0.010 C 
ENDROOT
BRANCH   1   2
ATOM      2  N   UNL     1      32.422 -30.926 -30.756  0.00  0.00    -0.328 N 
ATOM      3  H   UNL     1      32.549 -30.201 -31.409  0.00  0.00    +0.000 HD
BRANCH   2   7
ATOM      4  C   UNL     1      35.230 -33.980 -30.442  0.00  0.00    +0.093 A 
ATOM      5  C   UNL     1      34.273 -33.853 -29.445  0.00  0.00    -0.031 A 
ATOM      6  C   UNL     1      33.325 -32.831 -29.527  0.00  0.00    -0.018 A 
ATOM      7  C   UNL     1      33.351 -31.959 -30.601  0.00  0.00    +0.141 A 
ATOM      8  N   UNL     1      34.274 -32.117 -31.568  0.00  0.00    -0.134 NA
ATOM      9  N   UNL     1      35.219 -33.122 -31.487  0.00  0.00    -0.147 NA
BRANCH   4  13
ATOM     10  C   UNL     1      38.267 -37.035 -30.441  0.00  0.00    -0.062 A 
ATOM     11  C   UNL     1      38.219 -36.104 -31.474  0.00  0.00    -0.061 A 
ATOM     12  C   UNL     1      37.233 -35.112 -31.481  0.00  0.00    -0.053 A 
ATOM     13  C   UNL     1      36.275 -35.023 -30.453  0.00  0.00    +0.002 A 
ATOM     14  C   UNL     1      36.342 -35.984 -29.426  0.00  0.00    -0.053 A 
ATOM     15  C   UNL     1      37.327 -36.977 -29.416  0.00  0.00    -0.061 A 
ENDBRANCH   4  13
ENDBRANCH   2   7
ENDBRANCH   1   2
BRANCH   1  16
ATOM     16  C   UNL     1      29.984 -30.733 -30.700  0.00  0.00    -0.037 C 
BRANCH  16  17
ATOM     17  C   UNL     1      28.845 -31.660 -30.270  0.00  0.00    -0.050 C 
BRANCH  17  18
ATOM     18  C   UNL     1      28.901 -32.995 -31.017  0.00  0.00    -0.040 C 
BRANCH  18  19
ATOM     19  C   UNL     1      29.442 -34.112 -30.115  0.00  0.00    -0.001 C 
BRANCH  19  20
ATOM     20  N   UNL     1      30.729 -34.646 -30.587  0.00  0.00    -0.298 N 
ATOM     21  C   UNL     1      30.820 -34.683 -32.056  0.00  0.00    +0.003 C 
ATOM     22  C   UNL     1      32.238 -35.069 -32.503  0.00  0.00    -0.015 C 
ATOM     23  C   UNL     1      32.760 -36.290 -31.792  0.00  0.00    -0.042 A 
ATOM     24  C   UNL     1      33.880 -36.971 -32.287  0.00  0.00    -0.058 A 
ATOM     25  C   UNL     1      34.385 -38.079 -31.609  0.00  0.00    -0.061 A 
ATOM     26  C   UNL     1      33.782 -38.511 -30.431  0.00  0.00    -0.061 A 
ATOM     27  C   UNL     1      32.672 -37.832 -29.926  0.00  0.00    -0.057 A 
ATOM     28  C   UNL     1      32.160 -36.708 -30.592  0.00  0.00    -0.030 A 
ATOM     29  C   UNL     1      30.929 -36.011 -30.054  0.00  0.00    +0.024 C 
ATOM     30  H   UNL     1      31.457 -34.018 -30.247  0.00  0.00    +0.000 HD
ENDBRANCH  19  20
ENDBRANCH  18  19
ENDBRANCH  17  18
ENDBRANCH  16  17
ENDBRANCH   1  16
TORSDOF 8
ENDMDL
MODEL 5
REMARK VINA RESULT:    -7.802      7.814     10.919
REMARK INTER + INTRA:         -11.861
REMARK INTER:                  -8.121
REMARK INTRA:                  -3.740
REMARK UNBOUND:                -0.411
REMARK  Name = cpd267.pdb
REMARK  8 active torsions:
REMARK  status: ('A' for Active; 'I' for Inactive)
REMARK    1  A    between atoms: C_4  and  C_5
REMARK    2  A    between atoms: C_8  and  N_9
REMARK    3  A    between atoms: N_9  and  C_10
REMARK    4  A    between atoms: C_10  and  C_11
REMARK    5  A    between atoms: C_11  and  C_12
REMARK    6  A    between atoms: C_12  and  C_13
REMARK    7  A    between atoms: C_13  and  C_14
REMARK    8  A    between atoms: C_14  and  N_15
REMARK                            x       y       z     vdW  Elec       q    Type
REMARK                         _______ _______ _______ _____ _____    ______ ____
ROOT
ATOM      1  C   UNL     1      30.322 -33.430 -30.209  0.00  0.00    +0.010 C 
ENDROOT
BRANCH   1   2
ATOM      2  N   UNL     1      30.866 -33.617 -28.867  0.00  0.00    -0.328 N 
ATOM      3  H   UNL     1      30.419 -33.260 -28.066  0.00  0.00    +0.000 HD
BRANCH   2   7
ATOM      4  C   UNL     1      34.467 -35.700 -28.786  0.00  0.00    +0.093 A 
ATOM      5  C   UNL     1      33.480 -36.042 -27.872  0.00  0.00    -0.031 A 
ATOM      6  C   UNL     1      32.267 -35.352 -27.877  0.00  0.00    -0.018 A 
ATOM      7  C   UNL     1      32.063 -34.336 -28.794  0.00  0.00    +0.141 A 
ATOM      8  N   UNL     1      33.025 -34.038 -29.686  0.00  0.00    -0.134 NA
ATOM      9  N   UNL     1      34.231 -34.713 -29.679  0.00  0.00    -0.147 NA
BRANCH   4  13
ATOM     10  C   UNL     1      38.300 -37.653 -28.987  0.00  0.00    -0.062 A 
ATOM     11  C   UNL     1      37.897 -36.809 -30.017  0.00  0.00    -0.061 A 
ATOM     12  C   UNL     1      36.652 -36.174 -29.958  0.00  0.00    -0.053 A 
ATOM     13  C   UNL     1      35.782 -36.364 -28.867  0.00  0.00    +0.002 A 
ATOM     14  C   UNL     1      36.213 -37.231 -27.845  0.00  0.00    -0.053 A 
ATOM     15  C   UNL     1      37.458 -37.867 -27.901  0.00  0.00    -0.061 A 
ENDBRANCH   4  13
ENDBRANCH   2   7
ENDBRANCH   1   2
BRANCH   1  16
ATOM     16  C   UNL     1      29.323 -34.544 -30.523  0.00  0.00    -0.037 C 
BRANCH  16  17
ATOM     17  C   UNL     1      29.343 -34.909 -32.008  0.00  0.00    -0.050 C 
BRANCH  17  18
ATOM     18  C   UNL     1      30.421 -35.954 -32.310  0.00  0.00    -0.040 C 
BRANCH  18  19
ATOM     19  C   UNL     1      30.680 -36.850 -31.091  0.00  0.00    -0.001 C 
BRANCH  19  20
ATOM     20  N   UNL     1      32.072 -37.322 -31.023  0.00  0.00    -0.298 N 
ATOM     21  C   UNL     1      32.603 -37.704 -32.343  0.00  0.00    +0.003 C 
ATOM     22  C   UNL     1      34.105 -38.012 -32.255  0.00  0.00    -0.015 C 
ATOM     23  C   UNL     1      34.441 -38.952 -31.126  0.00  0.00    -0.042 A 
ATOM     24  C   UNL     1      35.688 -39.591 -31.087  0.00  0.00    -0.058 A 
ATOM     25  C   UNL     1      36.013 -40.433 -30.024  0.00  0.00    -0.061 A 
ATOM     26  C   UNL     1      35.101 -40.635 -28.991  0.00  0.00    -0.061 A 
ATOM     27  C   UNL     1      33.862 -39.993 -29.017  0.00  0.00    -0.057 A 
ATOM     28  C   UNL     1      33.527 -39.135 -30.076  0.00  0.00    -0.030 A 
ATOM     29  C   UNL     1      32.162 -38.482 -30.111  0.00  0.00    +0.024 C 
ATOM     30  H   UNL     1      32.635 -36.547 -30.675  0.00  0.00    +0.000 HD
ENDBRANCH  19  20
ENDBRANCH  18  19
ENDBRANCH  17  18
ENDBRANCH  16  17
ENDBRANCH   1  16
TORSDOF 8
ENDMDL
MODEL 6
REMARK VINA RESULT:    -7.628     24.481     26.134
REMARK INTER + INTRA:         -11.607
REMARK INTER:                  -7.946
REMARK INTRA:                  -3.661
REMARK UNBOUND:                -0.411
REMARK  Name = cpd267.pdb
REMARK  8 active torsions:
REMARK  status: ('A' for Active; 'I' for Inactive)
REMARK    1  A    between atoms: C_4  and  C_5
REMARK    2  A    between atoms: C_8  and  N_9
REMARK    3  A    between atoms: N_9  and  C_10
REMARK    4  A    between atoms: C_10  and  C_11
REMARK    5  A    between atoms: C_11  and  C_12
REMARK    6  A    between atoms: C_12  and  C_13
REMARK    7  A    between atoms: C_13  and  C_14
REMARK    8  A    between atoms: C_14  and  N_15
REMARK                            x       y       z     vdW  Elec       q    Type
REMARK                         _______ _______ _______ _____ _____    ______ ____
ROOT
ATOM      1  C   UNL     1      46.261 -37.953 -54.575  0.00  0.00    +0.010 C 
ENDROOT
BRANCH   1   2
ATOM      2  N   UNL     1      47.322 -37.537 -53.662  0.00  0.00    -0.328 N 
ATOM      3  H   UNL     1      47.444 -37.951 -52.777  0.00  0.00    +0.000 HD
BRANCH   2   7
ATOM      4  C   UNL     1      49.821 -34.448 -54.895  0.00  0.00    +0.093 A 
ATOM      5  C   UNL     1      49.008 -35.062 -55.839  0.00  0.00    -0.031 A 
ATOM      6  C   UNL     1      48.167 -36.105 -55.447  0.00  0.00    -0.018 A 
ATOM      7  C   UNL     1      48.153 -36.513 -54.125  0.00  0.00    +0.141 A 
ATOM      8  N   UNL     1      48.932 -35.887 -53.225  0.00  0.00    -0.134 NA
ATOM      9  N   UNL     1      49.773 -34.859 -53.609  0.00  0.00    -0.147 NA
BRANCH   4  13
ATOM     10  C   UNL     1      52.526 -31.207 -55.750  0.00  0.00    -0.062 A 
ATOM     11  C   UNL     1      51.753 -31.753 -56.770  0.00  0.00    -0.061 A 
ATOM     12  C   UNL     1      50.875 -32.808 -56.499  0.00  0.00    -0.053 A 
ATOM     13  C   UNL     1      50.745 -33.339 -55.201  0.00  0.00    +0.002 A 
ATOM     14  C   UNL     1      51.546 -32.772 -54.191  0.00  0.00    -0.053 A 
ATOM     15  C   UNL     1      52.425 -31.717 -54.460  0.00  0.00    -0.061 A 
ENDBRANCH   4  13
ENDBRANCH   2   7
ENDBRANCH   1   2
BRANCH   1  16
ATOM     16  C   UNL     1      44.913 -37.914 -53.855  0.00  0.00    -0.037 C 
BRANCH  16  17
ATOM     17  C   UNL     1      43.860 -37.177 -54.685  0.00  0.00    -0.050 C 
BRANCH  17  18
ATOM     18  C   UNL     1      44.505 -36.374 -55.818  0.00  0.00    -0.040 C 
BRANCH  18  19
ATOM     19  C   UNL     1      44.265 -34.869 -55.635  0.00  0.00    -0.001 C 
BRANCH  19  20
ATOM     20  N   UNL     1      45.414 -34.184 -55.024  0.00  0.00    -0.298 N 
ATOM     21  C   UNL     1      45.159 -33.793 -53.627  0.00  0.00    +0.003 C 
ATOM     22  C   UNL     1      46.439 -33.252 -52.972  0.00  0.00    -0.015 C 
ATOM     23  C   UNL     1      47.132 -32.216 -53.819  0.00  0.00    -0.042 A 
ATOM     24  C   UNL     1      48.117 -31.390 -53.259  0.00  0.00    -0.058 A 
ATOM     25  C   UNL     1      48.783 -30.456 -54.051  0.00  0.00    -0.061 A 
ATOM     26  C   UNL     1      48.479 -30.345 -55.405  0.00  0.00    -0.061 A 
ATOM     27  C   UNL     1      47.507 -31.170 -55.972  0.00  0.00    -0.057 A 
ATOM     28  C   UNL     1      46.836 -32.123 -55.189  0.00  0.00    -0.030 A 
ATOM     29  C   UNL     1      45.755 -32.980 -55.810  0.00  0.00    +0.024 C 
ATOM     30  H   UNL     1      46.191 -34.845 -55.024  0.00  0.00    +0.000 HD
ENDBRANCH  19  20
ENDBRANCH  18  19
ENDBRANCH  17  18
ENDBRANCH  16  17
ENDBRANCH   1  16
TORSDOF 8
ENDMDL
MODEL 7
REMARK VINA RESULT:    -7.529     18.007     19.859
REMARK INTER + INTRA:         -11.461
REMARK INTER:                  -8.460
REMARK INTRA:                  -3.001
REMARK UNBOUND:                -0.411
REMARK  Name = cpd267.pdb
REMARK  8 active torsions:
REMARK  status: ('A' for Active; 'I' for Inactive)
REMARK    1  A    between atoms: C_4  and  C_5
REMARK    2  A    between atoms: C_8  and  N_9
REMARK    3  A    between atoms: N_9  and  C_10
REMARK    4  A    between atoms: C_10  and  C_11
REMARK    5  A    between atoms: C_11  and  C_12
REMARK    6  A    between atoms: C_12  and  C_13
REMARK    7  A    between atoms: C_13  and  C_14
REMARK    8  A    between atoms: C_14  and  N_15
REMARK                            x       y       z     vdW  Elec       q    Type
REMARK                         _______ _______ _______ _____ _____    ______ ____
ROOT
ATOM      1  C   UNL     1      43.278 -18.220 -32.634  0.00  0.00    +0.010 C 
ENDROOT
BRANCH   1   2
ATOM      2  N   UNL     1      44.524 -18.949 -32.852  0.00  0.00    -0.328 N 
ATOM      3  H   UNL     1      45.065 -19.298 -32.107  0.00  0.00    +0.000 HD
BRANCH   2   7
ATOM      4  C   UNL     1      45.745 -19.562 -36.782  0.00  0.00    +0.093 A 
ATOM      5  C   UNL     1      44.950 -18.461 -36.498  0.00  0.00    -0.031 A 
ATOM      6  C   UNL     1      44.523 -18.240 -35.187  0.00  0.00    -0.018 A 
ATOM      7  C   UNL     1      44.899 -19.120 -34.188  0.00  0.00    +0.141 A 
ATOM      8  N   UNL     1      45.691 -20.167 -34.483  0.00  0.00    -0.134 NA
ATOM      9  N   UNL     1      46.109 -20.395 -35.781  0.00  0.00    -0.147 NA
BRANCH   4  13
ATOM     10  C   UNL     1      47.218 -20.476 -40.725  0.00  0.00    -0.062 A 
ATOM     11  C   UNL     1      46.960 -21.505 -39.826  0.00  0.00    -0.061 A 
ATOM     12  C   UNL     1      46.484 -21.214 -38.543  0.00  0.00    -0.053 A 
ATOM     13  C   UNL     1      46.251 -19.888 -38.130  0.00  0.00    +0.002 A 
ATOM     14  C   UNL     1      46.531 -18.867 -39.058  0.00  0.00    -0.053 A 
ATOM     15  C   UNL     1      47.006 -19.155 -40.342  0.00  0.00    -0.061 A 
ENDBRANCH   4  13
ENDBRANCH   2   7
ENDBRANCH   1   2
BRANCH   1  16
ATOM     16  C   UNL     1      42.094 -19.185 -32.702  0.00  0.00    -0.037 C 
BRANCH  16  17
ATOM     17  C   UNL     1      40.766 -18.432 -32.796  0.00  0.00    -0.050 C 
BRANCH  17  18
ATOM     18  C   UNL     1      40.204 -18.471 -34.220  0.00  0.00    -0.040 C 
BRANCH  18  19
ATOM     19  C   UNL     1      39.677 -19.870 -34.569  0.00  0.00    -0.001 C 
BRANCH  19  20
ATOM     20  N   UNL     1      40.256 -20.396 -35.814  0.00  0.00    -0.298 N 
ATOM     21  C   UNL     1      41.149 -21.544 -35.581  0.00  0.00    +0.003 C 
ATOM     22  C   UNL     1      41.582 -22.175 -36.912  0.00  0.00    -0.015 C 
ATOM     23  C   UNL     1      42.084 -21.157 -37.902  0.00  0.00    -0.042 A 
ATOM     24  C   UNL     1      42.811 -21.566 -39.029  0.00  0.00    -0.058 A 
ATOM     25  C   UNL     1      43.244 -20.627 -39.965  0.00  0.00    -0.061 A 
ATOM     26  C   UNL     1      42.949 -19.278 -39.787  0.00  0.00    -0.061 A 
ATOM     27  C   UNL     1      42.217 -18.864 -38.674  0.00  0.00    -0.057 A 
ATOM     28  C   UNL     1      41.765 -19.800 -37.730  0.00  0.00    -0.030 A 
ATOM     29  C   UNL     1      41.010 -19.329 -36.506  0.00  0.00    +0.024 C 
ATOM     30  H   UNL     1      39.480 -20.720 -36.393  0.00  0.00    +0.000 HD
ENDBRANCH  19  20
ENDBRANCH  18  19
ENDBRANCH  17  18
ENDBRANCH  16  17
ENDBRANCH   1  16
TORSDOF 8
ENDMDL
MODEL 8
REMARK VINA RESULT:    -7.523     17.635     20.116
REMARK INTER + INTRA:         -11.453
REMARK INTER:                  -7.484
REMARK INTRA:                  -3.969
REMARK UNBOUND:                -0.411
REMARK  Name = cpd267.pdb
REMARK  8 active torsions:
REMARK  status: ('A' for Active; 'I' for Inactive)
REMARK    1  A    between atoms: C_4  and  C_5
REMARK    2  A    between atoms: C_8  and  N_9
REMARK    3  A    between atoms: N_9  and  C_10
REMARK    4  A    between atoms: C_10  and  C_11
REMARK    5  A    between atoms: C_11  and  C_12
REMARK    6  A    between atoms: C_12  and  C_13
REMARK    7  A    between atoms: C_13  and  C_14
REMARK    8  A    between atoms: C_14  and  N_15
REMARK                            x       y       z     vdW  Elec       q    Type
REMARK                         _______ _______ _______ _____ _____    ______ ____
ROOT
ATOM      1  C   UNL     1      47.616 -17.701 -35.452  0.00  0.00    +0.010 C 
ENDROOT
BRANCH   1   2
ATOM      2  N   UNL     1      47.176 -19.071 -35.205  0.00  0.00    -0.328 N 
ATOM      3  H   UNL     1      47.737 -19.850 -35.424  0.00  0.00    +0.000 HD
BRANCH   2   7
ATOM      4  C   UNL     1      43.366 -19.580 -33.614  0.00  0.00    +0.093 A 
ATOM      5  C   UNL     1      44.098 -18.461 -33.240  0.00  0.00    -0.031 A 
ATOM      6  C   UNL     1      45.381 -18.274 -33.757  0.00  0.00    -0.018 A 
ATOM      7  C   UNL     1      45.907 -19.206 -34.635  0.00  0.00    +0.141 A 
ATOM      8  N   UNL     1      45.169 -20.270 -35.001  0.00  0.00    -0.134 NA
ATOM      9  N   UNL     1      43.901 -20.463 -34.486  0.00  0.00    -0.147 NA
BRANCH   4  13
ATOM     10  C   UNL     1      39.393 -20.472 -32.209  0.00  0.00    -0.062 A 
ATOM     11  C   UNL     1      39.856 -19.160 -32.193  0.00  0.00    -0.061 A 
ATOM     12  C   UNL     1      41.147 -18.865 -32.645  0.00  0.00    -0.053 A 
ATOM     13  C   UNL     1      42.003 -19.873 -33.128  0.00  0.00    +0.002 A 
ATOM     14  C   UNL     1      41.510 -21.192 -33.124  0.00  0.00    -0.053 A 
ATOM     15  C   UNL     1      40.220 -21.490 -32.672  0.00  0.00    -0.061 A 
ENDBRANCH   4  13
ENDBRANCH   2   7
ENDBRANCH   1   2
BRANCH   1  16
ATOM     16  C   UNL     1      47.066 -17.214 -36.793  0.00  0.00    -0.037 C 
BRANCH  16  17
ATOM     17  C   UNL     1      47.009 -18.349 -37.817  0.00  0.00    -0.050 C 
BRANCH  17  18
ATOM     18  C   UNL     1      45.690 -18.333 -38.594  0.00  0.00    -0.040 C 
BRANCH  18  19
ATOM     19  C   UNL     1      44.551 -17.757 -37.740  0.00  0.00    -0.001 C 
BRANCH  19  20
ATOM     20  N   UNL     1      43.609 -18.791 -37.286  0.00  0.00    -0.298 N 
ATOM     21  C   UNL     1      43.456 -19.884 -38.261  0.00  0.00    +0.003 C 
ATOM     22  C   UNL     1      42.613 -21.024 -37.671  0.00  0.00    -0.015 C 
ATOM     23  C   UNL     1      41.335 -20.537 -37.041  0.00  0.00    -0.042 A 
ATOM     24  C   UNL     1      40.304 -21.439 -36.744  0.00  0.00    -0.058 A 
ATOM     25  C   UNL     1      39.136 -20.994 -36.128  0.00  0.00    -0.061 A 
ATOM     26  C   UNL     1      38.990 -19.649 -35.797  0.00  0.00    -0.061 A 
ATOM     27  C   UNL     1      40.016 -18.746 -36.080  0.00  0.00    -0.057 A 
ATOM     28  C   UNL     1      41.202 -19.183 -36.690  0.00  0.00    -0.030 A 
ATOM     29  C   UNL     1      42.286 -18.182 -37.029  0.00  0.00    +0.024 C 
ATOM     30  H   UNL     1      43.992 -19.190 -36.429  0.00  0.00    +0.000 HD
ENDBRANCH  19  20
ENDBRANCH  18  19
ENDBRANCH  17  18
ENDBRANCH  16  17
ENDBRANCH   1  16
TORSDOF 8
ENDMDL
MODEL 9
REMARK VINA RESULT:    -7.448      8.414     11.805
REMARK INTER + INTRA:         -11.343
REMARK INTER:                  -7.853
REMARK INTRA:                  -3.490
REMARK UNBOUND:                -0.411
REMARK  Name = cpd267.pdb
REMARK  8 active torsions:
REMARK  status: ('A' for Active; 'I' for Inactive)
REMARK    1  A    between atoms: C_4  and  C_5
REMARK    2  A    between atoms: C_8  and  N_9
REMARK    3  A    between atoms: N_9  and  C_10
REMARK    4  A    between atoms: C_10  and  C_11
REMARK    5  A    between atoms: C_11  and  C_12
REMARK    6  A    between atoms: C_12  and  C_13
REMARK    7  A    between atoms: C_13  and  C_14
REMARK    8  A    between atoms: C_14  and  N_15
REMARK                            x       y       z     vdW  Elec       q    Type
REMARK                         _______ _______ _______ _____ _____    ______ ____
ROOT
ATOM      1  C   UNL     1      28.761 -34.883 -30.791  0.00  0.00    +0.010 C 
ENDROOT
BRANCH   1   2
ATOM      2  N   UNL     1      28.730 -36.103 -29.989  0.00  0.00    -0.328 N 
ATOM      3  H   UNL     1      27.918 -36.401 -29.519  0.00  0.00    +0.000 HD
BRANCH   2   7
ATOM      4  C   UNL     1      32.282 -38.269 -29.969  0.00  0.00    +0.093 A 
ATOM      5  C   UNL     1      31.698 -37.939 -28.754  0.00  0.00    -0.031 A 
ATOM      6  C   UNL     1      30.510 -37.207 -28.738  0.00  0.00    -0.018 A 
ATOM      7  C   UNL     1      29.929 -36.820 -29.932  0.00  0.00    +0.141 A 
ATOM      8  N   UNL     1      30.501 -37.172 -31.098  0.00  0.00    -0.134 NA
ATOM      9  N   UNL     1      31.682 -37.890 -31.119  0.00  0.00    -0.147 NA
BRANCH   4  13
ATOM     10  C   UNL     1      35.944 -40.498 -30.384  0.00  0.00    -0.062 A 
ATOM     11  C   UNL     1      35.095 -40.753 -29.313  0.00  0.00    -0.061 A 
ATOM     12  C   UNL     1      33.905 -40.030 -29.172  0.00  0.00    -0.053 A 
ATOM     13  C   UNL     1      33.535 -39.038 -30.100  0.00  0.00    +0.002 A 
ATOM     14  C   UNL     1      34.419 -38.796 -31.169  0.00  0.00    -0.053 A 
ATOM     15  C   UNL     1      35.609 -39.518 -31.313  0.00  0.00    -0.061 A 
ENDBRANCH   4  13
ENDBRANCH   2   7
ENDBRANCH   1   2
BRANCH   1  16
ATOM     16  C   UNL     1      29.339 -33.734 -29.964  0.00  0.00    -0.037 C 
BRANCH  16  17
ATOM     17  C   UNL     1      30.568 -33.124 -30.640  0.00  0.00    -0.050 C 
BRANCH  17  18
ATOM     18  C   UNL     1      31.826 -33.949 -30.356  0.00  0.00    -0.040 C 
BRANCH  18  19
ATOM     19  C   UNL     1      32.949 -33.070 -29.789  0.00  0.00    -0.001 C 
BRANCH  19  20
ATOM     20  N   UNL     1      34.210 -33.807 -29.615  0.00  0.00    -0.298 N 
ATOM     21  C   UNL     1      34.810 -34.211 -30.898  0.00  0.00    +0.003 C 
ATOM     22  C   UNL     1      36.207 -34.810 -30.679  0.00  0.00    -0.015 C 
ATOM     23  C   UNL     1      36.228 -35.858 -29.597  0.00  0.00    -0.042 A 
ATOM     24  C   UNL     1      37.319 -36.729 -29.478  0.00  0.00    -0.058 A 
ATOM     25  C   UNL     1      37.356 -37.675 -28.455  0.00  0.00    -0.061 A 
ATOM     26  C   UNL     1      36.309 -37.753 -27.540  0.00  0.00    -0.061 A 
ATOM     27  C   UNL     1      35.224 -36.882 -27.644  0.00  0.00    -0.057 A 
ATOM     28  C   UNL     1      35.180 -35.918 -28.664  0.00  0.00    -0.030 A 
ATOM     29  C   UNL     1      33.975 -35.011 -28.789  0.00  0.00    +0.024 C 
ATOM     30  H   UNL     1      34.864 -33.176 -29.152  0.00  0.00    +0.000 HD
ENDBRANCH  19  20
ENDBRANCH  18  19
ENDBRANCH  17  18
ENDBRANCH  16  17
ENDBRANCH   1  16
TORSDOF 8
ENDMDL
MODEL 10
REMARK VINA RESULT:    -7.446     18.475     21.013
REMARK INTER + INTRA:         -11.340
REMARK INTER:                  -7.674
REMARK INTRA:                  -3.666
REMARK UNBOUND:                -0.411
REMARK  Name = cpd267.pdb
REMARK  8 active torsions:
REMARK  status: ('A' for Active; 'I' for Inactive)
REMARK    1  A    between atoms: C_4  and  C_5
REMARK    2  A    between atoms: C_8  and  N_9
REMARK    3  A    between atoms: N_9  and  C_10
REMARK    4  A    between atoms: C_10  and  C_11
REMARK    5  A    between atoms: C_11  and  C_12
REMARK    6  A    between atoms: C_12  and  C_13
REMARK    7  A    between atoms: C_13  and  C_14
REMARK    8  A    between atoms: C_14  and  N_15
REMARK                            x       y       z     vdW  Elec       q    Type
REMARK                         _______ _______ _______ _____ _____    ______ ____
ROOT
ATOM      1  C   UNL     1      40.842 -20.875 -34.783  0.00  0.00    +0.010 C 
ENDROOT
BRANCH   1   2
ATOM      2  N   UNL     1      40.247 -20.534 -36.072  0.00  0.00    -0.328 N 
ATOM      3  H   UNL     1      39.327 -20.193 -36.151  0.00  0.00    +0.000 HD
BRANCH   2   7
ATOM      4  C   UNL     1      42.817 -21.084 -39.298  0.00  0.00    +0.093 A 
ATOM      5  C   UNL     1      41.484 -20.790 -39.552  0.00  0.00    -0.031 A 
ATOM      6  C   UNL     1      40.604 -20.607 -38.484  0.00  0.00    -0.018 A 
ATOM      7  C   UNL     1      41.069 -20.722 -37.187  0.00  0.00    +0.141 A 
ATOM      8  N   UNL     1      42.370 -20.985 -36.965  0.00  0.00    -0.134 NA
ATOM      9  N   UNL     1      43.244 -21.174 -38.019  0.00  0.00    -0.147 NA
BRANCH   4  13
ATOM     10  C   UNL     1      45.799 -21.705 -42.342  0.00  0.00    -0.062 A 
ATOM     11  C   UNL     1      44.528 -21.266 -42.696  0.00  0.00    -0.061 A 
ATOM     12  C   UNL     1      43.555 -21.065 -41.712  0.00  0.00    -0.053 A 
ATOM     13  C   UNL     1      43.830 -21.295 -40.350  0.00  0.00    +0.002 A 
ATOM     14  C   UNL     1      45.122 -21.748 -40.023  0.00  0.00    -0.053 A 
ATOM     15  C   UNL     1      46.098 -21.949 -41.005  0.00  0.00    -0.061 A 
ENDBRANCH   4  13
ENDBRANCH   2   7
ENDBRANCH   1   2
BRANCH   1  16
ATOM     16  C   UNL     1      40.558 -19.765 -33.771  0.00  0.00    -0.037 C 
BRANCH  16  17
ATOM     17  C   UNL     1      41.854 -19.179 -33.208  0.00  0.00    -0.050 C 
BRANCH  17  18
ATOM     18  C   UNL     1      43.031 -19.413 -34.159  0.00  0.00    -0.040 C 
BRANCH  18  19
ATOM     19  C   UNL     1      43.384 -18.133 -34.928  0.00  0.00    -0.001 C 
BRANCH  19  20
ATOM     20  N   UNL     1      43.981 -18.411 -36.243  0.00  0.00    -0.298 N 
ATOM     21  C   UNL     1      45.413 -18.073 -36.297  0.00  0.00    +0.003 C 
ATOM     22  C   UNL     1      46.035 -18.548 -37.618  0.00  0.00    -0.015 C 
ATOM     23  C   UNL     1      45.228 -18.137 -38.822  0.00  0.00    -0.042 A 
ATOM     24  C   UNL     1      45.791 -18.197 -40.104  0.00  0.00    -0.058 A 
ATOM     25  C   UNL     1      45.033 -17.851 -41.222  0.00  0.00    -0.061 A 
ATOM     26  C   UNL     1      43.707 -17.451 -41.069  0.00  0.00    -0.061 A 
ATOM     27  C   UNL     1      43.136 -17.398 -39.797  0.00  0.00    -0.057 A 
ATOM     28  C   UNL     1      43.885 -17.755 -38.664  0.00  0.00    -0.030 A 
ATOM     29  C   UNL     1      43.263 -17.650 -37.288  0.00  0.00    +0.024 C 
ATOM     30  H   UNL     1      43.893 -19.414 -36.406  0.00  0.00    +0.000 HD
ENDBRANCH  19  20
ENDBRANCH  18  19
ENDBRANCH  17  18
ENDBRANCH  16  17
ENDBRANCH   1  16
TORSDOF 8
ENDMDL
MODEL 11
REMARK VINA RESULT:    -7.408     19.976     22.533
REMARK INTER + INTRA:         -11.283
REMARK INTER:                  -7.585
REMARK INTRA:                  -3.698
REMARK UNBOUND:                -0.411
REMARK  Name = cpd267.pdb
REMARK  8 active torsions:
REMARK  status: ('A' for Active; 'I' for Inactive)
REMARK    1  A    between atoms: C_4  and  C_5
REMARK    2  A    between atoms: C_8  and  N_9
REMARK    3  A    between atoms: N_9  and  C_10
REMARK    4  A    between atoms: C_10  and  C_11
REMARK    5  A    between atoms: C_11  and  C_12
REMARK    6  A    between atoms: C_12  and  C_13
REMARK    7  A    between atoms: C_13  and  C_14
REMARK    8  A    between atoms: C_14  and  N_15
REMARK                            x       y       z     vdW  Elec       q    Type
REMARK                         _______ _______ _______ _____ _____    ______ ____
ROOT
ATOM      1  C   UNL     1      42.240 -14.613 -40.777  0.00  0.00    +0.010 C 
ENDROOT
BRANCH   1   2
ATOM      2  N   UNL     1      43.648 -14.780 -40.429  0.00  0.00    -0.328 N 
ATOM      3  H   UNL     1      44.168 -14.068 -39.991  0.00  0.00    +0.000 HD
BRANCH   2   7
ATOM      4  C   UNL     1      45.179 -18.522 -41.411  0.00  0.00    +0.093 A 
ATOM      5  C   UNL     1      46.049 -17.553 -40.933  0.00  0.00    -0.031 A 
ATOM      6  C   UNL     1      45.558 -16.288 -40.603  0.00  0.00    -0.018 A 
ATOM      7  C   UNL     1      44.210 -16.017 -40.757  0.00  0.00    +0.141 A 
ATOM      8  N   UNL     1      43.381 -16.981 -41.200  0.00  0.00    -0.134 NA
ATOM      9  N   UNL     1      43.865 -18.232 -41.535  0.00  0.00    -0.147 NA
BRANCH   4  13
ATOM     10  C   UNL     1      46.422 -22.500 -42.499  0.00  0.00    -0.062 A 
ATOM     11  C   UNL     1      45.115 -22.091 -42.744  0.00  0.00    -0.061 A 
ATOM     12  C   UNL     1      44.705 -20.800 -42.390  0.00  0.00    -0.053 A 
ATOM     13  C   UNL     1      45.592 -19.888 -41.787  0.00  0.00    +0.002 A 
ATOM     14  C   UNL     1      46.905 -20.334 -41.543  0.00  0.00    -0.053 A 
ATOM     15  C   UNL     1      47.318 -21.623 -41.896  0.00  0.00    -0.061 A 
ENDBRANCH   4  13
ENDBRANCH   2   7
ENDBRANCH   1   2
BRANCH   1  16
ATOM     16  C   UNL     1      41.393 -14.576 -39.504  0.00  0.00    -0.037 C 
BRANCH  16  17
ATOM     17  C   UNL     1      40.469 -15.792 -39.414  0.00  0.00    -0.050 C 
BRANCH  17  18
ATOM     18  C   UNL     1      40.915 -16.750 -38.305  0.00  0.00    -0.040 C 
BRANCH  18  19
ATOM     19  C   UNL     1      40.941 -18.201 -38.804  0.00  0.00    -0.001 C 
BRANCH  19  20
ATOM     20  N   UNL     1      42.301 -18.757 -38.853  0.00  0.00    -0.298 N 
ATOM     21  C   UNL     1      42.331 -20.202 -38.573  0.00  0.00    +0.003 C 
ATOM     22  C   UNL     1      43.736 -20.774 -38.815  0.00  0.00    -0.015 C 
ATOM     23  C   UNL     1      44.816 -19.964 -38.148  0.00  0.00    -0.042 A 
ATOM     24  C   UNL     1      46.102 -20.498 -37.988  0.00  0.00    -0.058 A 
ATOM     25  C   UNL     1      47.113 -19.735 -37.404  0.00  0.00    -0.061 A 
ATOM     26  C   UNL     1      46.849 -18.434 -36.982  0.00  0.00    -0.061 A 
ATOM     27  C   UNL     1      45.574 -17.892 -37.148  0.00  0.00    -0.057 A 
ATOM     28  C   UNL     1      44.551 -18.645 -37.745  0.00  0.00    -0.030 A 
ATOM     29  C   UNL     1      43.163 -18.056 -37.876  0.00  0.00    +0.024 C 
ATOM     30  H   UNL     1      42.648 -18.618 -39.802  0.00  0.00    +0.000 HD
ENDBRANCH  19  20
ENDBRANCH  18  19
ENDBRANCH  17  18
ENDBRANCH  16  17
ENDBRANCH   1  16
TORSDOF 8
ENDMDL
MODEL 12
REMARK VINA RESULT:    -7.328     17.308     19.974
REMARK INTER + INTRA:         -11.165
REMARK INTER:                  -7.730
REMARK INTRA:                  -3.435
REMARK UNBOUND:                -0.411
REMARK  Name = cpd267.pdb
REMARK  8 active torsions:
REMARK  status: ('A' for Active; 'I' for Inactive)
REMARK    1  A    between atoms: C_4  and  C_5
REMARK    2  A    between atoms: C_8  and  N_9
REMARK    3  A    between atoms: N_9  and  C_10
REMARK    4  A    between atoms: C_10  and  C_11
REMARK    5  A    between atoms: C_11  and  C_12
REMARK    6  A    between atoms: C_12  and  C_13
REMARK    7  A    between atoms: C_13  and  C_14
REMARK    8  A    between atoms: C_14  and  N_15
REMARK                            x       y       z     vdW  Elec       q    Type
REMARK                         _______ _______ _______ _____ _____    ______ ____
ROOT
ATOM      1  C   UNL     1      44.863 -17.179 -34.290  0.00  0.00    +0.010 C 
ENDROOT
BRANCH   1   2
ATOM      2  N   UNL     1      44.512 -17.896 -33.067  0.00  0.00    -0.328 N 
ATOM      3  H   UNL     1      45.058 -17.836 -32.250  0.00  0.00    +0.000 HD
BRANCH   2   7
ATOM      4  C   UNL     1      40.987 -20.103 -33.169  0.00  0.00    +0.093 A 
ATOM      5  C   UNL     1      42.155 -20.695 -33.629  0.00  0.00    -0.031 A 
ATOM      6  C   UNL     1      43.348 -19.970 -33.609  0.00  0.00    -0.018 A 
ATOM      7  C   UNL     1      43.351 -18.671 -33.132  0.00  0.00    +0.141 A 
ATOM      8  N   UNL     1      42.211 -18.127 -32.669  0.00  0.00    -0.134 NA
ATOM      9  N   UNL     1      41.026 -18.838 -32.694  0.00  0.00    -0.147 NA
BRANCH   4  13
ATOM     10  C   UNL     1      37.174 -22.105 -33.113  0.00  0.00    -0.062 A 
ATOM     11  C   UNL     1      37.268 -20.780 -32.700  0.00  0.00    -0.061 A 
ATOM     12  C   UNL     1      38.504 -20.125 -32.714  0.00  0.00    -0.053 A 
ATOM     13  C   UNL     1      39.675 -20.778 -33.144  0.00  0.00    +0.002 A 
ATOM     14  C   UNL     1      39.551 -22.122 -33.546  0.00  0.00    -0.053 A 
ATOM     15  C   UNL     1      38.316 -22.778 -33.534  0.00  0.00    -0.061 A 
ENDBRANCH   4  13
ENDBRANCH   2   7
ENDBRANCH   1   2
BRANCH   1  16
ATOM     16  C   UNL     1      46.291 -17.534 -34.707  0.00  0.00    -0.037 C 
BRANCH  16  17
ATOM     17  C   UNL     1      46.340 -18.044 -36.148  0.00  0.00    -0.050 C 
BRANCH  17  18
ATOM     18  C   UNL     1      45.657 -19.409 -36.280  0.00  0.00    -0.040 C 
BRANCH  18  19
ATOM     19  C   UNL     1      44.694 -19.433 -37.475  0.00  0.00    -0.001 C 
BRANCH  19  20
ATOM     20  N   UNL     1      43.369 -19.964 -37.122  0.00  0.00    -0.298 N 
ATOM     21  C   UNL     1      42.878 -20.951 -38.098  0.00  0.00    +0.003 C 
ATOM     22  C   UNL     1      41.585 -21.613 -37.599  0.00  0.00    -0.015 C 
ATOM     23  C   UNL     1      40.566 -20.611 -37.122  0.00  0.00    -0.042 A 
ATOM     24  C   UNL     1      39.231 -20.996 -36.937  0.00  0.00    -0.058 A 
ATOM     25  C   UNL     1      38.294 -20.079 -36.462  0.00  0.00    -0.061 A 
ATOM     26  C   UNL     1      38.684 -18.776 -36.161  0.00  0.00    -0.061 A 
ATOM     27  C   UNL     1      40.014 -18.388 -36.333  0.00  0.00    -0.057 A 
ATOM     28  C   UNL     1      40.969 -19.305 -36.800  0.00  0.00    -0.030 A 
ATOM     29  C   UNL     1      42.397 -18.855 -37.022  0.00  0.00    +0.024 C 
ATOM     30  H   UNL     1      43.466 -20.438 -36.224  0.00  0.00    +0.000 HD
ENDBRANCH  19  20
ENDBRANCH  18  19
ENDBRANCH  17  18
ENDBRANCH  16  17
ENDBRANCH   1  16
TORSDOF 8
ENDMDL
MODEL 13
REMARK VINA RESULT:    -7.262     17.251     20.414
REMARK INTER + INTRA:         -11.069
REMARK INTER:                  -7.373
REMARK INTRA:                  -3.696
REMARK UNBOUND:                -0.411
REMARK  Name = cpd267.pdb
REMARK  8 active torsions:
REMARK  status: ('A' for Active; 'I' for Inactive)
REMARK    1  A    between atoms: C_4  and  C_5
REMARK    2  A    between atoms: C_8  and  N_9
REMARK    3  A    between atoms: N_9  and  C_10
REMARK    4  A    between atoms: C_10  and  C_11
REMARK    5  A    between atoms: C_11  and  C_12
REMARK    6  A    between atoms: C_12  and  C_13
REMARK    7  A    between atoms: C_13  and  C_14
REMARK    8  A    between atoms: C_14  and  N_15
REMARK                            x       y       z     vdW  Elec       q    Type
REMARK                         _______ _______ _______ _____ _____    ______ ____
ROOT
ATOM      1  C   UNL     1      45.025 -16.610 -34.984  0.00  0.00    +0.010 C 
ENDROOT
BRANCH   1   2
ATOM      2  N   UNL     1      44.200 -16.475 -33.787  0.00  0.00    -0.328 N 
ATOM      3  H   UNL     1      44.550 -16.095 -32.949  0.00  0.00    +0.000 HD
BRANCH   2   7
ATOM      4  C   UNL     1      40.275 -17.837 -33.999  0.00  0.00    +0.093 A 
ATOM      5  C   UNL     1      40.955 -17.586 -35.182  0.00  0.00    -0.031 A 
ATOM      6  C   UNL     1      42.271 -17.122 -35.134  0.00  0.00    -0.018 A 
ATOM      7  C   UNL     1      42.880 -16.919 -33.908  0.00  0.00    +0.141 A 
ATOM      8  N   UNL     1      42.208 -17.193 -32.775  0.00  0.00    -0.134 NA
ATOM      9  N   UNL     1      40.902 -17.645 -32.818  0.00  0.00    -0.147 NA
BRANCH   4  13
ATOM     10  C   UNL     1      36.220 -19.274 -33.779  0.00  0.00    -0.062 A 
ATOM     11  C   UNL     1      36.848 -19.155 -35.015  0.00  0.00    -0.061 A 
ATOM     12  C   UNL     1      38.164 -18.687 -35.092  0.00  0.00    -0.053 A 
ATOM     13  C   UNL     1      38.884 -18.330 -33.937  0.00  0.00    +0.002 A 
ATOM     14  C   UNL     1      38.220 -18.452 -32.701  0.00  0.00    -0.053 A 
ATOM     15  C   UNL     1      36.905 -18.921 -32.621  0.00  0.00    -0.061 A 
ENDBRANCH   4  13
ENDBRANCH   2   7
ENDBRANCH   1   2
BRANCH   1  16
ATOM     16  C   UNL     1      46.189 -17.562 -34.707  0.00  0.00    -0.037 C 
BRANCH  16  17
ATOM     17  C   UNL     1      46.272 -18.664 -35.764  0.00  0.00    -0.050 C 
BRANCH  17  18
ATOM     18  C   UNL     1      44.929 -19.381 -35.928  0.00  0.00    -0.040 C 
BRANCH  18  19
ATOM     19  C   UNL     1      44.602 -20.232 -34.692  0.00  0.00    -0.001 C 
BRANCH  19  20
ATOM     20  N   UNL     1      43.345 -20.982 -34.840  0.00  0.00    -0.298 N 
ATOM     21  C   UNL     1      42.617 -20.627 -36.070  0.00  0.00    +0.003 C 
ATOM     22  C   UNL     1      41.415 -21.560 -36.278  0.00  0.00    -0.015 C 
ATOM     23  C   UNL     1      40.566 -21.699 -35.041  0.00  0.00    -0.042 A 
ATOM     24  C   UNL     1      39.275 -22.238 -35.127  0.00  0.00    -0.058 A 
ATOM     25  C   UNL     1      38.503 -22.402 -33.977  0.00  0.00    -0.061 A 
ATOM     26  C   UNL     1      39.016 -22.035 -32.735  0.00  0.00    -0.061 A 
ATOM     27  C   UNL     1      40.304 -21.508 -32.640  0.00  0.00    -0.057 A 
ATOM     28  C   UNL     1      41.096 -21.349 -33.788  0.00  0.00    -0.030 A 
ATOM     29  C   UNL     1      42.474 -20.734 -33.672  0.00  0.00    +0.024 C 
ATOM     30  H   UNL     1      43.592 -21.970 -34.901  0.00  0.00    +0.000 HD
ENDBRANCH  19  20
ENDBRANCH  18  19
ENDBRANCH  17  18
ENDBRANCH  16  17
ENDBRANCH   1  16
TORSDOF 8
ENDMDL
MODEL 14
REMARK VINA RESULT:    -7.246      9.385     12.885
REMARK INTER + INTRA:         -11.046
REMARK INTER:                  -7.868
REMARK INTRA:                  -3.178
REMARK UNBOUND:                -0.411
REMARK  Name = cpd267.pdb
REMARK  8 active torsions:
REMARK  status: ('A' for Active; 'I' for Inactive)
REMARK    1  A    between atoms: C_4  and  C_5
REMARK    2  A    between atoms: C_8  and  N_9
REMARK    3  A    between atoms: N_9  and  C_10
REMARK    4  A    between atoms: C_10  and  C_11
REMARK    5  A    between atoms: C_11  and  C_12
REMARK    6  A    between atoms: C_12  and  C_13
REMARK    7  A    between atoms: C_13  and  C_14
REMARK    8  A    between atoms: C_14  and  N_15
REMARK                            x       y       z     vdW  Elec       q    Type
REMARK                         _______ _______ _______ _____ _____    ______ ____
ROOT
ATOM      1  C   UNL     1      29.023 -30.288 -29.563  0.00  0.00    +0.010 C 
ENDROOT
BRANCH   1   2
ATOM      2  N   UNL     1      30.407 -29.879 -29.787  0.00  0.00    -0.328 N 
ATOM      3  H   UNL     1      30.654 -28.943 -29.970  0.00  0.00    +0.000 HD
BRANCH   2   7
ATOM      4  C   UNL     1      33.297 -32.871 -29.734  0.00  0.00    +0.093 A 
ATOM      5  C   UNL     1      32.223 -32.969 -28.860  0.00  0.00    -0.031 A 
ATOM      6  C   UNL     1      31.245 -31.972 -28.857  0.00  0.00    -0.018 A 
ATOM      7  C   UNL     1      31.358 -30.901 -29.725  0.00  0.00    +0.141 A 
ATOM      8  N   UNL     1      32.395 -30.840 -30.579  0.00  0.00    -0.134 NA
ATOM      9  N   UNL     1      33.370 -31.820 -30.581  0.00  0.00    -0.147 NA
BRANCH   4  13
ATOM     10  C   UNL     1      36.482 -35.757 -30.014  0.00  0.00    -0.062 A 
ATOM     11  C   UNL     1      35.415 -35.983 -29.151  0.00  0.00    -0.061 A 
ATOM     12  C   UNL     1      34.379 -35.048 -29.054  0.00  0.00    -0.053 A 
ATOM     13  C   UNL     1      34.383 -33.867 -29.820  0.00  0.00    +0.002 A 
ATOM     14  C   UNL     1      35.480 -33.661 -30.678  0.00  0.00    -0.053 A 
ATOM     15  C   UNL     1      36.517 -34.595 -30.778  0.00  0.00    -0.061 A 
ENDBRANCH   4  13
ENDBRANCH   2   7
ENDBRANCH   1   2
BRANCH   1  16
ATOM     16  C   UNL     1      28.246 -30.228 -30.878  0.00  0.00    -0.037 C 
BRANCH  16  17
ATOM     17  C   UNL     1      28.988 -30.961 -31.998  0.00  0.00    -0.050 C 
BRANCH  17  18
ATOM     18  C   UNL     1      28.365 -32.333 -32.274  0.00  0.00    -0.040 C 
BRANCH  18  19
ATOM     19  C   UNL     1      28.512 -33.262 -31.061  0.00  0.00    -0.001 C 
BRANCH  19  20
ATOM     20  N   UNL     1      29.407 -34.398 -31.326  0.00  0.00    -0.298 N 
ATOM     21  C   UNL     1      29.780 -35.121 -30.098  0.00  0.00    +0.003 C 
ATOM     22  C   UNL     1      30.558 -36.401 -30.436  0.00  0.00    -0.015 C 
ATOM     23  C   UNL     1      31.681 -36.159 -31.410  0.00  0.00    -0.042 A 
ATOM     24  C   UNL     1      32.684 -37.122 -31.586  0.00  0.00    -0.058 A 
ATOM     25  C   UNL     1      33.704 -36.914 -32.513  0.00  0.00    -0.061 A 
ATOM     26  C   UNL     1      33.726 -35.749 -33.276  0.00  0.00    -0.061 A 
ATOM     27  C   UNL     1      32.725 -34.790 -33.115  0.00  0.00    -0.057 A 
ATOM     28  C   UNL     1      31.686 -34.992 -32.193  0.00  0.00    -0.030 A 
ATOM     29  C   UNL     1      30.634 -33.922 -31.999  0.00  0.00    +0.024 C 
ATOM     30  H   UNL     1      28.897 -35.048 -31.925  0.00  0.00    +0.000 HD
ENDBRANCH  19  20
ENDBRANCH  18  19
ENDBRANCH  17  18
ENDBRANCH  16  17
ENDBRANCH   1  16
TORSDOF 8
ENDMDL
MODEL 15
REMARK VINA RESULT:    -7.238     21.371     23.910
REMARK INTER + INTRA:         -11.034
REMARK INTER:                  -6.798
REMARK INTRA:                  -4.236
REMARK UNBOUND:                -0.411
REMARK  Name = cpd267.pdb
REMARK  8 active torsions:
REMARK  status: ('A' for Active; 'I' for Inactive)
REMARK    1  A    between atoms: C_4  and  C_5
REMARK    2  A    between atoms: C_8  and  N_9
REMARK    3  A    between atoms: N_9  and  C_10
REMARK    4  A    between atoms: C_10  and  C_11
REMARK    5  A    between atoms: C_11  and  C_12
REMARK    6  A    between atoms: C_12  and  C_13
REMARK    7  A    between atoms: C_13  and  C_14
REMARK    8  A    between atoms: C_14  and  N_15
REMARK                            x       y       z     vdW  Elec       q    Type
REMARK                         _______ _______ _______ _____ _____    ______ ____
ROOT
ATOM      1  C   UNL     1      45.413 -12.651 -41.029  0.00  0.00    +0.010 C 
ENDROOT
BRANCH   1   2
ATOM      2  N   UNL     1      44.277 -13.509 -41.355  0.00  0.00    -0.328 N 
ATOM      3  H   UNL     1      43.403 -13.142 -41.622  0.00  0.00    +0.000 HD
BRANCH   2   7
ATOM      4  C   UNL     1      45.123 -17.573 -41.093  0.00  0.00    +0.093 A 
ATOM      5  C   UNL     1      43.815 -17.182 -41.340  0.00  0.00    -0.031 A 
ATOM      6  C   UNL     1      43.508 -15.823 -41.426  0.00  0.00    -0.018 A 
ATOM      7  C   UNL     1      44.510 -14.884 -41.263  0.00  0.00    +0.141 A 
ATOM      8  N   UNL     1      45.776 -15.288 -41.048  0.00  0.00    -0.134 NA
ATOM      9  N   UNL     1      46.083 -16.632 -40.954  0.00  0.00    -0.147 NA
BRANCH   4  13
ATOM     10  C   UNL     1      46.422 -21.668 -40.780  0.00  0.00    -0.062 A 
ATOM     11  C   UNL     1      45.064 -21.373 -40.826  0.00  0.00    -0.061 A 
ATOM     12  C   UNL     1      44.636 -20.045 -40.925  0.00  0.00    -0.053 A 
ATOM     13  C   UNL     1      45.556 -18.981 -40.984  0.00  0.00    +0.002 A 
ATOM     14  C   UNL     1      46.924 -19.309 -40.926  0.00  0.00    -0.053 A 
ATOM     15  C   UNL     1      47.354 -20.636 -40.828  0.00  0.00    -0.061 A 
ENDBRANCH   4  13
ENDBRANCH   2   7
ENDBRANCH   1   2
BRANCH   1  16
ATOM     16  C   UNL     1      45.224 -12.047 -39.638  0.00  0.00    -0.037 C 
BRANCH  16  17
ATOM     17  C   UNL     1      46.549 -11.974 -38.877  0.00  0.00    -0.050 C 
BRANCH  17  18
ATOM     18  C   UNL     1      46.564 -12.941 -37.690  0.00  0.00    -0.040 C 
BRANCH  18  19
ATOM     19  C   UNL     1      47.371 -14.205 -38.016  0.00  0.00    -0.001 C 
BRANCH  19  20
ATOM     20  N   UNL     1      46.528 -15.407 -38.103  0.00  0.00    -0.298 N 
ATOM     21  C   UNL     1      45.253 -15.255 -37.382  0.00  0.00    +0.003 C 
ATOM     22  C   UNL     1      44.330 -16.453 -37.651  0.00  0.00    -0.015 C 
ATOM     23  C   UNL     1      45.025 -17.777 -37.465  0.00  0.00    -0.042 A 
ATOM     24  C   UNL     1      44.279 -18.957 -37.352  0.00  0.00    -0.058 A 
ATOM     25  C   UNL     1      44.923 -20.186 -37.216  0.00  0.00    -0.061 A 
ATOM     26  C   UNL     1      46.314 -20.246 -37.199  0.00  0.00    -0.061 A 
ATOM     27  C   UNL     1      47.065 -19.077 -37.321  0.00  0.00    -0.057 A 
ATOM     28  C   UNL     1      46.429 -17.834 -37.470  0.00  0.00    -0.030 A 
ATOM     29  C   UNL     1      47.258 -16.571 -37.557  0.00  0.00    +0.024 C 
ATOM     30  H   UNL     1      46.310 -15.550 -39.089  0.00  0.00    +0.000 HD
ENDBRANCH  19  20
ENDBRANCH  18  19
ENDBRANCH  17  18
ENDBRANCH  16  17
ENDBRANCH   1  16
TORSDOF 8
ENDMDL
MODEL 16
REMARK VINA RESULT:    -7.185     18.811     21.378
REMARK INTER + INTRA:         -10.956
REMARK INTER:                  -6.950
REMARK INTRA:                  -4.006
REMARK UNBOUND:                -0.411
REMARK  Name = cpd267.pdb
REMARK  8 active torsions:
REMARK  status: ('A' for Active; 'I' for Inactive)
REMARK    1  A    between atoms: C_4  and  C_5
REMARK    2  A    between atoms: C_8  and  N_9
REMARK    3  A    between atoms: N_9  and  C_10
REMARK    4  A    between atoms: C_10  and  C_11
REMARK    5  A    between atoms: C_11  and  C_12
REMARK    6  A    between atoms: C_12  and  C_13
REMARK    7  A    between atoms: C_13  and  C_14
REMARK    8  A    between atoms: C_14  and  N_15
REMARK                            x       y       z     vdW  Elec       q    Type
REMARK                         _______ _______ _______ _____ _____    ______ ____
ROOT
ATOM      1  C   UNL     1      41.784 -20.760 -33.639  0.00  0.00    +0.010 C 
ENDROOT
BRANCH   1   2
ATOM      2  N   UNL     1      43.223 -20.990 -33.731  0.00  0.00    -0.328 N 
ATOM      3  H   UNL     1      43.645 -21.813 -33.392  0.00  0.00    +0.000 HD
BRANCH   2   7
ATOM      4  C   UNL     1      45.295 -17.870 -35.541  0.00  0.00    +0.093 A 
ATOM      5  C   UNL     1      45.956 -19.071 -35.329  0.00  0.00    -0.031 A 
ATOM      6  C   UNL     1      45.282 -20.130 -34.717  0.00  0.00    -0.018 A 
ATOM      7  C   UNL     1      43.963 -19.968 -34.331  0.00  0.00    +0.141 A 
ATOM      8  N   UNL     1      43.336 -18.801 -34.568  0.00  0.00    -0.134 NA
ATOM      9  N   UNL     1      44.002 -17.748 -35.167  0.00  0.00    -0.147 NA
BRANCH   4  13
ATOM     10  C   UNL     1      47.130 -14.447 -37.404  0.00  0.00    -0.062 A 
ATOM     11  C   UNL     1      45.820 -14.367 -36.943  0.00  0.00    -0.061 A 
ATOM     12  C   UNL     1      45.218 -15.476 -36.340  0.00  0.00    -0.053 A 
ATOM     13  C   UNL     1      45.912 -16.690 -36.179  0.00  0.00    +0.002 A 
ATOM     14  C   UNL     1      47.233 -16.745 -36.664  0.00  0.00    -0.053 A 
ATOM     15  C   UNL     1      47.837 -15.637 -37.267  0.00  0.00    -0.061 A 
ENDBRANCH   4  13
ENDBRANCH   2   7
ENDBRANCH   1   2
BRANCH   1  16
ATOM     16  C   UNL     1      41.039 -21.802 -34.473  0.00  0.00    -0.037 C 
BRANCH  16  17
ATOM     17  C   UNL     1      40.301 -21.153 -35.646  0.00  0.00    -0.050 C 
BRANCH  17  18
ATOM     18  C   UNL     1      41.271 -20.756 -36.762  0.00  0.00    -0.040 C 
BRANCH  18  19
ATOM     19  C   UNL     1      41.038 -19.306 -37.209  0.00  0.00    -0.001 C 
BRANCH  19  20
ATOM     20  N   UNL     1      42.267 -18.659 -37.692  0.00  0.00    -0.298 N 
ATOM     21  C   UNL     1      42.014 -17.716 -38.793  0.00  0.00    +0.003 C 
ATOM     22  C   UNL     1      43.287 -16.930 -39.140  0.00  0.00    -0.015 C 
ATOM     23  C   UNL     1      44.490 -17.820 -39.315  0.00  0.00    -0.042 A 
ATOM     24  C   UNL     1      45.646 -17.331 -39.938  0.00  0.00    -0.058 A 
ATOM     25  C   UNL     1      46.772 -18.144 -40.068  0.00  0.00    -0.061 A 
ATOM     26  C   UNL     1      46.754 -19.444 -39.571  0.00  0.00    -0.061 A 
ATOM     27  C   UNL     1      45.611 -19.935 -38.940  0.00  0.00    -0.057 A 
ATOM     28  C   UNL     1      44.474 -19.124 -38.793  0.00  0.00    -0.030 A 
ATOM     29  C   UNL     1      43.228 -19.688 -38.146  0.00  0.00    +0.024 C 
ATOM     30  H   UNL     1      42.653 -18.128 -36.911  0.00  0.00    +0.000 HD
ENDBRANCH  19  20
ENDBRANCH  18  19
ENDBRANCH  17  18
ENDBRANCH  16  17
ENDBRANCH   1  16
TORSDOF 8
ENDMDL
MODEL 17
REMARK VINA RESULT:    -7.182     18.821     21.007
REMARK INTER + INTRA:         -10.953
REMARK INTER:                  -6.954
REMARK INTRA:                  -3.998
REMARK UNBOUND:                -0.411
REMARK  Name = cpd267.pdb
REMARK  8 active torsions:
REMARK  status: ('A' for Active; 'I' for Inactive)
REMARK    1  A    between atoms: C_4  and  C_5
REMARK    2  A    between atoms: C_8  and  N_9
REMARK    3  A    between atoms: N_9  and  C_10
REMARK    4  A    between atoms: C_10  and  C_11
REMARK    5  A    between atoms: C_11  and  C_12
REMARK    6  A    between atoms: C_12  and  C_13
REMARK    7  A    between atoms: C_13  and  C_14
REMARK    8  A    between atoms: C_14  and  N_15
REMARK                            x       y       z     vdW  Elec       q    Type
REMARK                         _______ _______ _______ _____ _____    ______ ____
ROOT
ATOM      1  C   UNL     1      45.174 -17.437 -33.693  0.00  0.00    +0.010 C 
ENDROOT
BRANCH   1   2
ATOM      2  N   UNL     1      46.263 -17.420 -34.666  0.00  0.00    -0.328 N 
ATOM      3  H   UNL     1      47.126 -16.984 -34.480  0.00  0.00    +0.000 HD
BRANCH   2   7
ATOM      4  C   UNL     1      45.424 -19.201 -38.331  0.00  0.00    +0.093 A 
ATOM      5  C   UNL     1      45.733 -20.017 -37.252  0.00  0.00    -0.031 A 
ATOM      6  C   UNL     1      46.024 -19.439 -36.014  0.00  0.00    -0.018 A 
ATOM      7  C   UNL     1      46.000 -18.063 -35.879  0.00  0.00    +0.141 A 
ATOM      8  N   UNL     1      45.674 -17.294 -36.934  0.00  0.00    -0.134 NA
ATOM      9  N   UNL     1      45.393 -17.860 -38.164  0.00  0.00    -0.147 NA
BRANCH   4  13
ATOM     10  C   UNL     1      44.486 -20.711 -42.255  0.00  0.00    -0.062 A 
ATOM     11  C   UNL     1      44.531 -19.339 -42.032  0.00  0.00    -0.061 A 
ATOM     12  C   UNL     1      44.832 -18.843 -40.759  0.00  0.00    -0.053 A 
ATOM     13  C   UNL     1      45.100 -19.706 -39.680  0.00  0.00    +0.002 A 
ATOM     14  C   UNL     1      45.038 -21.090 -39.933  0.00  0.00    -0.053 A 
ATOM     15  C   UNL     1      44.738 -21.589 -41.205  0.00  0.00    -0.061 A 
ENDBRANCH   4  13
ENDBRANCH   2   7
ENDBRANCH   1   2
BRANCH   1  16
ATOM     16  C   UNL     1      44.311 -16.187 -33.859  0.00  0.00    -0.037 C 
BRANCH  16  17
ATOM     17  C   UNL     1      42.872 -16.439 -33.405  0.00  0.00    -0.050 C 
BRANCH  17  18
ATOM     18  C   UNL     1      42.010 -16.969 -34.555  0.00  0.00    -0.040 C 
BRANCH  18  19
ATOM     19  C   UNL     1      42.501 -16.434 -35.907  0.00  0.00    -0.001 C 
BRANCH  19  20
ATOM     20  N   UNL     1      42.461 -17.454 -36.966  0.00  0.00    -0.298 N 
ATOM     21  C   UNL     1      41.468 -17.146 -38.009  0.00  0.00    +0.003 C 
ATOM     22  C   UNL     1      41.588 -18.132 -39.181  0.00  0.00    -0.015 C 
ATOM     23  C   UNL     1      41.629 -19.569 -38.731  0.00  0.00    -0.042 A 
ATOM     24  C   UNL     1      41.414 -20.604 -39.651  0.00  0.00    -0.058 A 
ATOM     25  C   UNL     1      41.487 -21.935 -39.242  0.00  0.00    -0.061 A 
ATOM     26  C   UNL     1      41.782 -22.242 -37.916  0.00  0.00    -0.061 A 
ATOM     27  C   UNL     1      42.007 -21.217 -36.996  0.00  0.00    -0.057 A 
ATOM     28  C   UNL     1      41.948 -19.873 -37.397  0.00  0.00    -0.030 A 
ATOM     29  C   UNL     1      42.151 -18.774 -36.376  0.00  0.00    +0.024 C 
ATOM     30  H   UNL     1      43.381 -17.465 -37.407  0.00  0.00    +0.000 HD
ENDBRANCH  19  20
ENDBRANCH  18  19
ENDBRANCH  17  18
ENDBRANCH  16  17
ENDBRANCH   1  16
TORSDOF 8
ENDMDL
MODEL 18
REMARK VINA RESULT:    -7.144     18.180     20.814
REMARK INTER + INTRA:         -10.897
REMARK INTER:                  -6.870
REMARK INTRA:                  -4.027
REMARK UNBOUND:                -0.411
REMARK  Name = cpd267.pdb
REMARK  8 active torsions:
REMARK  status: ('A' for Active; 'I' for Inactive)
REMARK    1  A    between atoms: C_4  and  C_5
REMARK    2  A    between atoms: C_8  and  N_9
REMARK    3  A    between atoms: N_9  and  C_10
REMARK    4  A    between atoms: C_10  and  C_11
REMARK    5  A    between atoms: C_11  and  C_12
REMARK    6  A    between atoms: C_12  and  C_13
REMARK    7  A    between atoms: C_13  and  C_14
REMARK    8  A    between atoms: C_14  and  N_15
REMARK                            x       y       z     vdW  Elec       q    Type
REMARK                         _______ _______ _______ _____ _____    ______ ____
ROOT
ATOM      1  C   UNL     1      41.852 -19.559 -32.811  0.00  0.00    +0.010 C 
ENDROOT
BRANCH   1   2
ATOM      2  N   UNL     1      43.310 -19.483 -32.818  0.00  0.00    -0.328 N 
ATOM      3  H   UNL     1      43.851 -19.724 -32.031  0.00  0.00    +0.000 HD
BRANCH   2   7
ATOM      4  C   UNL     1      45.114 -18.310 -36.378  0.00  0.00    +0.093 A 
ATOM      5  C   UNL     1      44.397 -17.367 -35.655  0.00  0.00    -0.031 A 
ATOM      6  C   UNL     1      43.778 -17.741 -34.461  0.00  0.00    -0.018 A 
ATOM      7  C   UNL     1      43.888 -19.045 -34.013  0.00  0.00    +0.141 A 
ATOM      8  N   UNL     1      44.609 -19.935 -34.719  0.00  0.00    -0.134 NA
ATOM      9  N   UNL     1      45.217 -19.572 -35.906  0.00  0.00    -0.147 NA
BRANCH   4  13
ATOM     10  C   UNL     1      47.121 -17.431 -40.087  0.00  0.00    -0.062 A 
ATOM     11  C   UNL     1      47.110 -18.732 -39.595  0.00  0.00    -0.061 A 
ATOM     12  C   UNL     1      46.462 -19.023 -38.390  0.00  0.00    -0.053 A 
ATOM     13  C   UNL     1      45.807 -18.021 -37.650  0.00  0.00    +0.002 A 
ATOM     14  C   UNL     1      45.843 -16.712 -38.167  0.00  0.00    -0.053 A 
ATOM     15  C   UNL     1      46.489 -16.419 -39.372  0.00  0.00    -0.061 A 
ENDBRANCH   4  13
ENDBRANCH   2   7
ENDBRANCH   1   2
BRANCH   1  16
ATOM     16  C   UNL     1      41.403 -20.942 -33.285  0.00  0.00    -0.037 C 
BRANCH  16  17
ATOM     17  C   UNL     1      40.087 -20.865 -34.060  0.00  0.00    -0.050 C 
BRANCH  17  18
ATOM     18  C   UNL     1      40.317 -20.414 -35.505  0.00  0.00    -0.040 C 
BRANCH  18  19
ATOM     19  C   UNL     1      41.596 -21.036 -36.082  0.00  0.00    -0.001 C 
BRANCH  19  20
ATOM     20  N   UNL     1      42.237 -20.177 -37.089  0.00  0.00    -0.298 N 
ATOM     21  C   UNL     1      41.369 -19.067 -37.519  0.00  0.00    +0.003 C 
ATOM     22  C   UNL     1      42.139 -18.095 -38.425  0.00  0.00    -0.015 C 
ATOM     23  C   UNL     1      42.887 -18.796 -39.529  0.00  0.00    -0.042 A 
ATOM     24  C   UNL     1      43.373 -18.071 -40.625  0.00  0.00    -0.058 A 
ATOM     25  C   UNL     1      44.097 -18.714 -41.629  0.00  0.00    -0.061 A 
ATOM     26  C   UNL     1      44.346 -20.081 -41.542  0.00  0.00    -0.061 A 
ATOM     27  C   UNL     1      43.874 -20.809 -40.449  0.00  0.00    -0.057 A 
ATOM     28  C   UNL     1      43.154 -20.172 -39.426  0.00  0.00    -0.030 A 
ATOM     29  C   UNL     1      42.612 -20.984 -38.270  0.00  0.00    +0.024 C 
ATOM     30  H   UNL     1      43.065 -19.771 -36.654  0.00  0.00    +0.000 HD
ENDBRANCH  19  20
ENDBRANCH  18  19
ENDBRANCH  17  18
ENDBRANCH  16  17
ENDBRANCH   1  16
TORSDOF 8
ENDMDL
MODEL 19
REMARK VINA RESULT:    -7.142      7.058     10.060
REMARK INTER + INTRA:         -10.894
REMARK INTER:                  -7.241
REMARK INTRA:                  -3.652
REMARK UNBOUND:                -0.411
REMARK  Name = cpd267.pdb
REMARK  8 active torsions:
REMARK  status: ('A' for Active; 'I' for Inactive)
REMARK    1  A    between atoms: C_4  and  C_5
REMARK    2  A    between atoms: C_8  and  N_9
REMARK    3  A    between atoms: N_9  and  C_10
REMARK    4  A    between atoms: C_10  and  C_11
REMARK    5  A    between atoms: C_11  and  C_12
REMARK    6  A    between atoms: C_12  and  C_13
REMARK    7  A    between atoms: C_13  and  C_14
REMARK    8  A    between atoms: C_14  and  N_15
REMARK                            x       y       z     vdW  Elec       q    Type
REMARK                         _______ _______ _______ _____ _____    ______ ____
ROOT
ATOM      1  C   UNL     1      32.279 -42.791 -28.122  0.00  0.00    +0.010 C 
ENDROOT
BRANCH   1   2
ATOM      2  N   UNL     1      32.527 -42.261 -29.460  0.00  0.00    -0.328 N 
ATOM      3  H   UNL     1      31.952 -42.485 -30.227  0.00  0.00    +0.000 HD
BRANCH   2   7
ATOM      4  C   UNL     1      35.844 -39.759 -29.669  0.00  0.00    +0.093 A 
ATOM      5  C   UNL     1      34.981 -39.811 -30.755  0.00  0.00    -0.031 A 
ATOM      6  C   UNL     1      33.866 -40.649 -30.708  0.00  0.00    -0.018 A 
ATOM      7  C   UNL     1      33.633 -41.416 -29.581  0.00  0.00    +0.141 A 
ATOM      8  N   UNL     1      34.470 -41.331 -28.531  0.00  0.00    -0.134 NA
ATOM      9  N   UNL     1      35.581 -40.508 -28.575  0.00  0.00    -0.147 NA
BRANCH   4  13
ATOM     10  C   UNL     1      39.350 -37.260 -29.540  0.00  0.00    -0.062 A 
ATOM     11  C   UNL     1      39.164 -38.245 -28.575  0.00  0.00    -0.061 A 
ATOM     12  C   UNL     1      38.026 -39.057 -28.610  0.00  0.00    -0.053 A 
ATOM     13  C   UNL     1      37.049 -38.908 -29.613  0.00  0.00    +0.002 A 
ATOM     14  C   UNL     1      37.259 -37.897 -30.571  0.00  0.00    -0.053 A 
ATOM     15  C   UNL     1      38.397 -37.084 -30.538  0.00  0.00    -0.061 A 
ENDBRANCH   4  13
ENDBRANCH   2   7
ENDBRANCH   1   2
BRANCH   1  16
ATOM     16  C   UNL     1      31.070 -42.090 -27.503  0.00  0.00    -0.037 C 
BRANCH  16  17
ATOM     17  C   UNL     1      31.309 -41.764 -26.028  0.00  0.00    -0.050 C 
BRANCH  17  18
ATOM     18  C   UNL     1      31.519 -40.262 -25.816  0.00  0.00    -0.040 C 
BRANCH  18  19
ATOM     19  C   UNL     1      32.974 -39.954 -25.436  0.00  0.00    -0.001 C 
BRANCH  19  20
ATOM     20  N   UNL     1      33.645 -39.097 -26.425  0.00  0.00    -0.298 N 
ATOM     21  C   UNL     1      34.460 -38.042 -25.798  0.00  0.00    +0.003 C 
ATOM     22  C   UNL     1      35.285 -37.292 -26.854  0.00  0.00    -0.015 C 
ATOM     23  C   UNL     1      34.458 -36.854 -28.035  0.00  0.00    -0.042 A 
ATOM     24  C   UNL     1      34.955 -35.896 -28.928  0.00  0.00    -0.058 A 
ATOM     25  C   UNL     1      34.205 -35.517 -30.041  0.00  0.00    -0.061 A 
ATOM     26  C   UNL     1      32.960 -36.096 -30.274  0.00  0.00    -0.061 A 
ATOM     27  C   UNL     1      32.463 -37.059 -29.394  0.00  0.00    -0.057 A 
ATOM     28  C   UNL     1      33.213 -37.457 -28.276  0.00  0.00    -0.030 A 
ATOM     29  C   UNL     1      32.639 -38.471 -27.309  0.00  0.00    +0.024 C 
ATOM     30  H   UNL     1      34.273 -39.694 -26.963  0.00  0.00    +0.000 HD
ENDBRANCH  19  20
ENDBRANCH  18  19
ENDBRANCH  17  18
ENDBRANCH  16  17
ENDBRANCH   1  16
TORSDOF 8
ENDMDL
MODEL 20
REMARK VINA RESULT:    -6.978     17.791     20.597
REMARK INTER + INTRA:         -10.653
REMARK INTER:                  -6.758
REMARK INTRA:                  -3.895
REMARK UNBOUND:                -0.411
REMARK  Name = cpd267.pdb
REMARK  8 active torsions:
REMARK  status: ('A' for Active; 'I' for Inactive)
REMARK    1  A    between atoms: C_4  and  C_5
REMARK    2  A    between atoms: C_8  and  N_9
REMARK    3  A    between atoms: N_9  and  C_10
REMARK    4  A    between atoms: C_10  and  C_11
REMARK    5  A    between atoms: C_11  and  C_12
REMARK    6  A    between atoms: C_12  and  C_13
REMARK    7  A    between atoms: C_13  and  C_14
REMARK    8  A    between atoms: C_14  and  N_15
REMARK                            x       y       z     vdW  Elec       q    Type
REMARK                         _______ _______ _______ _____ _____    ______ ____
ROOT
ATOM      1  C   UNL     1      44.361 -20.765 -41.474  0.00  0.00    +0.010 C 
ENDROOT
BRANCH   1   2
ATOM      2  N   UNL     1      43.022 -21.329 -41.325  0.00  0.00    -0.328 N 
ATOM      3  H   UNL     1      42.506 -21.665 -42.094  0.00  0.00    +0.000 HD
BRANCH   2   7
ATOM      4  C   UNL     1      41.671 -21.397 -37.391  0.00  0.00    +0.093 A 
ATOM      5  C   UNL     1      40.836 -21.880 -38.389  0.00  0.00    -0.031 A 
ATOM      6  C   UNL     1      41.267 -21.861 -39.717  0.00  0.00    -0.018 A 
ATOM      7  C   UNL     1      42.520 -21.361 -40.021  0.00  0.00    +0.141 A 
ATOM      8  N   UNL     1      43.321 -20.919 -39.034  0.00  0.00    -0.134 NA
ATOM      9  N   UNL     1      42.896 -20.929 -37.719  0.00  0.00    -0.147 NA
BRANCH   4  13
ATOM     10  C   UNL     1      40.597 -21.334 -33.221  0.00  0.00    -0.062 A 
ATOM     11  C   UNL     1      41.866 -20.926 -33.616  0.00  0.00    -0.061 A 
ATOM     12  C   UNL     1      42.221 -20.946 -34.969  0.00  0.00    -0.053 A 
ATOM     13  C   UNL     1      41.315 -21.372 -35.959  0.00  0.00    +0.002 A 
ATOM     14  C   UNL     1      40.041 -21.788 -35.528  0.00  0.00    -0.053 A 
ATOM     15  C   UNL     1      39.683 -21.768 -34.176  0.00  0.00    -0.061 A 
ENDBRANCH   4  13
ENDBRANCH   2   7
ENDBRANCH   1   2
BRANCH   1  16
ATOM     16  C   UNL     1      44.329 -19.612 -42.478  0.00  0.00    -0.037 C 
BRANCH  16  17
ATOM     17  C   UNL     1      44.261 -18.258 -41.769  0.00  0.00    -0.050 C 
BRANCH  17  18
ATOM     18  C   UNL     1      44.881 -18.330 -40.371  0.00  0.00    -0.040 C 
BRANCH  18  19
ATOM     19  C   UNL     1      44.271 -17.273 -39.440  0.00  0.00    -0.001 C 
BRANCH  19  20
ATOM     20  N   UNL     1      43.095 -17.772 -38.712  0.00  0.00    -0.298 N 
ATOM     21  C   UNL     1      41.831 -17.459 -39.399  0.00  0.00    +0.003 C 
ATOM     22  C   UNL     1      40.649 -18.154 -38.707  0.00  0.00    -0.015 C 
ATOM     23  C   UNL     1      40.644 -17.945 -37.215  0.00  0.00    -0.042 A 
ATOM     24  C   UNL     1      39.493 -18.224 -36.466  0.00  0.00    -0.058 A 
ATOM     25  C   UNL     1      39.499 -18.065 -35.081  0.00  0.00    -0.061 A 
ATOM     26  C   UNL     1      40.654 -17.634 -34.434  0.00  0.00    -0.061 A 
ATOM     27  C   UNL     1      41.808 -17.364 -35.171  0.00  0.00    -0.057 A 
ATOM     28  C   UNL     1      41.818 -17.531 -36.564  0.00  0.00    -0.030 A 
ATOM     29  C   UNL     1      43.065 -17.192 -37.352  0.00  0.00    +0.024 C 
ATOM     30  H   UNL     1      43.180 -18.788 -38.667  0.00  0.00    +0.000 HD
ENDBRANCH  19  20
ENDBRANCH  18  19
ENDBRANCH  17  18
ENDBRANCH  16  17
ENDBRANCH   1  16
TORSDOF 8
ENDMDL
