MODEL 1
REMARK VINA RESULT:    -6.560      0.000      0.000
REMARK INTER + INTRA:          -9.839
REMARK INTER:                  -8.669
REMARK INTRA:                  -1.170
REMARK UNBOUND:                -1.170
REMARK  Name = cpd319.pdb
REMARK  9 active torsions:
REMARK  status: ('A' for Active; 'I' for Inactive)
REMARK    1  A    between atoms: C_1  and  C_2
REMARK    2  A    between atoms: C_2  and  N_3
REMARK    3  A    between atoms: N_3  and  C_4
REMARK    4  A    between atoms: N_3  and  C_6
REMARK    5  A    between atoms: C_4  and  C_5
REMARK    6  A    between atoms: C_6  and  C_7
REMARK    7  A    between atoms: C_15  and  O_16
REMARK    8  A    between atoms: C_21  and  O_22
REMARK    9  A    between atoms: O_22  and  C_23
REMARK                            x       y       z     vdW  Elec       q    Type
REMARK                         _______ _______ _______ _____ _____    ______ ____
ROOT
ATOM      1  C   UNL     1      34.449 -39.259 -27.814  0.00  0.00    +0.230 C 
ATOM      2  O   UNL     1      34.850 -39.338 -26.648  0.00  0.00    -0.274 OA
ATOM      3  N   UNL     1      35.345 -39.095 -28.871  0.00  0.00    -0.296 N 
ATOM      4  C   UNL     1      34.999 -39.147 -30.281  0.00  0.00    +0.016 C 
ATOM      5  C   UNL     1      34.673 -37.769 -30.852  0.00  0.00    -0.020 C 
ATOM      6  C   UNL     1      35.627 -36.626 -30.427  0.00  0.00    +0.056 C 
ATOM      7  C   UNL     1      35.083 -35.884 -29.210  0.00  0.00    -0.071 C 
ATOM      8  C   UNL     1      34.719 -34.592 -29.219  0.00  0.00    -0.059 C 
ATOM      9  C   UNL     1      34.787 -33.726 -30.437  0.00  0.00    +0.077 C 
ATOM     10  C   UNL     1      34.857 -34.535 -31.728  0.00  0.00    +0.015 C 
ATOM     11  C   UNL     1      35.867 -35.673 -31.639  0.00  0.00    +0.116 C 
ATOM     12  O   UNL     1      37.205 -35.138 -31.540  0.00  0.00    -0.484 OA
ATOM     13  C   UNL     1      37.902 -36.108 -30.858  0.00  0.00    +0.167 A 
ATOM     14  C   UNL     1      39.284 -36.189 -30.773  0.00  0.00    +0.162 A 
ATOM     15  C   UNL     1      39.816 -37.227 -30.006  0.00  0.00    -0.016 A 
ATOM     16  C   UNL     1      38.986 -38.131 -29.326  0.00  0.00    -0.053 A 
ATOM     17  C   UNL     1      37.585 -38.038 -29.401  0.00  0.00    -0.022 A 
ATOM     18  C   UNL     1      37.060 -37.016 -30.196  0.00  0.00    +0.016 A 
ATOM     19  C   UNL     1      36.767 -38.987 -28.548  0.00  0.00    +0.040 C 
ENDROOT
BRANCH   9  20
ATOM     20  O   UNL     1      33.607 -32.931 -30.486  0.00  0.00    -0.388 OA
ATOM     21  H   UNL     1      33.061 -33.113 -29.705  0.00  0.00    +0.000 HD
ENDBRANCH   9  20
BRANCH  14  22
ATOM     22  O   UNL     1      40.222 -35.383 -31.349  0.00  0.00    -0.491 OA
ATOM     23  C   UNL     1      41.589 -35.705 -31.130  0.00  0.00    +0.079 C 
ENDBRANCH  14  22
BRANCH   1  24
ATOM     24  C   UNL     1      32.936 -39.282 -28.119  0.00  0.00    +0.076 C 
BRANCH  24  25
ATOM     25  N   UNL     1      32.356 -37.918 -28.105  0.00  0.00    -0.295 N 
ATOM     26  H   UNL     1      33.093 -37.245 -28.312  0.00  0.00    +0.000 HD
BRANCH  25  28
ATOM     27  C   UNL     1      31.344 -36.462 -29.879  0.00  0.00    -0.052 C 
ATOM     28  C   UNL     1      31.333 -37.805 -29.157  0.00  0.00    -0.003 C 
ENDBRANCH  25  28
BRANCH  25  29
ATOM     29  C   UNL     1      31.857 -37.541 -26.775  0.00  0.00    -0.003 C 
ATOM     30  C   UNL     1      32.698 -36.408 -26.200  0.00  0.00    -0.052 C 
ENDBRANCH  25  29
ENDBRANCH  24  25
ENDBRANCH   1  24
TORSDOF 6
ENDMDL
MODEL 2
REMARK VINA RESULT:    -6.472      1.888      4.345
REMARK INTER + INTRA:          -9.723
REMARK INTER:                  -8.559
REMARK INTRA:                  -1.164
REMARK UNBOUND:                -1.170
REMARK  Name = cpd319.pdb
REMARK  9 active torsions:
REMARK  status: ('A' for Active; 'I' for Inactive)
REMARK    1  A    between atoms: C_1  and  C_2
REMARK    2  A    between atoms: C_2  and  N_3
REMARK    3  A    between atoms: N_3  and  C_4
REMARK    4  A    between atoms: N_3  and  C_6
REMARK    5  A    between atoms: C_4  and  C_5
REMARK    6  A    between atoms: C_6  and  C_7
REMARK    7  A    between atoms: C_15  and  O_16
REMARK    8  A    between atoms: C_21  and  O_22
REMARK    9  A    between atoms: O_22  and  C_23
REMARK                            x       y       z     vdW  Elec       q    Type
REMARK                         _______ _______ _______ _____ _____    ______ ____
ROOT
ATOM      1  C   UNL     1      33.510 -34.895 -31.290  0.00  0.00    +0.230 C 
ATOM      2  O   UNL     1      33.372 -34.688 -32.499  0.00  0.00    -0.274 OA
ATOM      3  N   UNL     1      34.762 -34.795 -30.683  0.00  0.00    -0.296 N 
ATOM      4  C   UNL     1      35.011 -34.863 -29.253  0.00  0.00    +0.016 C 
ATOM      5  C   UNL     1      35.325 -36.281 -28.783  0.00  0.00    -0.020 C 
ATOM      6  C   UNL     1      36.298 -37.084 -29.682  0.00  0.00    +0.056 C 
ATOM      7  C   UNL     1      35.533 -37.942 -30.685  0.00  0.00    -0.071 C 
ATOM      8  C   UNL     1      35.566 -39.283 -30.705  0.00  0.00    -0.059 C 
ATOM      9  C   UNL     1      36.346 -40.103 -29.727  0.00  0.00    +0.077 C 
ATOM     10  C   UNL     1      36.709 -39.323 -28.467  0.00  0.00    +0.015 C 
ATOM     11  C   UNL     1      37.250 -37.934 -28.786  0.00  0.00    +0.116 C 
ATOM     12  O   UNL     1      38.526 -38.046 -29.454  0.00  0.00    -0.484 OA
ATOM     13  C   UNL     1      38.602 -36.905 -30.219  0.00  0.00    +0.167 A 
ATOM     14  C   UNL     1      39.757 -36.415 -30.812  0.00  0.00    +0.162 A 
ATOM     15  C   UNL     1      39.635 -35.257 -31.583  0.00  0.00    -0.016 A 
ATOM     16  C   UNL     1      38.392 -34.635 -31.775  0.00  0.00    -0.053 A 
ATOM     17  C   UNL     1      37.221 -35.142 -31.185  0.00  0.00    -0.022 A 
ATOM     18  C   UNL     1      37.355 -36.283 -30.388  0.00  0.00    +0.016 A 
ATOM     19  C   UNL     1      35.907 -34.472 -31.533  0.00  0.00    +0.040 C 
ENDROOT
BRANCH   9  20
ATOM     20  O   UNL     1      35.547 -41.213 -29.335  0.00  0.00    -0.388 OA
ATOM     21  H   UNL     1      34.790 -41.296 -29.937  0.00  0.00    +0.000 HD
ENDBRANCH   9  20
BRANCH  14  22
ATOM     22  O   UNL     1      41.026 -36.910 -30.744  0.00  0.00    -0.491 OA
ATOM     23  C   UNL     1      42.093 -35.975 -30.679  0.00  0.00    +0.079 C 
ENDBRANCH  14  22
BRANCH   1  24
ATOM     24  C   UNL     1      32.301 -35.327 -30.432  0.00  0.00    +0.076 C 
BRANCH  24  25
ATOM     25  N   UNL     1      32.135 -36.800 -30.426  0.00  0.00    -0.295 N 
ATOM     26  H   UNL     1      33.039 -37.234 -30.611  0.00  0.00    +0.000 HD
BRANCH  25  28
ATOM     27  C   UNL     1      32.403 -38.490 -28.591  0.00  0.00    -0.052 C 
ATOM     28  C   UNL     1      31.686 -37.242 -29.096  0.00  0.00    -0.003 C 
ENDBRANCH  25  28
BRANCH  25  29
ATOM     29  C   UNL     1      31.259 -37.264 -31.511  0.00  0.00    -0.003 C 
ATOM     30  C   UNL     1      31.987 -38.290 -32.371  0.00  0.00    -0.052 C 
ENDBRANCH  25  29
ENDBRANCH  24  25
ENDBRANCH   1  24
TORSDOF 6
ENDMDL
MODEL 3
REMARK VINA RESULT:    -6.455      2.330      4.364
REMARK INTER + INTRA:          -9.700
REMARK INTER:                  -9.059
REMARK INTRA:                  -0.641
REMARK UNBOUND:                -1.170
REMARK  Name = cpd319.pdb
REMARK  9 active torsions:
REMARK  status: ('A' for Active; 'I' for Inactive)
REMARK    1  A    between atoms: C_1  and  C_2
REMARK    2  A    between atoms: C_2  and  N_3
REMARK    3  A    between atoms: N_3  and  C_4
REMARK    4  A    between atoms: N_3  and  C_6
REMARK    5  A    between atoms: C_4  and  C_5
REMARK    6  A    between atoms: C_6  and  C_7
REMARK    7  A    between atoms: C_15  and  O_16
REMARK    8  A    between atoms: C_21  and  O_22
REMARK    9  A    between atoms: O_22  and  C_23
REMARK                            x       y       z     vdW  Elec       q    Type
REMARK                         _______ _______ _______ _____ _____    ______ ____
ROOT
ATOM      1  C   UNL     1      33.863 -35.375 -31.726  0.00  0.00    +0.230 C 
ATOM      2  O   UNL     1      33.742 -35.458 -32.952  0.00  0.00    -0.274 OA
ATOM      3  N   UNL     1      35.099 -35.090 -31.145  0.00  0.00    -0.296 N 
ATOM      4  C   UNL     1      35.321 -34.817 -29.735  0.00  0.00    +0.016 C 
ATOM      5  C   UNL     1      35.677 -36.076 -28.947  0.00  0.00    -0.020 C 
ATOM      6  C   UNL     1      36.695 -37.026 -29.626  0.00  0.00    +0.056 C 
ATOM      7  C   UNL     1      35.981 -38.121 -30.413  0.00  0.00    -0.071 C 
ATOM      8  C   UNL     1      36.061 -39.428 -30.123  0.00  0.00    -0.059 C 
ATOM      9  C   UNL     1      36.851 -39.970 -28.973  0.00  0.00    +0.077 C 
ATOM     10  C   UNL     1      37.160 -38.907 -27.923  0.00  0.00    +0.015 C 
ATOM     11  C   UNL     1      37.659 -37.609 -28.548  0.00  0.00    +0.116 C 
ATOM     12  O   UNL     1      38.951 -37.821 -29.158  0.00  0.00    -0.484 OA
ATOM     13  C   UNL     1      39.001 -36.885 -30.164  0.00  0.00    +0.167 A 
ATOM     14  C   UNL     1      40.149 -36.500 -30.842  0.00  0.00    +0.162 A 
ATOM     15  C   UNL     1      40.002 -35.556 -31.860  0.00  0.00    -0.016 A 
ATOM     16  C   UNL     1      38.742 -35.044 -32.203  0.00  0.00    -0.053 A 
ATOM     17  C   UNL     1      37.578 -35.447 -31.526  0.00  0.00    -0.022 A 
ATOM     18  C   UNL     1      37.737 -36.368 -30.486  0.00  0.00    +0.016 A 
ATOM     19  C   UNL     1      36.248 -34.926 -32.034  0.00  0.00    +0.040 C 
ENDROOT
BRANCH   9  20
ATOM     20  O   UNL     1      36.084 -40.990 -28.345  0.00  0.00    -0.388 OA
ATOM     21  H   UNL     1      35.430 -40.585 -27.752  0.00  0.00    +0.000 HD
ENDBRANCH   9  20
BRANCH  14  22
ATOM     22  O   UNL     1      41.434 -36.916 -30.647  0.00  0.00    -0.491 OA
ATOM     23  C   UNL     1      42.392 -36.576 -31.640  0.00  0.00    +0.079 C 
ENDBRANCH  14  22
BRANCH   1  24
ATOM     24  C   UNL     1      32.654 -35.646 -30.805  0.00  0.00    +0.076 C 
BRANCH  24  25
ATOM     25  N   UNL     1      31.660 -34.547 -30.873  0.00  0.00    -0.295 N 
ATOM     26  H   UNL     1      31.900 -33.934 -31.651  0.00  0.00    +0.000 HD
BRANCH  25  28
ATOM     27  C   UNL     1      29.831 -34.873 -32.558  0.00  0.00    -0.052 C 
ATOM     28  C   UNL     1      30.324 -35.105 -31.134  0.00  0.00    -0.003 C 
ENDBRANCH  25  28
BRANCH  25  29
ATOM     29  C   UNL     1      31.702 -33.687 -29.682  0.00  0.00    -0.003 C 
ATOM     30  C   UNL     1      31.920 -34.531 -28.432  0.00  0.00    -0.052 C 
ENDBRANCH  25  29
ENDBRANCH  24  25
ENDBRANCH   1  24
TORSDOF 6
ENDMDL
MODEL 4
REMARK VINA RESULT:    -6.186     17.203     19.989
REMARK INTER + INTRA:          -9.345
REMARK INTER:                  -8.547
REMARK INTRA:                  -0.798
REMARK UNBOUND:                -1.170
REMARK  Name = cpd319.pdb
REMARK  9 active torsions:
REMARK  status: ('A' for Active; 'I' for Inactive)
REMARK    1  A    between atoms: C_1  and  C_2
REMARK    2  A    between atoms: C_2  and  N_3
REMARK    3  A    between atoms: N_3  and  C_4
REMARK    4  A    between atoms: N_3  and  C_6
REMARK    5  A    between atoms: C_4  and  C_5
REMARK    6  A    between atoms: C_6  and  C_7
REMARK    7  A    between atoms: C_15  and  O_16
REMARK    8  A    between atoms: C_21  and  O_22
REMARK    9  A    between atoms: O_22  and  C_23
REMARK                            x       y       z     vdW  Elec       q    Type
REMARK                         _______ _______ _______ _____ _____    ______ ____
ROOT
ATOM      1  C   UNL     1      41.044 -21.911 -36.237  0.00  0.00    +0.230 C 
ATOM      2  O   UNL     1      41.106 -23.140 -36.345  0.00  0.00    -0.274 OA
ATOM      3  N   UNL     1      41.515 -21.077 -37.252  0.00  0.00    -0.296 N 
ATOM      4  C   UNL     1      41.350 -19.635 -37.298  0.00  0.00    +0.016 C 
ATOM      5  C   UNL     1      42.530 -18.893 -36.672  0.00  0.00    -0.020 C 
ATOM      6  C   UNL     1      43.933 -19.431 -37.047  0.00  0.00    +0.056 C 
ATOM      7  C   UNL     1      44.434 -20.426 -36.005  0.00  0.00    -0.071 C 
ATOM      8  C   UNL     1      45.517 -20.230 -35.237  0.00  0.00    -0.059 C 
ATOM      9  C   UNL     1      46.357 -18.993 -35.300  0.00  0.00    +0.077 C 
ATOM     10  C   UNL     1      45.628 -17.822 -35.953  0.00  0.00    +0.015 C 
ATOM     11  C   UNL     1      44.914 -18.233 -37.235  0.00  0.00    +0.116 C 
ATOM     12  O   UNL     1      45.883 -18.592 -38.245  0.00  0.00    -0.484 OA
ATOM     13  C   UNL     1      45.216 -19.492 -39.042  0.00  0.00    +0.167 A 
ATOM     14  C   UNL     1      45.623 -19.898 -40.305  0.00  0.00    +0.162 A 
ATOM     15  C   UNL     1      44.832 -20.848 -40.955  0.00  0.00    -0.016 A 
ATOM     16  C   UNL     1      43.693 -21.392 -40.342  0.00  0.00    -0.053 A 
ATOM     17  C   UNL     1      43.291 -20.990 -39.056  0.00  0.00    -0.022 A 
ATOM     18  C   UNL     1      44.068 -20.015 -38.425  0.00  0.00    +0.016 A 
ATOM     19  C   UNL     1      42.112 -21.707 -38.428  0.00  0.00    +0.040 C 
ENDROOT
BRANCH   9  20
ATOM     20  O   UNL     1      46.688 -18.610 -33.970  0.00  0.00    -0.388 OA
ATOM     21  H   UNL     1      46.794 -17.646 -33.928  0.00  0.00    +0.000 HD
ENDBRANCH   9  20
BRANCH  14  22
ATOM     22  O   UNL     1      46.708 -19.488 -41.023  0.00  0.00    -0.491 OA
ATOM     23  C   UNL     1      47.279 -20.415 -41.936  0.00  0.00    +0.079 C 
ENDBRANCH  14  22
BRANCH   1  24
ATOM     24  C   UNL     1      40.495 -21.270 -34.944  0.00  0.00    +0.076 C 
BRANCH  24  25
ATOM     25  N   UNL     1      41.255 -21.711 -33.751  0.00  0.00    -0.295 N 
ATOM     26  H   UNL     1      41.991 -22.351 -34.048  0.00  0.00    +0.000 HD
BRANCH  25  28
ATOM     27  C   UNL     1      41.055 -19.279 -33.170  0.00  0.00    -0.052 C 
ATOM     28  C   UNL     1      41.898 -20.549 -33.117  0.00  0.00    -0.003 C 
ENDBRANCH  25  28
BRANCH  25  29
ATOM     29  C   UNL     1      40.425 -22.488 -32.820  0.00  0.00    -0.003 C 
ATOM     30  C   UNL     1      41.295 -23.109 -31.734  0.00  0.00    -0.052 C 
ENDBRANCH  25  29
ENDBRANCH  24  25
ENDBRANCH   1  24
TORSDOF 6
ENDMDL
MODEL 5
REMARK VINA RESULT:    -5.952      2.445      4.780
REMARK INTER + INTRA:          -9.035
REMARK INTER:                  -8.449
REMARK INTRA:                  -0.586
REMARK UNBOUND:                -1.170
REMARK  Name = cpd319.pdb
REMARK  9 active torsions:
REMARK  status: ('A' for Active; 'I' for Inactive)
REMARK    1  A    between atoms: C_1  and  C_2
REMARK    2  A    between atoms: C_2  and  N_3
REMARK    3  A    between atoms: N_3  and  C_4
REMARK    4  A    between atoms: N_3  and  C_6
REMARK    5  A    between atoms: C_4  and  C_5
REMARK    6  A    between atoms: C_6  and  C_7
REMARK    7  A    between atoms: C_15  and  O_16
REMARK    8  A    between atoms: C_21  and  O_22
REMARK    9  A    between atoms: O_22  and  C_23
REMARK                            x       y       z     vdW  Elec       q    Type
REMARK                         _______ _______ _______ _____ _____    ______ ____
ROOT
ATOM      1  C   UNL     1      33.019 -34.836 -31.290  0.00  0.00    +0.230 C 
ATOM      2  O   UNL     1      32.995 -35.136 -32.488  0.00  0.00    -0.274 OA
ATOM      3  N   UNL     1      34.215 -34.846 -30.573  0.00  0.00    -0.296 N 
ATOM      4  C   UNL     1      34.383 -34.363 -29.213  0.00  0.00    +0.016 C 
ATOM      5  C   UNL     1      34.201 -35.469 -28.176  0.00  0.00    -0.020 C 
ATOM      6  C   UNL     1      34.886 -36.819 -28.509  0.00  0.00    +0.056 C 
ATOM      7  C   UNL     1      33.915 -37.767 -29.204  0.00  0.00    -0.071 C 
ATOM      8  C   UNL     1      33.507 -38.937 -28.688  0.00  0.00    -0.059 C 
ATOM      9  C   UNL     1      33.946 -39.443 -27.350  0.00  0.00    +0.077 C 
ATOM     10  C   UNL     1      34.504 -38.337 -26.458  0.00  0.00    +0.015 C 
ATOM     11  C   UNL     1      35.479 -37.435 -27.205  0.00  0.00    +0.116 C 
ATOM     12  O   UNL     1      36.669 -38.177 -27.552  0.00  0.00    -0.484 OA
ATOM     13  C   UNL     1      37.137 -37.546 -28.681  0.00  0.00    +0.167 A 
ATOM     14  C   UNL     1      38.407 -37.705 -29.217  0.00  0.00    +0.162 A 
ATOM     15  C   UNL     1      38.695 -37.006 -30.391  0.00  0.00    -0.016 A 
ATOM     16  C   UNL     1      37.731 -36.202 -31.017  0.00  0.00    -0.053 A 
ATOM     17  C   UNL     1      36.440 -36.054 -30.480  0.00  0.00    -0.022 A 
ATOM     18  C   UNL     1      36.169 -36.731 -29.287  0.00  0.00    +0.016 A 
ATOM     19  C   UNL     1      35.429 -35.255 -31.277  0.00  0.00    +0.040 C 
ENDROOT
BRANCH   9  20
ATOM     20  O   UNL     1      32.815 -40.003 -26.691  0.00  0.00    -0.388 OA
ATOM     21  H   UNL     1      32.453 -40.726 -27.228  0.00  0.00    +0.000 HD
ENDBRANCH   9  20
BRANCH  14  22
ATOM     22  O   UNL     1      39.442 -38.461 -28.749  0.00  0.00    -0.491 OA
ATOM     23  C   UNL     1      40.761 -38.035 -29.062  0.00  0.00    +0.079 C 
ENDBRANCH  14  22
BRANCH   1  24
ATOM     24  C   UNL     1      31.709 -34.499 -30.546  0.00  0.00    +0.076 C 
BRANCH  24  25
ATOM     25  N   UNL     1      31.232 -33.134 -30.873  0.00  0.00    -0.295 N 
ATOM     26  H   UNL     1      31.711 -32.810 -31.713  0.00  0.00    +0.000 HD
BRANCH  25  28
ATOM     27  C   UNL     1      29.096 -34.433 -30.661  0.00  0.00    -0.052 C 
ATOM     28  C   UNL     1      29.789 -33.171 -31.164  0.00  0.00    -0.003 C 
ENDBRANCH  25  28
BRANCH  25  29
ATOM     29  C   UNL     1      31.584 -32.158 -29.832  0.00  0.00    -0.003 C 
ATOM     30  C   UNL     1      32.676 -31.223 -30.336  0.00  0.00    -0.052 C 
ENDBRANCH  25  29
ENDBRANCH  24  25
ENDBRANCH   1  24
TORSDOF 6
ENDMDL
MODEL 6
REMARK VINA RESULT:    -5.904      1.332      1.998
REMARK INTER + INTRA:          -8.973
REMARK INTER:                  -8.308
REMARK INTRA:                  -0.664
REMARK UNBOUND:                -1.170
REMARK  Name = cpd319.pdb
REMARK  9 active torsions:
REMARK  status: ('A' for Active; 'I' for Inactive)
REMARK    1  A    between atoms: C_1  and  C_2
REMARK    2  A    between atoms: C_2  and  N_3
REMARK    3  A    between atoms: N_3  and  C_4
REMARK    4  A    between atoms: N_3  and  C_6
REMARK    5  A    between atoms: C_4  and  C_5
REMARK    6  A    between atoms: C_6  and  C_7
REMARK    7  A    between atoms: C_15  and  O_16
REMARK    8  A    between atoms: C_21  and  O_22
REMARK    9  A    between atoms: O_22  and  C_23
REMARK                            x       y       z     vdW  Elec       q    Type
REMARK                         _______ _______ _______ _____ _____    ______ ____
ROOT
ATOM      1  C   UNL     1      34.069 -37.744 -26.730  0.00  0.00    +0.230 C 
ATOM      2  O   UNL     1      34.594 -37.527 -25.634  0.00  0.00    -0.274 OA
ATOM      3  N   UNL     1      34.844 -38.033 -27.853  0.00  0.00    -0.296 N 
ATOM      4  C   UNL     1      34.330 -38.454 -29.144  0.00  0.00    +0.016 C 
ATOM      5  C   UNL     1      34.093 -37.278 -30.089  0.00  0.00    -0.020 C 
ATOM      6  C   UNL     1      35.213 -36.208 -30.119  0.00  0.00    +0.056 C 
ATOM      7  C   UNL     1      34.903 -35.067 -29.156  0.00  0.00    -0.071 C 
ATOM      8  C   UNL     1      34.687 -33.799 -29.538  0.00  0.00    -0.059 C 
ATOM      9  C   UNL     1      34.705 -33.355 -30.967  0.00  0.00    +0.077 C 
ATOM     10  C   UNL     1      34.531 -34.515 -31.943  0.00  0.00    +0.015 C 
ATOM     11  C   UNL     1      35.411 -35.706 -31.582  0.00  0.00    +0.116 C 
ATOM     12  O   UNL     1      36.803 -35.362 -31.762  0.00  0.00    -0.484 OA
ATOM     13  C   UNL     1      37.464 -36.172 -30.868  0.00  0.00    +0.167 A 
ATOM     14  C   UNL     1      38.829 -36.420 -30.872  0.00  0.00    +0.162 A 
ATOM     15  C   UNL     1      39.329 -37.247 -29.863  0.00  0.00    -0.016 A 
ATOM     16  C   UNL     1      38.490 -37.778 -28.872  0.00  0.00    -0.053 A 
ATOM     17  C   UNL     1      37.110 -37.513 -28.861  0.00  0.00    -0.022 A 
ATOM     18  C   UNL     1      36.611 -36.711 -29.892  0.00  0.00    +0.016 A 
ATOM     19  C   UNL     1      36.298 -38.036 -27.694  0.00  0.00    +0.040 C 
ENDROOT
BRANCH   9  20
ATOM     20  O   UNL     1      33.623 -32.452 -31.168  0.00  0.00    -0.388 OA
ATOM     21  H   UNL     1      32.959 -32.584 -30.474  0.00  0.00    +0.000 HD
ENDBRANCH   9  20
BRANCH  14  22
ATOM     22  O   UNL     1      39.775 -35.966 -31.743  0.00  0.00    -0.491 OA
ATOM     23  C   UNL     1      41.046 -36.601 -31.721  0.00  0.00    +0.079 C 
ENDBRANCH  14  22
BRANCH   1  24
ATOM     24  C   UNL     1      32.537 -37.641 -26.893  0.00  0.00    +0.076 C 
BRANCH  24  25
ATOM     25  N   UNL     1      31.846 -38.815 -26.309  0.00  0.00    -0.295 N 
ATOM     26  H   UNL     1      32.541 -39.524 -26.076  0.00  0.00    +0.000 HD
BRANCH  25  28
ATOM     27  C   UNL     1      31.793 -39.028 -23.810  0.00  0.00    -0.052 C 
ATOM     28  C   UNL     1      31.169 -38.422 -25.063  0.00  0.00    -0.003 C 
ENDBRANCH  25  28
BRANCH  25  29
ATOM     29  C   UNL     1      30.946 -39.465 -27.272  0.00  0.00    -0.003 C 
ATOM     30  C   UNL     1      30.624 -38.511 -28.416  0.00  0.00    -0.052 C 
ENDBRANCH  25  29
ENDBRANCH  24  25
ENDBRANCH   1  24
TORSDOF 6
ENDMDL
MODEL 7
REMARK VINA RESULT:    -5.862     21.422     23.626
REMARK INTER + INTRA:          -8.917
REMARK INTER:                  -7.885
REMARK INTRA:                  -1.032
REMARK UNBOUND:                -1.170
REMARK  Name = cpd319.pdb
REMARK  9 active torsions:
REMARK  status: ('A' for Active; 'I' for Inactive)
REMARK    1  A    between atoms: C_1  and  C_2
REMARK    2  A    between atoms: C_2  and  N_3
REMARK    3  A    between atoms: N_3  and  C_4
REMARK    4  A    between atoms: N_3  and  C_6
REMARK    5  A    between atoms: C_4  and  C_5
REMARK    6  A    between atoms: C_6  and  C_7
REMARK    7  A    between atoms: C_15  and  O_16
REMARK    8  A    between atoms: C_21  and  O_22
REMARK    9  A    between atoms: O_22  and  C_23
REMARK                            x       y       z     vdW  Elec       q    Type
REMARK                         _______ _______ _______ _____ _____    ______ ____
ROOT
ATOM      1  C   UNL     1      43.572 -15.792 -40.417  0.00  0.00    +0.230 C 
ATOM      2  O   UNL     1      42.367 -15.870 -40.676  0.00  0.00    -0.274 OA
ATOM      3  N   UNL     1      44.489 -16.669 -40.997  0.00  0.00    -0.296 N 
ATOM      4  C   UNL     1      45.934 -16.569 -40.886  0.00  0.00    +0.016 C 
ATOM      5  C   UNL     1      46.485 -17.381 -39.716  0.00  0.00    -0.020 C 
ATOM      6  C   UNL     1      45.885 -18.798 -39.543  0.00  0.00    +0.056 C 
ATOM      7  C   UNL     1      44.724 -18.783 -38.554  0.00  0.00    -0.071 C 
ATOM      8  C   UNL     1      44.728 -19.436 -37.381  0.00  0.00    -0.059 C 
ATOM      9  C   UNL     1      45.887 -20.246 -36.893  0.00  0.00    +0.077 C 
ATOM     10  C   UNL     1      47.190 -19.892 -37.603  0.00  0.00    +0.015 C 
ATOM     11  C   UNL     1      47.011 -19.789 -39.114  0.00  0.00    +0.116 C 
ATOM     12  O   UNL     1      46.707 -21.090 -39.663  0.00  0.00    -0.484 OA
ATOM     13  C   UNL     1      45.978 -20.811 -40.796  0.00  0.00    +0.167 A 
ATOM     14  C   UNL     1      45.708 -21.712 -41.815  0.00  0.00    +0.162 A 
ATOM     15  C   UNL     1      44.920 -21.258 -42.875  0.00  0.00    -0.016 A 
ATOM     16  C   UNL     1      44.399 -19.955 -42.891  0.00  0.00    -0.053 A 
ATOM     17  C   UNL     1      44.661 -19.049 -41.849  0.00  0.00    -0.022 A 
ATOM     18  C   UNL     1      45.477 -19.500 -40.808  0.00  0.00    +0.016 A 
ATOM     19  C   UNL     1      43.970 -17.701 -41.894  0.00  0.00    +0.040 C 
ENDROOT
BRANCH   9  20
ATOM     20  O   UNL     1      46.064 -19.983 -35.506  0.00  0.00    -0.388 OA
ATOM     21  H   UNL     1      45.865 -20.785 -34.997  0.00  0.00    +0.000 HD
ENDBRANCH   9  20
BRANCH  14  22
ATOM     22  O   UNL     1      46.116 -23.008 -41.938  0.00  0.00    -0.491 OA
ATOM     23  C   UNL     1      47.456 -23.239 -42.347  0.00  0.00    +0.079 C 
ENDBRANCH  14  22
BRANCH   1  24
ATOM     24  C   UNL     1      44.083 -14.754 -39.394  0.00  0.00    +0.076 C 
BRANCH  24  25
ATOM     25  N   UNL     1      44.023 -15.279 -38.009  0.00  0.00    -0.295 N 
ATOM     26  H   UNL     1      44.008 -16.298 -38.043  0.00  0.00    +0.000 HD
BRANCH  25  28
ATOM     27  C   UNL     1      45.794 -15.960 -36.368  0.00  0.00    -0.052 C 
ATOM     28  C   UNL     1      45.230 -14.870 -37.273  0.00  0.00    -0.003 C 
ENDBRANCH  25  28
BRANCH  25  29
ATOM     29  C   UNL     1      42.778 -14.900 -37.326  0.00  0.00    -0.003 C 
ATOM     30  C   UNL     1      42.381 -13.479 -37.706  0.00  0.00    -0.052 C 
ENDBRANCH  25  29
ENDBRANCH  24  25
ENDBRANCH   1  24
TORSDOF 6
ENDMDL
MODEL 8
REMARK VINA RESULT:    -5.796     25.954     28.430
REMARK INTER + INTRA:          -8.830
REMARK INTER:                  -8.015
REMARK INTRA:                  -0.815
REMARK UNBOUND:                -1.170
REMARK  Name = cpd319.pdb
REMARK  9 active torsions:
REMARK  status: ('A' for Active; 'I' for Inactive)
REMARK    1  A    between atoms: C_1  and  C_2
REMARK    2  A    between atoms: C_2  and  N_3
REMARK    3  A    between atoms: N_3  and  C_4
REMARK    4  A    between atoms: N_3  and  C_6
REMARK    5  A    between atoms: C_4  and  C_5
REMARK    6  A    between atoms: C_6  and  C_7
REMARK    7  A    between atoms: C_15  and  O_16
REMARK    8  A    between atoms: C_21  and  O_22
REMARK    9  A    between atoms: O_22  and  C_23
REMARK                            x       y       z     vdW  Elec       q    Type
REMARK                         _______ _______ _______ _____ _____    ______ ____
ROOT
ATOM      1  C   UNL     1      45.629 -35.376 -53.386  0.00  0.00    +0.230 C 
ATOM      2  O   UNL     1      44.686 -35.177 -52.614  0.00  0.00    -0.274 OA
ATOM      3  N   UNL     1      46.622 -34.414 -53.568  0.00  0.00    -0.296 N 
ATOM      4  C   UNL     1      47.848 -34.605 -54.325  0.00  0.00    +0.016 C 
ATOM      5  C   UNL     1      47.705 -34.175 -55.783  0.00  0.00    -0.020 C 
ATOM      6  C   UNL     1      46.961 -32.836 -56.017  0.00  0.00    +0.056 C 
ATOM      7  C   UNL     1      45.479 -33.073 -56.287  0.00  0.00    -0.071 C 
ATOM      8  C   UNL     1      44.869 -32.772 -57.444  0.00  0.00    -0.059 C 
ATOM      9  C   UNL     1      45.580 -32.181 -58.620  0.00  0.00    +0.077 C 
ATOM     10  C   UNL     1      47.091 -32.381 -58.553  0.00  0.00    +0.015 C 
ATOM     11  C   UNL     1      47.654 -32.054 -57.175  0.00  0.00    +0.116 C 
ATOM     12  O   UNL     1      47.521 -30.639 -56.913  0.00  0.00    -0.484 OA
ATOM     13  C   UNL     1      47.439 -30.561 -55.542  0.00  0.00    +0.167 A 
ATOM     14  C   UNL     1      47.595 -29.401 -54.797  0.00  0.00    +0.162 A 
ATOM     15  C   UNL     1      47.445 -29.508 -53.413  0.00  0.00    -0.016 A 
ATOM     16  C   UNL     1      47.120 -30.731 -52.806  0.00  0.00    -0.053 A 
ATOM     17  C   UNL     1      46.947 -31.902 -53.565  0.00  0.00    -0.022 A 
ATOM     18  C   UNL     1      47.131 -31.794 -54.947  0.00  0.00    +0.016 A 
ATOM     19  C   UNL     1      46.490 -33.152 -52.841  0.00  0.00    +0.040 C 
ENDROOT
BRANCH   9  20
ATOM     20  O   UNL     1      45.109 -32.826 -59.798  0.00  0.00    -0.388 OA
ATOM     21  H   UNL     1      44.279 -33.290 -59.603  0.00  0.00    +0.000 HD
ENDBRANCH   9  20
BRANCH  14  22
ATOM     22  O   UNL     1      47.887 -28.141 -55.231  0.00  0.00    -0.491 OA
ATOM     23  C   UNL     1      46.907 -27.472 -56.013  0.00  0.00    +0.079 C 
ENDBRANCH  14  22
BRANCH   1  24
ATOM     24  C   UNL     1      45.696 -36.679 -54.212  0.00  0.00    +0.076 C 
BRANCH  24  25
ATOM     25  N   UNL     1      44.670 -36.698 -55.283  0.00  0.00    -0.295 N 
ATOM     26  H   UNL     1      44.194 -35.797 -55.299  0.00  0.00    +0.000 HD
BRANCH  25  28
ATOM     27  C   UNL     1      46.623 -37.680 -56.515  0.00  0.00    -0.052 C 
ATOM     28  C   UNL     1      45.323 -36.886 -56.589  0.00  0.00    -0.003 C 
ENDBRANCH  25  28
BRANCH  25  29
ATOM     29  C   UNL     1      43.613 -37.685 -55.021  0.00  0.00    -0.003 C 
ATOM     30  C   UNL     1      42.253 -37.000 -54.981  0.00  0.00    -0.052 C 
ENDBRANCH  25  29
ENDBRANCH  24  25
ENDBRANCH   1  24
TORSDOF 6
ENDMDL
MODEL 9
REMARK VINA RESULT:    -5.780      2.686      4.456
REMARK INTER + INTRA:          -8.808
REMARK INTER:                  -7.647
REMARK INTRA:                  -1.161
REMARK UNBOUND:                -1.170
REMARK  Name = cpd319.pdb
REMARK  9 active torsions:
REMARK  status: ('A' for Active; 'I' for Inactive)
REMARK    1  A    between atoms: C_1  and  C_2
REMARK    2  A    between atoms: C_2  and  N_3
REMARK    3  A    between atoms: N_3  and  C_4
REMARK    4  A    between atoms: N_3  and  C_6
REMARK    5  A    between atoms: C_4  and  C_5
REMARK    6  A    between atoms: C_6  and  C_7
REMARK    7  A    between atoms: C_15  and  O_16
REMARK    8  A    between atoms: C_21  and  O_22
REMARK    9  A    between atoms: O_22  and  C_23
REMARK                            x       y       z     vdW  Elec       q    Type
REMARK                         _______ _______ _______ _____ _____    ______ ____
ROOT
ATOM      1  C   UNL     1      30.266 -35.143 -28.147  0.00  0.00    +0.230 C 
ATOM      2  O   UNL     1      30.036 -34.714 -27.012  0.00  0.00    -0.274 OA
ATOM      3  N   UNL     1      31.242 -36.116 -28.362  0.00  0.00    -0.296 N 
ATOM      4  C   UNL     1      31.486 -36.799 -29.621  0.00  0.00    +0.016 C 
ATOM      5  C   UNL     1      32.546 -36.100 -30.468  0.00  0.00    -0.020 C 
ATOM      6  C   UNL     1      33.803 -35.615 -29.702  0.00  0.00    +0.056 C 
ATOM      7  C   UNL     1      33.656 -34.158 -29.278  0.00  0.00    -0.071 C 
ATOM      8  C   UNL     1      34.441 -33.164 -29.722  0.00  0.00    -0.059 C 
ATOM      9  C   UNL     1      35.547 -33.366 -30.708  0.00  0.00    +0.077 C 
ATOM     10  C   UNL     1      35.406 -34.669 -31.489  0.00  0.00    +0.015 C 
ATOM     11  C   UNL     1      35.069 -35.848 -30.584  0.00  0.00    +0.116 C 
ATOM     12  O   UNL     1      36.185 -36.134 -29.712  0.00  0.00    -0.484 OA
ATOM     13  C   UNL     1      35.603 -36.700 -28.601  0.00  0.00    +0.167 A 
ATOM     14  C   UNL     1      36.279 -37.405 -27.616  0.00  0.00    +0.162 A 
ATOM     15  C   UNL     1      35.525 -37.881 -26.542  0.00  0.00    -0.016 A 
ATOM     16  C   UNL     1      34.148 -37.629 -26.448  0.00  0.00    -0.053 A 
ATOM     17  C   UNL     1      33.468 -36.901 -27.440  0.00  0.00    -0.022 A 
ATOM     18  C   UNL     1      34.223 -36.456 -28.529  0.00  0.00    +0.016 A 
ATOM     19  C   UNL     1      32.005 -36.582 -27.205  0.00  0.00    +0.040 C 
ENDROOT
BRANCH   9  20
ATOM     20  O   UNL     1      35.515 -32.294 -31.643  0.00  0.00    -0.388 OA
ATOM     21  H   UNL     1      36.408 -32.138 -31.988  0.00  0.00    +0.000 HD
ENDBRANCH   9  20
BRANCH  14  22
ATOM     22  O   UNL     1      37.606 -37.713 -27.547  0.00  0.00    -0.491 OA
ATOM     23  C   UNL     1      38.066 -38.816 -28.317  0.00  0.00    +0.079 C 
ENDBRANCH  14  22
BRANCH   1  24
ATOM     24  C   UNL     1      29.512 -34.566 -29.365  0.00  0.00    +0.076 C 
BRANCH  24  25
ATOM     25  N   UNL     1      30.149 -33.324 -29.863  0.00  0.00    -0.295 N 
ATOM     26  H   UNL     1      31.121 -33.306 -29.555  0.00  0.00    +0.000 HD
BRANCH  25  28
ATOM     27  C   UNL     1      31.464 -32.873 -31.951  0.00  0.00    -0.052 C 
ATOM     28  C   UNL     1      30.143 -33.320 -31.334  0.00  0.00    -0.003 C 
ENDBRANCH  25  28
BRANCH  25  29
ATOM     29  C   UNL     1      29.543 -32.118 -29.282  0.00  0.00    -0.003 C 
ATOM     30  C   UNL     1      30.594 -31.310 -28.531  0.00  0.00    -0.052 C 
ENDBRANCH  25  29
ENDBRANCH  24  25
ENDBRANCH   1  24
TORSDOF 6
ENDMDL
MODEL 10
REMARK VINA RESULT:    -5.733      2.630      3.768
REMARK INTER + INTRA:          -8.746
REMARK INTER:                  -7.868
REMARK INTRA:                  -0.877
REMARK UNBOUND:                -1.170
REMARK  Name = cpd319.pdb
REMARK  9 active torsions:
REMARK  status: ('A' for Active; 'I' for Inactive)
REMARK    1  A    between atoms: C_1  and  C_2
REMARK    2  A    between atoms: C_2  and  N_3
REMARK    3  A    between atoms: N_3  and  C_4
REMARK    4  A    between atoms: N_3  and  C_6
REMARK    5  A    between atoms: C_4  and  C_5
REMARK    6  A    between atoms: C_6  and  C_7
REMARK    7  A    between atoms: C_15  and  O_16
REMARK    8  A    between atoms: C_21  and  O_22
REMARK    9  A    between atoms: O_22  and  C_23
REMARK                            x       y       z     vdW  Elec       q    Type
REMARK                         _______ _______ _______ _____ _____    ______ ____
ROOT
ATOM      1  C   UNL     1      30.808 -35.806 -27.377  0.00  0.00    +0.230 C 
ATOM      2  O   UNL     1      30.853 -35.544 -26.171  0.00  0.00    -0.274 OA
ATOM      3  N   UNL     1      31.831 -36.526 -27.994  0.00  0.00    -0.296 N 
ATOM      4  C   UNL     1      31.805 -37.020 -29.360  0.00  0.00    +0.016 C 
ATOM      5  C   UNL     1      32.428 -36.036 -30.348  0.00  0.00    -0.020 C 
ATOM      6  C   UNL     1      33.751 -35.373 -29.888  0.00  0.00    +0.056 C 
ATOM      7  C   UNL     1      33.486 -34.026 -29.224  0.00  0.00    -0.071 C 
ATOM      8  C   UNL     1      33.917 -32.852 -29.708  0.00  0.00    -0.059 C 
ATOM      9  C   UNL     1      34.700 -32.722 -30.977  0.00  0.00    +0.077 C 
ATOM     10  C   UNL     1      34.562 -33.946 -31.878  0.00  0.00    +0.015 C 
ATOM     11  C   UNL     1      34.719 -35.250 -31.105  0.00  0.00    +0.116 C 
ATOM     12  O   UNL     1      36.075 -35.376 -30.623  0.00  0.00    -0.484 OA
ATOM     13  C   UNL     1      35.956 -36.155 -29.496  0.00  0.00    +0.167 A 
ATOM     14  C   UNL     1      37.006 -36.792 -28.850  0.00  0.00    +0.162 A 
ATOM     15  C   UNL     1      36.699 -37.516 -27.696  0.00  0.00    -0.016 A 
ATOM     16  C   UNL     1      35.390 -37.569 -27.195  0.00  0.00    -0.053 A 
ATOM     17  C   UNL     1      34.330 -36.909 -27.842  0.00  0.00    -0.022 A 
ATOM     18  C   UNL     1      34.639 -36.214 -29.014  0.00  0.00    +0.016 A 
ATOM     19  C   UNL     1      32.971 -36.929 -27.172  0.00  0.00    +0.040 C 
ENDROOT
BRANCH   9  20
ATOM     20  O   UNL     1      34.205 -31.597 -31.695  0.00  0.00    -0.388 OA
ATOM     21  H   UNL     1      33.364 -31.309 -31.305  0.00  0.00    +0.000 HD
ENDBRANCH   9  20
BRANCH  14  22
ATOM     22  O   UNL     1      38.326 -36.820 -29.192  0.00  0.00    -0.491 OA
ATOM     23  C   UNL     1      39.075 -37.971 -28.829  0.00  0.00    +0.079 C 
ENDBRANCH  14  22
BRANCH   1  24
ATOM     24  C   UNL     1      29.639 -35.287 -28.242  0.00  0.00    +0.076 C 
BRANCH  24  25
ATOM     25  N   UNL     1      29.219 -33.925 -27.832  0.00  0.00    -0.295 N 
ATOM     26  H   UNL     1      29.542 -33.754 -26.880  0.00  0.00    +0.000 HD
BRANCH  25  28
ATOM     27  C   UNL     1      29.957 -33.371 -30.164  0.00  0.00    -0.052 C 
ATOM     28  C   UNL     1      29.852 -32.928 -28.709  0.00  0.00    -0.003 C 
ENDBRANCH  25  28
BRANCH  25  29
ATOM     29  C   UNL     1      27.757 -33.791 -27.770  0.00  0.00    -0.003 C 
ATOM     30  C   UNL     1      27.193 -34.684 -26.672  0.00  0.00    -0.052 C 
ENDBRANCH  25  29
ENDBRANCH  24  25
ENDBRANCH   1  24
TORSDOF 6
ENDMDL
MODEL 11
REMARK VINA RESULT:    -5.678      2.298      6.053
REMARK INTER + INTRA:          -8.674
REMARK INTER:                  -7.640
REMARK INTRA:                  -1.034
REMARK UNBOUND:                -1.170
REMARK  Name = cpd319.pdb
REMARK  9 active torsions:
REMARK  status: ('A' for Active; 'I' for Inactive)
REMARK    1  A    between atoms: C_1  and  C_2
REMARK    2  A    between atoms: C_2  and  N_3
REMARK    3  A    between atoms: N_3  and  C_4
REMARK    4  A    between atoms: N_3  and  C_6
REMARK    5  A    between atoms: C_4  and  C_5
REMARK    6  A    between atoms: C_6  and  C_7
REMARK    7  A    between atoms: C_15  and  O_16
REMARK    8  A    between atoms: C_21  and  O_22
REMARK    9  A    between atoms: O_22  and  C_23
REMARK                            x       y       z     vdW  Elec       q    Type
REMARK                         _______ _______ _______ _____ _____    ______ ____
ROOT
ATOM      1  C   UNL     1      36.429 -36.559 -30.868  0.00  0.00    +0.230 C 
ATOM      2  O   UNL     1      37.498 -36.013 -30.580  0.00  0.00    -0.274 OA
ATOM      3  N   UNL     1      35.307 -35.805 -31.210  0.00  0.00    -0.296 N 
ATOM      4  C   UNL     1      34.054 -36.342 -31.713  0.00  0.00    +0.016 C 
ATOM      5  C   UNL     1      33.049 -36.618 -30.598  0.00  0.00    -0.020 C 
ATOM      6  C   UNL     1      32.931 -35.517 -29.514  0.00  0.00    +0.056 C 
ATOM      7  C   UNL     1      33.834 -35.823 -28.324  0.00  0.00    -0.071 C 
ATOM      8  C   UNL     1      33.385 -36.069 -27.083  0.00  0.00    -0.059 C 
ATOM      9  C   UNL     1      31.933 -36.090 -26.723  0.00  0.00    +0.077 C 
ATOM     10  C   UNL     1      31.029 -36.267 -27.940  0.00  0.00    +0.015 C 
ATOM     11  C   UNL     1      31.437 -35.360 -29.095  0.00  0.00    +0.116 C 
ATOM     12  O   UNL     1      31.206 -33.979 -28.741  0.00  0.00    -0.484 OA
ATOM     13  C   UNL     1      32.129 -33.285 -29.488  0.00  0.00    +0.167 A 
ATOM     14  C   UNL     1      32.107 -31.916 -29.716  0.00  0.00    +0.162 A 
ATOM     15  C   UNL     1      33.149 -31.380 -30.475  0.00  0.00    -0.016 A 
ATOM     16  C   UNL     1      34.189 -32.188 -30.960  0.00  0.00    -0.053 A 
ATOM     17  C   UNL     1      34.217 -33.572 -30.715  0.00  0.00    -0.022 A 
ATOM     18  C   UNL     1      33.154 -34.107 -29.983  0.00  0.00    +0.016 A 
ATOM     19  C   UNL     1      35.432 -34.348 -31.183  0.00  0.00    +0.040 C 
ENDROOT
BRANCH   9  20
ATOM     20  O   UNL     1      31.705 -37.191 -25.850  0.00  0.00    -0.388 OA
ATOM     21  H   UNL     1      30.902 -37.662 -26.126  0.00  0.00    +0.000 HD
ENDBRANCH   9  20
BRANCH  14  22
ATOM     22  O   UNL     1      31.189 -30.997 -29.299  0.00  0.00    -0.491 OA
ATOM     23  C   UNL     1      30.139 -30.664 -30.196  0.00  0.00    +0.079 C 
ENDBRANCH  14  22
BRANCH   1  24
ATOM     24  C   UNL     1      36.297 -38.096 -30.798  0.00  0.00    +0.076 C 
BRANCH  24  25
ATOM     25  N   UNL     1      36.061 -38.561 -29.410  0.00  0.00    -0.295 N 
ATOM     26  H   UNL     1      35.842 -37.755 -28.826  0.00  0.00    +0.000 HD
BRANCH  25  28
ATOM     27  C   UNL     1      34.282 -39.625 -27.997  0.00  0.00    -0.052 C 
ATOM     28  C   UNL     1      34.902 -39.468 -29.381  0.00  0.00    -0.003 C 
ENDBRANCH  25  28
BRANCH  25  29
ATOM     29  C   UNL     1      37.267 -39.150 -28.810  0.00  0.00    -0.003 C 
ATOM     30  C   UNL     1      37.942 -38.141 -27.889  0.00  0.00    -0.052 C 
ENDBRANCH  25  29
ENDBRANCH  24  25
ENDBRANCH   1  24
TORSDOF 6
ENDMDL
MODEL 12
REMARK VINA RESULT:    -5.636      2.924      5.466
REMARK INTER + INTRA:          -8.618
REMARK INTER:                  -7.689
REMARK INTRA:                  -0.929
REMARK UNBOUND:                -1.170
REMARK  Name = cpd319.pdb
REMARK  9 active torsions:
REMARK  status: ('A' for Active; 'I' for Inactive)
REMARK    1  A    between atoms: C_1  and  C_2
REMARK    2  A    between atoms: C_2  and  N_3
REMARK    3  A    between atoms: N_3  and  C_4
REMARK    4  A    between atoms: N_3  and  C_6
REMARK    5  A    between atoms: C_4  and  C_5
REMARK    6  A    between atoms: C_6  and  C_7
REMARK    7  A    between atoms: C_15  and  O_16
REMARK    8  A    between atoms: C_21  and  O_22
REMARK    9  A    between atoms: O_22  and  C_23
REMARK                            x       y       z     vdW  Elec       q    Type
REMARK                         _______ _______ _______ _____ _____    ______ ____
ROOT
ATOM      1  C   UNL     1      33.834 -35.292 -31.603  0.00  0.00    +0.230 C 
ATOM      2  O   UNL     1      33.027 -35.649 -32.467  0.00  0.00    -0.274 OA
ATOM      3  N   UNL     1      34.802 -36.171 -31.119  0.00  0.00    -0.296 N 
ATOM      4  C   UNL     1      35.891 -35.814 -30.226  0.00  0.00    +0.016 C 
ATOM      5  C   UNL     1      35.529 -36.015 -28.756  0.00  0.00    -0.020 C 
ATOM      6  C   UNL     1      34.780 -37.330 -28.425  0.00  0.00    +0.056 C 
ATOM      7  C   UNL     1      33.271 -37.114 -28.424  0.00  0.00    -0.071 C 
ATOM      8  C   UNL     1      32.492 -37.254 -27.340  0.00  0.00    -0.059 C 
ATOM      9  C   UNL     1      33.020 -37.623 -25.989  0.00  0.00    +0.077 C 
ATOM     10  C   UNL     1      34.520 -37.374 -25.858  0.00  0.00    +0.015 C 
ATOM     11  C   UNL     1      35.296 -37.891 -27.063  0.00  0.00    +0.116 C 
ATOM     12  O   UNL     1      35.229 -39.333 -27.110  0.00  0.00    -0.484 OA
ATOM     13  C   UNL     1      35.364 -39.629 -28.447  0.00  0.00    +0.167 A 
ATOM     14  C   UNL     1      35.654 -40.885 -28.962  0.00  0.00    +0.162 A 
ATOM     15  C   UNL     1      35.720 -41.003 -30.352  0.00  0.00    -0.016 A 
ATOM     16  C   UNL     1      35.473 -39.905 -31.190  0.00  0.00    -0.053 A 
ATOM     17  C   UNL     1      35.164 -38.638 -30.666  0.00  0.00    -0.022 A 
ATOM     18  C   UNL     1      35.132 -38.519 -29.274  0.00  0.00    +0.016 A 
ATOM     19  C   UNL     1      34.806 -37.536 -31.643  0.00  0.00    +0.040 C 
ENDROOT
BRANCH   9  20
ATOM     20  O   UNL     1      32.360 -36.821 -25.016  0.00  0.00    -0.388 OA
ATOM     21  H   UNL     1      31.400 -36.912 -25.120  0.00  0.00    +0.000 HD
ENDBRANCH   9  20
BRANCH  14  22
ATOM     22  O   UNL     1      35.894 -42.047 -28.291  0.00  0.00    -0.491 OA
ATOM     23  C   UNL     1      34.771 -42.774 -27.811  0.00  0.00    +0.079 C 
ENDBRANCH  14  22
BRANCH   1  24
ATOM     24  C   UNL     1      33.749 -33.874 -30.998  0.00  0.00    +0.076 C 
BRANCH  24  25
ATOM     25  N   UNL     1      32.515 -33.696 -30.197  0.00  0.00    -0.295 N 
ATOM     26  H   UNL     1      31.960 -34.550 -30.253  0.00  0.00    +0.000 HD
BRANCH  25  28
ATOM     27  C   UNL     1      31.700 -33.675 -27.824  0.00  0.00    -0.052 C 
ATOM     28  C   UNL     1      32.868 -33.480 -28.784  0.00  0.00    -0.003 C 
ENDBRANCH  25  28
BRANCH  25  29
ATOM     29  C   UNL     1      31.648 -32.641 -30.740  0.00  0.00    -0.003 C 
ATOM     30  C   UNL     1      30.539 -33.255 -31.585  0.00  0.00    -0.052 C 
ENDBRANCH  25  29
ENDBRANCH  24  25
ENDBRANCH   1  24
TORSDOF 6
ENDMDL
MODEL 13
REMARK VINA RESULT:    -5.625     26.240     28.964
REMARK INTER + INTRA:          -8.604
REMARK INTER:                  -7.458
REMARK INTRA:                  -1.145
REMARK UNBOUND:                -1.170
REMARK  Name = cpd319.pdb
REMARK  9 active torsions:
REMARK  status: ('A' for Active; 'I' for Inactive)
REMARK    1  A    between atoms: C_1  and  C_2
REMARK    2  A    between atoms: C_2  and  N_3
REMARK    3  A    between atoms: N_3  and  C_4
REMARK    4  A    between atoms: N_3  and  C_6
REMARK    5  A    between atoms: C_4  and  C_5
REMARK    6  A    between atoms: C_6  and  C_7
REMARK    7  A    between atoms: C_15  and  O_16
REMARK    8  A    between atoms: C_21  and  O_22
REMARK    9  A    between atoms: O_22  and  C_23
REMARK                            x       y       z     vdW  Elec       q    Type
REMARK                         _______ _______ _______ _____ _____    ______ ____
ROOT
ATOM      1  C   UNL     1      47.441 -34.051 -53.011  0.00  0.00    +0.230 C 
ATOM      2  O   UNL     1      46.710 -33.924 -52.024  0.00  0.00    -0.274 OA
ATOM      3  N   UNL     1      48.000 -32.937 -53.638  0.00  0.00    -0.296 N 
ATOM      4  C   UNL     1      48.990 -32.979 -54.700  0.00  0.00    +0.016 C 
ATOM      5  C   UNL     1      48.357 -32.960 -56.089  0.00  0.00    -0.020 C 
ATOM      6  C   UNL     1      47.194 -31.954 -56.281  0.00  0.00    +0.056 C 
ATOM      7  C   UNL     1      45.846 -32.623 -56.038  0.00  0.00    -0.071 C 
ATOM      8  C   UNL     1      44.901 -32.773 -56.979  0.00  0.00    -0.059 C 
ATOM      9  C   UNL     1      45.069 -32.316 -58.394  0.00  0.00    +0.077 C 
ATOM     10  C   UNL     1      46.531 -32.098 -58.770  0.00  0.00    +0.015 C 
ATOM     11  C   UNL     1      47.289 -31.318 -57.702  0.00  0.00    +0.116 C 
ATOM     12  O   UNL     1      46.786 -29.965 -57.631  0.00  0.00    -0.484 OA
ATOM     13  C   UNL     1      47.032 -29.587 -56.331  0.00  0.00    +0.167 A 
ATOM     14  C   UNL     1      46.996 -28.284 -55.857  0.00  0.00    +0.162 A 
ATOM     15  C   UNL     1      47.241 -28.094 -54.496  0.00  0.00    -0.016 A 
ATOM     16  C   UNL     1      47.482 -29.178 -53.639  0.00  0.00    -0.053 A 
ATOM     17  C   UNL     1      47.503 -30.500 -54.119  0.00  0.00    -0.022 A 
ATOM     18  C   UNL     1      47.289 -30.680 -55.489  0.00  0.00    +0.016 A 
ATOM     19  C   UNL     1      47.663 -31.617 -53.107  0.00  0.00    +0.040 C 
ENDROOT
BRANCH   9  20
ATOM     20  O   UNL     1      44.545 -33.322 -59.254  0.00  0.00    -0.388 OA
ATOM     21  H   UNL     1      43.610 -33.136 -59.438  0.00  0.00    +0.000 HD
ENDBRANCH   9  20
BRANCH  14  22
ATOM     22  O   UNL     1      46.755 -27.132 -56.548  0.00  0.00    -0.491 OA
ATOM     23  C   UNL     1      47.879 -26.404 -57.023  0.00  0.00    +0.079 C 
ENDBRANCH  14  22
BRANCH   1  24
ATOM     24  C   UNL     1      47.705 -35.450 -53.609  0.00  0.00    +0.076 C 
BRANCH  24  25
ATOM     25  N   UNL     1      46.697 -35.803 -54.637  0.00  0.00    -0.295 N 
ATOM     26  H   UNL     1      46.230 -34.952 -54.946  0.00  0.00    +0.000 HD
BRANCH  25  28
ATOM     27  C   UNL     1      46.600 -36.220 -57.108  0.00  0.00    -0.052 C 
ATOM     28  C   UNL     1      47.369 -36.398 -55.804  0.00  0.00    -0.003 C 
ENDBRANCH  25  28
BRANCH  25  29
ATOM     29  C   UNL     1      45.627 -36.652 -54.095  0.00  0.00    -0.003 C 
ATOM     30  C   UNL     1      44.291 -35.923 -54.169  0.00  0.00    -0.052 C 
ENDBRANCH  25  29
ENDBRANCH  24  25
ENDBRANCH   1  24
TORSDOF 6
ENDMDL
MODEL 14
REMARK VINA RESULT:    -5.619     19.074     22.079
REMARK INTER + INTRA:          -8.596
REMARK INTER:                  -7.890
REMARK INTRA:                  -0.705
REMARK UNBOUND:                -1.170
REMARK  Name = cpd319.pdb
REMARK  9 active torsions:
REMARK  status: ('A' for Active; 'I' for Inactive)
REMARK    1  A    between atoms: C_1  and  C_2
REMARK    2  A    between atoms: C_2  and  N_3
REMARK    3  A    between atoms: N_3  and  C_4
REMARK    4  A    between atoms: N_3  and  C_6
REMARK    5  A    between atoms: C_4  and  C_5
REMARK    6  A    between atoms: C_6  and  C_7
REMARK    7  A    between atoms: C_15  and  O_16
REMARK    8  A    between atoms: C_21  and  O_22
REMARK    9  A    between atoms: O_22  and  C_23
REMARK                            x       y       z     vdW  Elec       q    Type
REMARK                         _______ _______ _______ _____ _____    ______ ____
ROOT
ATOM      1  C   UNL     1      42.892 -19.603 -37.075  0.00  0.00    +0.230 C 
ATOM      2  O   UNL     1      41.939 -18.823 -37.170  0.00  0.00    -0.274 OA
ATOM      3  N   UNL     1      44.194 -19.179 -37.341  0.00  0.00    -0.296 N 
ATOM      4  C   UNL     1      45.396 -19.962 -37.111  0.00  0.00    +0.016 C 
ATOM      5  C   UNL     1      45.817 -20.760 -38.344  0.00  0.00    -0.020 C 
ATOM      6  C   UNL     1      45.748 -19.997 -39.690  0.00  0.00    +0.056 C 
ATOM      7  C   UNL     1      44.418 -20.245 -40.393  0.00  0.00    -0.071 C 
ATOM      8  C   UNL     1      44.297 -20.867 -41.576  0.00  0.00    -0.059 C 
ATOM      9  C   UNL     1      45.461 -21.411 -42.342  0.00  0.00    +0.077 C 
ATOM     10  C   UNL     1      46.698 -21.606 -41.470  0.00  0.00    +0.015 C 
ATOM     11  C   UNL     1      46.966 -20.400 -40.577  0.00  0.00    +0.116 C 
ATOM     12  O   UNL     1      47.338 -19.262 -41.385  0.00  0.00    -0.484 OA
ATOM     13  C   UNL     1      46.943 -18.178 -40.636  0.00  0.00    +0.167 A 
ATOM     14  C   UNL     1      47.344 -16.867 -40.852  0.00  0.00    +0.162 A 
ATOM     15  C   UNL     1      46.811 -15.891 -40.007  0.00  0.00    -0.016 A 
ATOM     16  C   UNL     1      45.886 -16.219 -39.005  0.00  0.00    -0.053 A 
ATOM     17  C   UNL     1      45.469 -17.545 -38.799  0.00  0.00    -0.022 A 
ATOM     18  C   UNL     1      46.031 -18.522 -39.626  0.00  0.00    +0.016 A 
ATOM     19  C   UNL     1      44.386 -17.794 -37.768  0.00  0.00    +0.040 C 
ENDROOT
BRANCH   9  20
ATOM     20  O   UNL     1      45.097 -22.683 -42.867  0.00  0.00    -0.388 OA
ATOM     21  H   UNL     1      44.627 -23.191 -42.187  0.00  0.00    +0.000 HD
ENDBRANCH   9  20
BRANCH  14  22
ATOM     22  O   UNL     1      48.210 -16.384 -41.788  0.00  0.00    -0.491 OA
ATOM     23  C   UNL     1      48.224 -14.980 -42.008  0.00  0.00    +0.079 C 
ENDBRANCH  14  22
BRANCH   1  24
ATOM     24  C   UNL     1      42.652 -21.085 -36.715  0.00  0.00    +0.076 C 
BRANCH  24  25
ATOM     25  N   UNL     1      41.271 -21.510 -37.046  0.00  0.00    -0.295 N 
ATOM     26  H   UNL     1      40.723 -20.686 -37.292  0.00  0.00    +0.000 HD
BRANCH  25  28
ATOM     27  C   UNL     1      41.068 -21.677 -39.541  0.00  0.00    -0.052 C 
ATOM     28  C   UNL     1      41.296 -22.400 -38.218  0.00  0.00    -0.003 C 
ENDBRANCH  25  28
BRANCH  25  29
ATOM     29  C   UNL     1      40.579 -22.100 -35.891  0.00  0.00    -0.003 C 
ATOM     30  C   UNL     1      39.466 -23.027 -36.363  0.00  0.00    -0.052 C 
ENDBRANCH  25  29
ENDBRANCH  24  25
ENDBRANCH   1  24
TORSDOF 6
ENDMDL
MODEL 15
REMARK VINA RESULT:    -5.601     16.510     19.732
REMARK INTER + INTRA:          -8.572
REMARK INTER:                  -7.482
REMARK INTRA:                  -1.090
REMARK UNBOUND:                -1.170
REMARK  Name = cpd319.pdb
REMARK  9 active torsions:
REMARK  status: ('A' for Active; 'I' for Inactive)
REMARK    1  A    between atoms: C_1  and  C_2
REMARK    2  A    between atoms: C_2  and  N_3
REMARK    3  A    between atoms: N_3  and  C_4
REMARK    4  A    between atoms: N_3  and  C_6
REMARK    5  A    between atoms: C_4  and  C_5
REMARK    6  A    between atoms: C_6  and  C_7
REMARK    7  A    between atoms: C_15  and  O_16
REMARK    8  A    between atoms: C_21  and  O_22
REMARK    9  A    between atoms: O_22  and  C_23
REMARK                            x       y       z     vdW  Elec       q    Type
REMARK                         _______ _______ _______ _____ _____    ______ ____
ROOT
ATOM      1  C   UNL     1      44.743 -18.964 -35.262  0.00  0.00    +0.230 C 
ATOM      2  O   UNL     1      45.603 -19.620 -34.665  0.00  0.00    -0.274 OA
ATOM      3  N   UNL     1      43.409 -18.992 -34.855  0.00  0.00    -0.296 N 
ATOM      4  C   UNL     1      42.352 -18.146 -35.382  0.00  0.00    +0.016 C 
ATOM      5  C   UNL     1      41.608 -18.799 -36.544  0.00  0.00    -0.020 C 
ATOM      6  C   UNL     1      41.253 -20.296 -36.356  0.00  0.00    +0.056 C 
ATOM      7  C   UNL     1      42.322 -21.193 -36.971  0.00  0.00    -0.071 C 
ATOM      8  C   UNL     1      42.105 -22.024 -38.001  0.00  0.00    -0.059 C 
ATOM      9  C   UNL     1      40.782 -22.155 -38.687  0.00  0.00    +0.077 C 
ATOM     10  C   UNL     1      39.865 -20.964 -38.426  0.00  0.00    +0.015 C 
ATOM     11  C   UNL     1      39.839 -20.572 -36.953  0.00  0.00    +0.116 C 
ATOM     12  O   UNL     1      39.212 -21.616 -36.176  0.00  0.00    -0.484 OA
ATOM     13  C   UNL     1      39.781 -21.491 -34.931  0.00  0.00    +0.167 A 
ATOM     14  C   UNL     1      39.297 -22.074 -33.768  0.00  0.00    +0.162 A 
ATOM     15  C   UNL     1      40.028 -21.863 -32.597  0.00  0.00    -0.016 A 
ATOM     16  C   UNL     1      41.218 -21.119 -32.604  0.00  0.00    -0.053 A 
ATOM     17  C   UNL     1      41.715 -20.543 -33.786  0.00  0.00    -0.022 A 
ATOM     18  C   UNL     1      40.960 -20.730 -34.948  0.00  0.00    +0.016 A 
ATOM     19  C   UNL     1      43.060 -19.849 -33.722  0.00  0.00    +0.040 C 
ENDROOT
BRANCH   9  20
ATOM     20  O   UNL     1      41.010 -22.227 -40.090  0.00  0.00    -0.388 OA
ATOM     21  H   UNL     1      40.161 -22.197 -40.558  0.00  0.00    +0.000 HD
ENDBRANCH   9  20
BRANCH  14  22
ATOM     22  O   UNL     1      38.180 -22.838 -33.599  0.00  0.00    -0.491 OA
ATOM     23  C   UNL     1      38.316 -24.244 -33.751  0.00  0.00    +0.079 C 
ENDBRANCH  14  22
BRANCH   1  24
ATOM     24  C   UNL     1      45.121 -18.142 -36.513  0.00  0.00    +0.076 C 
BRANCH  24  25
ATOM     25  N   UNL     1      45.162 -18.987 -37.730  0.00  0.00    -0.295 N 
ATOM     26  H   UNL     1      44.590 -19.817 -37.573  0.00  0.00    +0.000 HD
BRANCH  25  28
ATOM     27  C   UNL     1      43.566 -19.054 -39.663  0.00  0.00    -0.052 C 
ATOM     28  C   UNL     1      44.585 -18.248 -38.864  0.00  0.00    -0.003 C 
ENDBRANCH  25  28
BRANCH  25  29
ATOM     29  C   UNL     1      46.512 -19.499 -38.004  0.00  0.00    -0.003 C 
ATOM     30  C   UNL     1      46.445 -20.969 -38.402  0.00  0.00    -0.052 C 
ENDBRANCH  25  29
ENDBRANCH  24  25
ENDBRANCH   1  24
TORSDOF 6
ENDMDL
MODEL 16
REMARK VINA RESULT:    -5.536     20.420     23.942
REMARK INTER + INTRA:          -8.486
REMARK INTER:                  -7.935
REMARK INTRA:                  -0.550
REMARK UNBOUND:                -1.170
REMARK  Name = cpd319.pdb
REMARK  9 active torsions:
REMARK  status: ('A' for Active; 'I' for Inactive)
REMARK    1  A    between atoms: C_1  and  C_2
REMARK    2  A    between atoms: C_2  and  N_3
REMARK    3  A    between atoms: N_3  and  C_4
REMARK    4  A    between atoms: N_3  and  C_6
REMARK    5  A    between atoms: C_4  and  C_5
REMARK    6  A    between atoms: C_6  and  C_7
REMARK    7  A    between atoms: C_15  and  O_16
REMARK    8  A    between atoms: C_21  and  O_22
REMARK    9  A    between atoms: O_22  and  C_23
REMARK                            x       y       z     vdW  Elec       q    Type
REMARK                         _______ _______ _______ _____ _____    ______ ____
ROOT
ATOM      1  C   UNL     1      46.201 -16.501 -39.547  0.00  0.00    +0.230 C 
ATOM      2  O   UNL     1      46.670 -16.353 -38.414  0.00  0.00    -0.274 OA
ATOM      3  N   UNL     1      44.993 -17.172 -39.741  0.00  0.00    -0.296 N 
ATOM      4  C   UNL     1      44.277 -17.266 -41.001  0.00  0.00    +0.016 C 
ATOM      5  C   UNL     1      44.653 -18.516 -41.793  0.00  0.00    -0.020 C 
ATOM      6  C   UNL     1      44.756 -19.824 -40.970  0.00  0.00    +0.056 C 
ATOM      7  C   UNL     1      46.193 -20.078 -40.524  0.00  0.00    -0.071 C 
ATOM      8  C   UNL     1      46.927 -21.129 -40.919  0.00  0.00    -0.059 C 
ATOM      9  C   UNL     1      46.426 -22.175 -41.864  0.00  0.00    +0.077 C 
ATOM     10  C   UNL     1      45.222 -21.705 -42.674  0.00  0.00    +0.015 C 
ATOM     11  C   UNL     1      44.181 -21.009 -41.805  0.00  0.00    +0.116 C 
ATOM     12  O   UNL     1      43.585 -21.960 -40.895  0.00  0.00    -0.484 OA
ATOM     13  C   UNL     1      43.199 -21.195 -39.819  0.00  0.00    +0.167 A 
ATOM     14  C   UNL     1      42.325 -21.601 -38.821  0.00  0.00    +0.162 A 
ATOM     15  C   UNL     1      42.075 -20.698 -37.786  0.00  0.00    -0.016 A 
ATOM     16  C   UNL     1      42.706 -19.446 -37.742  0.00  0.00    -0.053 A 
ATOM     17  C   UNL     1      43.604 -19.042 -38.746  0.00  0.00    -0.022 A 
ATOM     18  C   UNL     1      43.824 -19.938 -39.796  0.00  0.00    +0.016 A 
ATOM     19  C   UNL     1      44.322 -17.720 -38.563  0.00  0.00    +0.040 C 
ENDROOT
BRANCH   9  20
ATOM     20  O   UNL     1      47.470 -22.487 -42.780  0.00  0.00    -0.388 OA
ATOM     21  H   UNL     1      47.920 -23.298 -42.494  0.00  0.00    +0.000 HD
ENDBRANCH   9  20
BRANCH  14  22
ATOM     22  O   UNL     1      41.653 -22.783 -38.705  0.00  0.00    -0.491 OA
ATOM     23  C   UNL     1      40.506 -22.969 -39.522  0.00  0.00    +0.079 C 
ENDBRANCH  14  22
BRANCH   1  24
ATOM     24  C   UNL     1      46.976 -15.995 -40.783  0.00  0.00    +0.076 C 
BRANCH  24  25
ATOM     25  N   UNL     1      47.022 -14.514 -40.828  0.00  0.00    -0.295 N 
ATOM     26  H   UNL     1      46.845 -14.150 -39.892  0.00  0.00    +0.000 HD
BRANCH  25  28
ATOM     27  C   UNL     1      49.342 -13.930 -40.075  0.00  0.00    -0.052 C 
ATOM     28  C   UNL     1      48.365 -14.073 -41.237  0.00  0.00    -0.003 C 
ENDBRANCH  25  28
BRANCH  25  29
ATOM     29  C   UNL     1      45.953 -13.951 -41.665  0.00  0.00    -0.003 C 
ATOM     30  C   UNL     1      46.547 -13.043 -42.736  0.00  0.00    -0.052 C 
ENDBRANCH  25  29
ENDBRANCH  24  25
ENDBRANCH   1  24
TORSDOF 6
ENDMDL
MODEL 17
REMARK VINA RESULT:    -5.530     18.130     21.037
REMARK INTER + INTRA:          -8.478
REMARK INTER:                  -7.457
REMARK INTRA:                  -1.021
REMARK UNBOUND:                -1.170
REMARK  Name = cpd319.pdb
REMARK  9 active torsions:
REMARK  status: ('A' for Active; 'I' for Inactive)
REMARK    1  A    between atoms: C_1  and  C_2
REMARK    2  A    between atoms: C_2  and  N_3
REMARK    3  A    between atoms: N_3  and  C_4
REMARK    4  A    between atoms: N_3  and  C_6
REMARK    5  A    between atoms: C_4  and  C_5
REMARK    6  A    between atoms: C_6  and  C_7
REMARK    7  A    between atoms: C_15  and  O_16
REMARK    8  A    between atoms: C_21  and  O_22
REMARK    9  A    between atoms: O_22  and  C_23
REMARK                            x       y       z     vdW  Elec       q    Type
REMARK                         _______ _______ _______ _____ _____    ______ ____
ROOT
ATOM      1  C   UNL     1      41.387 -20.692 -37.006  0.00  0.00    +0.230 C 
ATOM      2  O   UNL     1      41.094 -21.891 -36.964  0.00  0.00    -0.274 OA
ATOM      3  N   UNL     1      42.051 -20.154 -38.108  0.00  0.00    -0.296 N 
ATOM      4  C   UNL     1      42.303 -18.741 -38.330  0.00  0.00    +0.016 C 
ATOM      5  C   UNL     1      43.659 -18.297 -37.785  0.00  0.00    -0.020 C 
ATOM      6  C   UNL     1      44.842 -19.254 -38.076  0.00  0.00    +0.056 C 
ATOM      7  C   UNL     1      45.063 -20.219 -36.916  0.00  0.00    -0.071 C 
ATOM      8  C   UNL     1      46.175 -20.249 -36.165  0.00  0.00    -0.059 C 
ATOM      9  C   UNL     1      47.330 -19.320 -36.367  0.00  0.00    +0.077 C 
ATOM     10  C   UNL     1      46.950 -18.076 -37.165  0.00  0.00    +0.015 C 
ATOM     11  C   UNL     1      46.118 -18.416 -38.397  0.00  0.00    +0.116 C 
ATOM     12  O   UNL     1      46.921 -19.154 -39.344  0.00  0.00    -0.484 OA
ATOM     13  C   UNL     1      46.006 -19.914 -40.035  0.00  0.00    +0.167 A 
ATOM     14  C   UNL     1      46.251 -20.567 -41.235  0.00  0.00    +0.162 A 
ATOM     15  C   UNL     1      45.208 -21.322 -41.774  0.00  0.00    -0.016 A 
ATOM     16  C   UNL     1      43.976 -21.441 -41.113  0.00  0.00    -0.053 A 
ATOM     17  C   UNL     1      43.735 -20.792 -39.890  0.00  0.00    -0.022 A 
ATOM     18  C   UNL     1      44.773 -20.011 -39.372  0.00  0.00    +0.016 A 
ATOM     19  C   UNL     1      42.417 -21.063 -39.193  0.00  0.00    +0.040 C 
ENDROOT
BRANCH   9  20
ATOM     20  O   UNL     1      47.789 -18.892 -35.090  0.00  0.00    -0.388 OA
ATOM     21  H   UNL     1      48.248 -18.042 -35.179  0.00  0.00    +0.000 HD
ENDBRANCH   9  20
BRANCH  14  22
ATOM     22  O   UNL     1      47.391 -20.571 -41.985  0.00  0.00    -0.491 OA
ATOM     23  C   UNL     1      48.165 -21.762 -41.995  0.00  0.00    +0.079 C 
ENDBRANCH  14  22
BRANCH   1  24
ATOM     24  C   UNL     1      41.073 -19.772 -35.806  0.00  0.00    +0.076 C 
BRANCH  24  25
ATOM     25  N   UNL     1      42.148 -19.820 -34.786  0.00  0.00    -0.295 N 
ATOM     26  H   UNL     1      43.000 -20.172 -35.222  0.00  0.00    +0.000 HD
BRANCH  25  28
ATOM     27  C   UNL     1      43.900 -18.194 -34.024  0.00  0.00    -0.052 C 
ATOM     28  C   UNL     1      42.423 -18.461 -34.293  0.00  0.00    -0.003 C 
ENDBRANCH  25  28
BRANCH  25  29
ATOM     29  C   UNL     1      41.848 -20.773 -33.708  0.00  0.00    -0.003 C 
ATOM     30  C   UNL     1      40.984 -20.107 -32.644  0.00  0.00    -0.052 C 
ENDBRANCH  25  29
ENDBRANCH  24  25
ENDBRANCH   1  24
TORSDOF 6
ENDMDL
MODEL 18
REMARK VINA RESULT:    -5.508     16.572     20.052
REMARK INTER + INTRA:          -8.449
REMARK INTER:                  -7.970
REMARK INTRA:                  -0.479
REMARK UNBOUND:                -1.170
REMARK  Name = cpd319.pdb
REMARK  9 active torsions:
REMARK  status: ('A' for Active; 'I' for Inactive)
REMARK    1  A    between atoms: C_1  and  C_2
REMARK    2  A    between atoms: C_2  and  N_3
REMARK    3  A    between atoms: N_3  and  C_4
REMARK    4  A    between atoms: N_3  and  C_6
REMARK    5  A    between atoms: C_4  and  C_5
REMARK    6  A    between atoms: C_6  and  C_7
REMARK    7  A    between atoms: C_15  and  O_16
REMARK    8  A    between atoms: C_21  and  O_22
REMARK    9  A    between atoms: O_22  and  C_23
REMARK                            x       y       z     vdW  Elec       q    Type
REMARK                         _______ _______ _______ _____ _____    ______ ____
ROOT
ATOM      1  C   UNL     1      42.448 -20.043 -39.340  0.00  0.00    +0.230 C 
ATOM      2  O   UNL     1      42.812 -18.873 -39.499  0.00  0.00    -0.274 OA
ATOM      3  N   UNL     1      41.118 -20.347 -39.055  0.00  0.00    -0.296 N 
ATOM      4  C   UNL     1      40.554 -21.685 -39.004  0.00  0.00    +0.016 C 
ATOM      5  C   UNL     1      40.587 -22.279 -37.598  0.00  0.00    -0.020 C 
ATOM      6  C   UNL     1      40.167 -21.320 -36.456  0.00  0.00    +0.056 C 
ATOM      7  C   UNL     1      41.385 -20.639 -35.839  0.00  0.00    -0.071 C 
ATOM      8  C   UNL     1      41.775 -20.808 -34.566  0.00  0.00    -0.059 C 
ATOM      9  C   UNL     1      41.069 -21.706 -33.600  0.00  0.00    +0.077 C 
ATOM     10  C   UNL     1      40.181 -22.733 -34.297  0.00  0.00    +0.015 C 
ATOM     11  C   UNL     1      39.333 -22.106 -35.398  0.00  0.00    +0.116 C 
ATOM     12  O   UNL     1      38.363 -21.205 -34.821  0.00  0.00    -0.484 OA
ATOM     13  C   UNL     1      38.132 -20.284 -35.815  0.00  0.00    +0.167 A 
ATOM     14  C   UNL     1      37.068 -19.393 -35.848  0.00  0.00    +0.162 A 
ATOM     15  C   UNL     1      37.014 -18.505 -36.925  0.00  0.00    -0.016 A 
ATOM     16  C   UNL     1      38.009 -18.495 -37.914  0.00  0.00    -0.053 A 
ATOM     17  C   UNL     1      39.094 -19.388 -37.870  0.00  0.00    -0.022 A 
ATOM     18  C   UNL     1      39.125 -20.295 -36.807  0.00  0.00    +0.016 A 
ATOM     19  C   UNL     1      40.179 -19.235 -38.917  0.00  0.00    +0.040 C 
ENDROOT
BRANCH   9  20
ATOM     20  O   UNL     1      42.048 -22.417 -32.852  0.00  0.00    -0.388 OA
ATOM     21  H   UNL     1      41.721 -23.310 -32.657  0.00  0.00    +0.000 HD
ENDBRANCH   9  20
BRANCH  14  22
ATOM     22  O   UNL     1      36.040 -19.260 -34.962  0.00  0.00    -0.491 OA
ATOM     23  C   UNL     1      35.024 -18.315 -35.271  0.00  0.00    +0.079 C 
ENDBRANCH  14  22
BRANCH   1  24
ATOM     24  C   UNL     1      43.478 -21.192 -39.397  0.00  0.00    +0.076 C 
BRANCH  24  25
ATOM     25  N   UNL     1      44.394 -21.047 -40.553  0.00  0.00    -0.295 N 
ATOM     26  H   UNL     1      44.786 -20.106 -40.547  0.00  0.00    +0.000 HD
BRANCH  25  28
ATOM     27  C   UNL     1      46.841 -21.341 -40.087  0.00  0.00    -0.052 C 
ATOM     28  C   UNL     1      45.508 -22.000 -40.424  0.00  0.00    -0.003 C 
ENDBRANCH  25  28
BRANCH  25  29
ATOM     29  C   UNL     1      43.688 -21.158 -41.838  0.00  0.00    -0.003 C 
ATOM     30  C   UNL     1      44.283 -20.186 -42.849  0.00  0.00    -0.052 C 
ENDBRANCH  25  29
ENDBRANCH  24  25
ENDBRANCH   1  24
TORSDOF 6
ENDMDL
MODEL 19
REMARK VINA RESULT:    -5.504     18.424     21.309
REMARK INTER + INTRA:          -8.444
REMARK INTER:                  -7.551
REMARK INTRA:                  -0.893
REMARK UNBOUND:                -1.170
REMARK  Name = cpd319.pdb
REMARK  9 active torsions:
REMARK  status: ('A' for Active; 'I' for Inactive)
REMARK    1  A    between atoms: C_1  and  C_2
REMARK    2  A    between atoms: C_2  and  N_3
REMARK    3  A    between atoms: N_3  and  C_4
REMARK    4  A    between atoms: N_3  and  C_6
REMARK    5  A    between atoms: C_4  and  C_5
REMARK    6  A    between atoms: C_6  and  C_7
REMARK    7  A    between atoms: C_15  and  O_16
REMARK    8  A    between atoms: C_21  and  O_22
REMARK    9  A    between atoms: O_22  and  C_23
REMARK                            x       y       z     vdW  Elec       q    Type
REMARK                         _______ _______ _______ _____ _____    ______ ____
ROOT
ATOM      1  C   UNL     1      46.186 -19.555 -39.497  0.00  0.00    +0.230 C 
ATOM      2  O   UNL     1      47.152 -20.031 -38.892  0.00  0.00    -0.274 OA
ATOM      3  N   UNL     1      45.198 -18.839 -38.821  0.00  0.00    -0.296 N 
ATOM      4  C   UNL     1      44.111 -18.110 -39.450  0.00  0.00    +0.016 C 
ATOM      5  C   UNL     1      42.850 -18.958 -39.599  0.00  0.00    -0.020 C 
ATOM      6  C   UNL     1      42.471 -19.816 -38.367  0.00  0.00    +0.056 C 
ATOM      7  C   UNL     1      43.035 -21.228 -38.490  0.00  0.00    -0.071 C 
ATOM      8  C   UNL     1      42.279 -22.334 -38.578  0.00  0.00    -0.059 C 
ATOM      9  C   UNL     1      40.783 -22.310 -38.586  0.00  0.00    +0.077 C 
ATOM     10  C   UNL     1      40.220 -20.939 -38.945  0.00  0.00    +0.015 C 
ATOM     11  C   UNL     1      40.921 -19.815 -38.191  0.00  0.00    +0.116 C 
ATOM     12  O   UNL     1      40.622 -19.908 -36.780  0.00  0.00    -0.484 OA
ATOM     13  C   UNL     1      41.714 -19.334 -36.171  0.00  0.00    +0.167 A 
ATOM     14  C   UNL     1      41.767 -18.927 -34.845  0.00  0.00    +0.162 A 
ATOM     15  C   UNL     1      42.975 -18.394 -34.391  0.00  0.00    -0.016 A 
ATOM     16  C   UNL     1      44.095 -18.304 -35.231  0.00  0.00    -0.053 A 
ATOM     17  C   UNL     1      44.044 -18.733 -36.569  0.00  0.00    -0.022 A 
ATOM     18  C   UNL     1      42.822 -19.234 -37.026  0.00  0.00    +0.016 A 
ATOM     19  C   UNL     1      45.329 -18.701 -37.372  0.00  0.00    +0.040 C 
ENDROOT
BRANCH   9  20
ATOM     20  O   UNL     1      40.327 -23.237 -39.565  0.00  0.00    -0.388 OA
ATOM     21  H   UNL     1      40.060 -22.756 -40.365  0.00  0.00    +0.000 HD
ENDBRANCH   9  20
BRANCH  14  22
ATOM     22  O   UNL     1      40.784 -18.967 -33.901  0.00  0.00    -0.491 OA
ATOM     23  C   UNL     1      40.771 -20.075 -33.012  0.00  0.00    +0.079 C 
ENDBRANCH  14  22
BRANCH   1  24
ATOM     24  C   UNL     1      46.023 -19.796 -41.013  0.00  0.00    +0.076 C 
BRANCH  24  25
ATOM     25  N   UNL     1      45.612 -21.191 -41.303  0.00  0.00    -0.295 N 
ATOM     26  H   UNL     1      45.393 -21.659 -40.424  0.00  0.00    +0.000 HD
BRANCH  25  28
ATOM     27  C   UNL     1      44.238 -19.933 -42.983  0.00  0.00    -0.052 C 
ATOM     28  C   UNL     1      44.392 -21.186 -42.127  0.00  0.00    -0.003 C 
ENDBRANCH  25  28
BRANCH  25  29
ATOM     29  C   UNL     1      46.702 -21.979 -41.895  0.00  0.00    -0.003 C 
ATOM     30  C   UNL     1      47.180 -23.038 -40.909  0.00  0.00    -0.052 C 
ENDBRANCH  25  29
ENDBRANCH  24  25
ENDBRANCH   1  24
TORSDOF 6
ENDMDL
MODEL 20
REMARK VINA RESULT:    -5.062      2.474      6.934
REMARK INTER + INTRA:          -7.859
REMARK INTER:                  -7.367
REMARK INTRA:                  -0.492
REMARK UNBOUND:                -1.170
REMARK  Name = cpd319.pdb
REMARK  9 active torsions:
REMARK  status: ('A' for Active; 'I' for Inactive)
REMARK    1  A    between atoms: C_1  and  C_2
REMARK    2  A    between atoms: C_2  and  N_3
REMARK    3  A    between atoms: N_3  and  C_4
REMARK    4  A    between atoms: N_3  and  C_6
REMARK    5  A    between atoms: C_4  and  C_5
REMARK    6  A    between atoms: C_6  and  C_7
REMARK    7  A    between atoms: C_15  and  O_16
REMARK    8  A    between atoms: C_21  and  O_22
REMARK    9  A    between atoms: O_22  and  C_23
REMARK                            x       y       z     vdW  Elec       q    Type
REMARK                         _______ _______ _______ _____ _____    ______ ____
ROOT
ATOM      1  C   UNL     1      36.323 -35.741 -30.929  0.00  0.00    +0.230 C 
ATOM      2  O   UNL     1      36.996 -34.711 -30.815  0.00  0.00    -0.274 OA
ATOM      3  N   UNL     1      34.995 -35.686 -31.349  0.00  0.00    -0.296 N 
ATOM      4  C   UNL     1      34.166 -36.837 -31.665  0.00  0.00    +0.016 C 
ATOM      5  C   UNL     1      33.361 -37.324 -30.463  0.00  0.00    -0.020 C 
ATOM      6  C   UNL     1      32.692 -36.216 -29.611  0.00  0.00    +0.056 C 
ATOM      7  C   UNL     1      33.579 -35.818 -28.437  0.00  0.00    -0.071 C 
ATOM      8  C   UNL     1      33.245 -35.992 -27.149  0.00  0.00    -0.059 C 
ATOM      9  C   UNL     1      31.960 -36.620 -26.711  0.00  0.00    +0.077 C 
ATOM     10  C   UNL     1      31.300 -37.440 -27.816  0.00  0.00    +0.015 C 
ATOM     11  C   UNL     1      31.283 -36.699 -29.148  0.00  0.00    +0.116 C 
ATOM     12  O   UNL     1      30.413 -35.548 -29.060  0.00  0.00    -0.484 OA
ATOM     13  C   UNL     1      30.932 -34.668 -29.980  0.00  0.00    +0.167 A 
ATOM     14  C   UNL     1      30.279 -33.546 -30.470  0.00  0.00    +0.162 A 
ATOM     15  C   UNL     1      30.978 -32.747 -31.377  0.00  0.00    -0.016 A 
ATOM     16  C   UNL     1      32.296 -33.050 -31.752  0.00  0.00    -0.053 A 
ATOM     17  C   UNL     1      32.961 -34.179 -31.242  0.00  0.00    -0.022 A 
ATOM     18  C   UNL     1      32.244 -34.992 -30.360  0.00  0.00    +0.016 A 
ATOM     19  C   UNL     1      34.418 -34.369 -31.615  0.00  0.00    +0.040 C 
ENDROOT
BRANCH   9  20
ATOM     20  O   UNL     1      32.239 -37.500 -25.627  0.00  0.00    -0.388 OA
ATOM     21  H   UNL     1      32.403 -38.393 -25.969  0.00  0.00    +0.000 HD
ENDBRANCH   9  20
BRANCH  14  22
ATOM     22  O   UNL     1      29.020 -33.103 -30.191  0.00  0.00    -0.491 OA
ATOM     23  C   UNL     1      28.854 -32.266 -29.055  0.00  0.00    +0.079 C 
ENDBRANCH  14  22
BRANCH   1  24
ATOM     24  C   UNL     1      36.928 -37.110 -30.551  0.00  0.00    +0.076 C 
BRANCH  24  25
ATOM     25  N   UNL     1      38.217 -36.959 -29.834  0.00  0.00    -0.295 N 
ATOM     26  H   UNL     1      38.235 -36.047 -29.379  0.00  0.00    +0.000 HD
BRANCH  25  28
ATOM     27  C   UNL     1      37.182 -37.952 -27.776  0.00  0.00    -0.052 C 
ATOM     28  C   UNL     1      38.323 -37.988 -28.787  0.00  0.00    -0.003 C 
ENDBRANCH  25  28
BRANCH  25  29
ATOM     29  C   UNL     1      39.364 -36.952 -30.752  0.00  0.00    -0.003 C 
ATOM     30  C   UNL     1      40.668 -36.956 -29.963  0.00  0.00    -0.052 C 
ENDBRANCH  25  29
ENDBRANCH  24  25
ENDBRANCH   1  24
TORSDOF 6
ENDMDL
