REMARK  Name = cpd319.pdb
REMARK  9 active torsions:
REMARK  status: ('A' for Active; 'I' for Inactive)
REMARK    1  A    between atoms: C_1  and  C_2
REMARK    2  A    between atoms: C_2  and  N_3
REMARK    3  A    between atoms: N_3  and  C_4
REMARK    4  A    between atoms: N_3  and  C_6
REMARK    5  A    between atoms: C_4  and  C_5
REMARK    6  A    between atoms: C_6  and  C_7
REMARK    7  A    between atoms: C_15  and  O_16
REMARK    8  A    between atoms: C_21  and  O_22
REMARK    9  A    between atoms: O_22  and  C_23
REMARK                            x       y       z     vdW  Elec       q    Type
REMARK                         _______ _______ _______ _____ _____    ______ ____
ROOT
ATOM      1  C   UNL     1       0.748   2.045   0.817  0.00  0.00    +0.230 C 
ATOM      2  O   UNL     1       0.283   2.338   1.923  0.00  0.00    -0.274 OA
ATOM      3  N   UNL     1       0.269   0.945   0.106  0.00  0.00    -0.296 N 
ATOM      4  C   UNL     1       0.631   0.604  -1.259  0.00  0.00    +0.016 C 
ATOM      5  C   UNL     1       1.815  -0.358  -1.325  0.00  0.00    -0.020 C 
ATOM      6  C   UNL     1       1.780  -1.533  -0.316  0.00  0.00    +0.056 C 
ATOM      7  C   UNL     1       2.556  -1.189   0.951  0.00  0.00    -0.071 C 
ATOM      8  C   UNL     1       3.661  -1.835   1.354  0.00  0.00    -0.059 C 
ATOM      9  C   UNL     1       4.278  -2.965   0.592  0.00  0.00    +0.077 C 
ATOM     10  C   UNL     1       3.827  -3.005  -0.865  0.00  0.00    +0.015 C 
ATOM     11  C   UNL     1       2.320  -2.824  -1.005  0.00  0.00    +0.116 C 
ATOM     12  O   UNL     1       1.633  -3.963  -0.441  0.00  0.00    -0.484 OA
ATOM     13  C   UNL     1       0.417  -3.456  -0.046  0.00  0.00    +0.167 A 
ATOM     14  C   UNL     1      -0.697  -4.215   0.283  0.00  0.00    +0.162 A 
ATOM     15  C   UNL     1      -1.839  -3.525   0.695  0.00  0.00    -0.016 A 
ATOM     16  C   UNL     1      -1.848  -2.126   0.801  0.00  0.00    -0.053 A 
ATOM     17  C   UNL     1      -0.713  -1.360   0.482  0.00  0.00    -0.022 A 
ATOM     18  C   UNL     1       0.416  -2.055   0.039  0.00  0.00    +0.016 A 
ATOM     19  C   UNL     1      -0.776   0.134   0.729  0.00  0.00    +0.040 C 
ENDROOT
BRANCH   9  20
ATOM     20  O   UNL     1       5.691  -2.794   0.604  0.00  0.00    -0.388 OA
ATOM     21  H   UNL     1       5.919  -1.957   0.169  0.00  0.00    +0.000 HD
ENDBRANCH   9  20
BRANCH  14  22
ATOM     22  O   UNL     1      -0.843  -5.571   0.256  0.00  0.00    -0.491 OA
ATOM     23  C   UNL     1       0.298  -6.348  -0.080  0.00  0.00    +0.079 C 
ENDBRANCH  14  22
BRANCH   1  24
ATOM     24  C   UNL     1       1.916   2.862   0.223  0.00  0.00    +0.076 C 
BRANCH  24  25
ATOM     25  N   UNL     1       1.592   4.307   0.155  0.00  0.00    -0.295 N 
ATOM     26  H   UNL     1       1.230   4.606   1.060  0.00  0.00    +0.000 HD
BRANCH  25  28
ATOM     27  C   UNL     1       2.643   6.582   0.047  0.00  0.00    -0.052 C 
ATOM     28  C   UNL     1       2.817   5.076  -0.117  0.00  0.00    -0.003 C 
ENDBRANCH  25  28
BRANCH  25  29
ATOM     29  C   UNL     1       0.512   4.589  -0.801  0.00  0.00    -0.003 C 
ATOM     30  C   UNL     1      -0.574   5.425  -0.135  0.00  0.00    -0.052 C 
ENDBRANCH  25  29
ENDBRANCH  24  25
ENDBRANCH   1  24
TORSDOF 6
