@<TRIPOS>MOLECULE
*****
 28 31 0 0 0
SMALL
GASTEIGER

@<TRIPOS>ATOM
      1 C           1.8140    4.5758    0.0000 C.3     1  UNL1        0.0188
      2 C           1.9696    3.6040    0.0000 C.3     1  UNL1        0.0726
      3 N           1.2059    2.9834    0.0000 N.3     1  UNL1       -0.2651
      4 C           0.2866    3.3345    0.0000 C.3     1  UNL1        0.0726
      5 C           0.1309    4.3062    0.0000 C.3     1  UNL1        0.0188
      6 C           1.3615    2.0117    0.0000 C.3     1  UNL1        0.1587
      7 C           0.5978    1.3910    0.0000 C.2     1  UNL1        0.2423
      8 O          -0.3216    1.7421    0.0000 O.2     1  UNL1       -0.2733
      9 N           0.7534    0.4193    0.0000 N.am    1  UNL1       -0.2743
     10 C           1.6000    0.2562    0.0000 C.3     1  UNL1        0.0945
     11 C           2.1438   -0.4129    0.0000 C.3     1  UNL1        0.0332
     12 C           2.1302   -1.2750    0.0000 C.3     1  UNL1        0.0783
     13 C           2.9431   -0.8061    0.0000 C.2     1  UNL1       -0.0211
     14 C           3.7553   -1.2753    0.0000 C.2     1  UNL1        0.0021
     15 C           3.7551   -2.2139    0.0000 C.3     1  UNL1        0.1773
     16 O           4.5885   -2.6952    0.0000 O.3     1  UNL1       -0.2182
     17 C           2.9427   -2.6828    0.0000 C.3     1  UNL1        0.0816
     18 C           2.1300   -2.2136    0.0000 C.3     1  UNL1        0.1762
     19 O           1.3176   -2.6825    0.0000 O.3     1  UNL1       -0.4757
     20 C           0.5049   -2.2133    0.0000 C.ar    1  UNL1        0.1682
     21 C          -0.3080   -2.6822    0.0000 C.ar    1  UNL1        0.1721
     22 O          -0.3083   -3.6202    0.0000 O.3     1  UNL1       -0.4684
     23 C           0.5039   -4.0895    0.0000 C.3     1  UNL1        0.2526
     24 C          -1.1202   -2.2130    0.0000 C.ar    1  UNL1        0.0398
     25 C          -1.1200   -1.2744    0.0000 C.ar    1  UNL1        0.0004
     26 C          -0.3076   -0.8055    0.0000 C.ar    1  UNL1       -0.0028
     27 C           0.5051   -1.2747    0.0000 C.ar    1  UNL1        0.0191
     28 C           0.0000   -0.0000    0.0000 C.3     1  UNL1        0.1200
@<TRIPOS>BOND
     1     1     2    1
     2     2     3    1
     3     3     4    1
     4     4     5    1
     5     3     6    1
     6     6     7    1
     7     7     8    2
     8     7     9   am
     9     9    10    1
    10    10    11    1
    11    11    12    1
    12    12    13    1
    13    13    14    2
    14    14    15    1
    15    15    16    1
    16    15    17    1
    17    17    18    1
    18    12    18    1
    19    18    19    1
    20    19    20    1
    21    20    21   ar
    22    21    22    1
    23    22    23    1
    24    21    24   ar
    25    24    25   ar
    26    25    26   ar
    27    26    27   ar
    28    20    27   ar
    29    12    27    1
    30    26    28    1
    31     9    28    1
