REMARK  Name = cpd11.pdb
REMARK  15 active torsions:
REMARK  status: ('A' for Active; 'I' for Inactive)
REMARK    1  A    between atoms: C_1  and  C_2
REMARK    2  A    between atoms: C_6  and  N_7
REMARK    3  A    between atoms: N_7  and  C_8
REMARK    4  A    between atoms: C_13  and  C_14
REMARK    5  A    between atoms: N_16  and  C_17
REMARK    6  A    between atoms: C_17  and  C_18
REMARK    7  A    between atoms: C_18  and  C_19
REMARK    8  A    between atoms: C_19  and  C_20
REMARK    9  A    between atoms: N_22  and  C_23
REMARK   10  A    between atoms: C_23  and  C_24
REMARK   11  A    between atoms: C_24  and  C_25
REMARK   12  A    between atoms: C_25  and  C_26
REMARK   13  A    between atoms: C_26  and  N_27
REMARK   14  A    between atoms: N_27  and  C_28
REMARK   15  A    between atoms: C_43  and  C_44
REMARK                            x       y       z     vdW  Elec       q    Type
REMARK                         _______ _______ _______ _____ _____    ______ ____
ROOT
ATOM      1  C   UNL A   1      -6.294  -4.077   1.073  0.00  0.00    +0.213 C 
ATOM      2  O   UNL A   1      -6.959  -3.825   2.072  0.00  0.00    -0.276 OA
ATOM      3  N   UNL A   1      -6.735  -4.889   0.053  0.00  0.00    -0.315 N 
ATOM      4  H   UNL A   1      -6.135  -5.060  -0.709  0.00  0.00    +0.000 HD
ENDROOT
BRANCH   1   5
ATOM      5  C   UNL A   1      -4.895  -3.528   0.874  0.00  0.00    +0.025 C 
BRANCH   5   6
ATOM      6  C   UNL A   1      -4.751  -2.782  -0.454  0.00  0.00    -0.029 C 
BRANCH   6   7
ATOM      7  C   UNL A   1      -3.465  -1.968  -0.526  0.00  0.00    +0.012 C 
BRANCH   7  10
ATOM      8  C   UNL A   1      -1.296  -2.602   0.464  0.00  0.00    +0.246 C 
ATOM      9  O   UNL A   1      -1.358  -1.752   1.345  0.00  0.00    -0.270 OA
ATOM     10  N   UNL A   1      -2.290  -2.814  -0.471  0.00  0.00    -0.311 N 
ATOM     11  H   UNL A   1      -2.198  -3.555  -1.113  0.00  0.00    +0.000 HD
BRANCH   8  17
ATOM     12  C   UNL A   1       1.191  -2.881   0.595  0.00  0.00    +0.044 A 
ATOM     13  C   UNL A   1       2.324  -3.696   0.453  0.00  0.00    -0.040 A 
ATOM     14  C   UNL A   1       2.204  -5.037   0.078  0.00  0.00    -0.060 A 
ATOM     15  C   UNL A   1       0.947  -5.586  -0.164  0.00  0.00    -0.061 A 
ATOM     16  C   UNL A   1      -0.194  -4.794  -0.038  0.00  0.00    -0.048 A 
ATOM     17  C   UNL A   1      -0.076  -3.444   0.330  0.00  0.00    +0.058 A 
BRANCH  12  18
ATOM     18  N   UNL A   1       1.334  -1.516   0.942  0.00  0.00    -0.314 N 
ATOM     19  H   UNL A   1       0.876  -1.241   1.769  0.00  0.00    +0.000 HD
BRANCH  18  25
ATOM     20  C   UNL A   1       2.748   3.280   0.635  0.00  0.00    -0.039 C 
ATOM     21  C   UNL A   1       2.744   1.861   0.132  0.00  0.00    -0.046 A 
ATOM     22  C   UNL A   1       3.454   1.566  -1.041  0.00  0.00    -0.058 A 
ATOM     23  C   UNL A   1       3.474   0.274  -1.550  0.00  0.00    -0.060 A 
ATOM     24  C   UNL A   1       2.775  -0.741  -0.901  0.00  0.00    -0.040 A 
ATOM     25  C   UNL A   1       2.043  -0.487   0.268  0.00  0.00    +0.035 A 
ATOM     26  C   UNL A   1       2.064   0.823   0.816  0.00  0.00    -0.026 A 
ATOM     27  C   UNL A   1       1.310   1.116   2.093  0.00  0.00    -0.038 C 
ENDBRANCH  18  25
ENDBRANCH  12  18
ENDBRANCH   8  17
ENDBRANCH   7  10
ENDBRANCH   6   7
ENDBRANCH   5   6
ENDBRANCH   1   5
BRANCH   3  28
ATOM     28  C   UNL A   1      -8.048  -5.501   0.058  0.00  0.00    +0.012 C 
BRANCH  28  29
ATOM     29  C   UNL A   1      -9.171  -4.470  -0.045  0.00  0.00    -0.036 C 
BRANCH  29  30
ATOM     30  C   UNL A   1     -10.471  -5.104  -0.536  0.00  0.00    -0.036 C 
BRANCH  30  31
ATOM     31  C   UNL A   1     -11.646  -4.131  -0.415  0.00  0.00    +0.009 C 
BRANCH  31  32
ATOM     32  N   UNL A   1     -12.756  -4.604  -1.256  0.00  0.00    -0.343 N 
ATOM     33  H   UNL A   1     -12.650  -5.245  -1.996  0.00  0.00    +0.000 HD
BRANCH  32  34
ATOM     34  C   UNL A   1     -14.004  -4.026  -0.876  0.00  0.00    +0.041 A 
ATOM     35  C   UNL A   1     -14.892  -4.743  -0.045  0.00  0.00    -0.005 A 
ATOM     36  C   UNL A   1     -16.078  -4.110   0.334  0.00  0.00    +0.047 A 
ATOM     37  N   UNL A   1     -16.379  -2.834  -0.004  0.00  0.00    -0.251 NA
ATOM     38  C   UNL A   1     -15.529  -2.146  -0.777  0.00  0.00    +0.074 A 
ATOM     39  C   UNL A   1     -15.869  -0.844  -1.114  0.00  0.00    -0.017 A 
ATOM     40  C   UNL A   1     -15.050  -0.071  -1.932  0.00  0.00    +0.043 A 
ATOM     41 CL   UNL A   1     -15.507   1.541  -2.325  0.00  0.00    -0.083 Cl
ATOM     42  C   UNL A   1     -13.872  -0.596  -2.440  0.00  0.00    -0.043 A 
ATOM     43  C   UNL A   1     -13.515  -1.902  -2.110  0.00  0.00    -0.049 A 
ATOM     44  C   UNL A   1     -14.323  -2.693  -1.258  0.00  0.00    +0.022 A 
ATOM     45  C   UNL A   1     -17.099  -4.792   1.208  0.00  0.00    -0.010 C 
ATOM     46  C   UNL A   1     -16.972  -6.310   1.206  0.00  0.00    -0.047 C 
ATOM     47  C   UNL A   1     -15.527  -6.699   1.475  0.00  0.00    -0.049 C 
ATOM     48  C   UNL A   1     -14.614  -6.169   0.370  0.00  0.00    -0.024 C 
ENDBRANCH  32  34
ENDBRANCH  31  32
ENDBRANCH  30  31
ENDBRANCH  29  30
ENDBRANCH  28  29
ENDBRANCH   3  28
TORSDOF 13
