REMARK  Name = cpd21.pdb
REMARK  17 active torsions:
REMARK  status: ('A' for Active; 'I' for Inactive)
REMARK    1  A    between atoms: C_1  and  C_2
REMARK    2  A    between atoms: C_6  and  N_7
REMARK    3  A    between atoms: N_7  and  C_8
REMARK    4  A    between atoms: C_13  and  C_14
REMARK    5  A    between atoms: N_16  and  C_17
REMARK    6  A    between atoms: C_17  and  C_18
REMARK    7  A    between atoms: C_18  and  C_19
REMARK    8  A    between atoms: C_19  and  C_20
REMARK    9  A    between atoms: C_20  and  C_21
REMARK   10  A    between atoms: C_21  and  C_22
REMARK   11  A    between atoms: C_22  and  C_23
REMARK   12  A    between atoms: C_23  and  C_24
REMARK   13  A    between atoms: C_24  and  C_25
REMARK   14  A    between atoms: C_25  and  C_26
REMARK   15  A    between atoms: C_26  and  N_27
REMARK   16  A    between atoms: N_27  and  C_28
REMARK   17  A    between atoms: C_43  and  C_44
REMARK                            x       y       z     vdW  Elec       q    Type
REMARK                         _______ _______ _______ _____ _____    ______ ____
ROOT
ATOM      1  C   UNL A   1       6.441   4.420  -0.304  0.00  0.00    -0.053 C 
ENDROOT
BRANCH   1   2
ATOM      2  C   UNL A   1       5.043   3.880   0.005  0.00  0.00    -0.052 C 
BRANCH   2   3
ATOM      3  C   UNL A   1       4.011   5.008   0.105  0.00  0.00    -0.037 C 
BRANCH   3   4
ATOM      4  C   UNL A   1       2.581   4.483   0.242  0.00  0.00    +0.012 C 
BRANCH   4   7
ATOM      5  C   UNL A   1       0.850   3.363  -1.209  0.00  0.00    +0.246 C 
ATOM      6  O   UNL A   1       0.715   2.441  -2.011  0.00  0.00    -0.270 OA
ATOM      7  N   UNL A   1       2.098   3.906  -1.005  0.00  0.00    -0.311 N 
ATOM      8  H   UNL A   1       2.719   3.904  -1.769  0.00  0.00    +0.000 HD
BRANCH   5  14
ATOM      9  C   UNL A   1      -1.265   2.937   0.064  0.00  0.00    +0.044 A 
ATOM     10  C   UNL A   1      -2.337   3.450   0.812  0.00  0.00    -0.040 A 
ATOM     11  C   UNL A   1      -2.535   4.828   0.944  0.00  0.00    -0.060 A 
ATOM     12  C   UNL A   1      -1.651   5.722   0.346  0.00  0.00    -0.061 A 
ATOM     13  C   UNL A   1      -0.548   5.239  -0.355  0.00  0.00    -0.048 A 
ATOM     14  C   UNL A   1      -0.327   3.856  -0.456  0.00  0.00    +0.058 A 
BRANCH   9  15
ATOM     15  N   UNL A   1      -1.056   1.531  -0.036  0.00  0.00    -0.314 N 
ATOM     16  H   UNL A   1      -0.121   1.228  -0.083  0.00  0.00    +0.000 HD
BRANCH  15  22
ATOM     17  C   UNL A   1      -2.434  -3.209   0.775  0.00  0.00    -0.039 C 
ATOM     18  C   UNL A   1      -2.696  -1.819   0.261  0.00  0.00    -0.046 A 
ATOM     19  C   UNL A   1      -3.903  -1.567  -0.410  0.00  0.00    -0.058 A 
ATOM     20  C   UNL A   1      -4.176  -0.307  -0.932  0.00  0.00    -0.060 A 
ATOM     21  C   UNL A   1      -3.250   0.721  -0.783  0.00  0.00    -0.040 A 
ATOM     22  C   UNL A   1      -2.056   0.518  -0.075  0.00  0.00    +0.035 A 
ATOM     23  C   UNL A   1      -1.767  -0.766   0.444  0.00  0.00    -0.026 A 
ATOM     24  C   UNL A   1      -0.451  -1.012   1.140  0.00  0.00    -0.038 C 
ENDBRANCH  15  22
ENDBRANCH   9  15
ENDBRANCH   5  14
ENDBRANCH   4   7
ENDBRANCH   3   4
ENDBRANCH   2   3
ENDBRANCH   1   2
BRANCH   1  25
ATOM     25  C   UNL A   1       7.443   3.275  -0.466  0.00  0.00    -0.053 C 
BRANCH  25  26
ATOM     26  C   UNL A   1       8.811   3.777  -0.935  0.00  0.00    -0.053 C 
BRANCH  26  27
ATOM     27  C   UNL A   1       9.773   2.605  -1.151  0.00  0.00    -0.053 C 
BRANCH  27  28
ATOM     28  C   UNL A   1      11.132   3.033  -1.714  0.00  0.00    -0.052 C 
BRANCH  28  29
ATOM     29  C   UNL A   1      12.249   3.141  -0.671  0.00  0.00    -0.037 C 
BRANCH  29  30
ATOM     30  C   UNL A   1      12.067   4.295   0.313  0.00  0.00    +0.009 C 
BRANCH  30  31
ATOM     31  N   UNL A   1      13.160   4.370   1.298  0.00  0.00    -0.343 N 
ATOM     32  H   UNL A   1      13.072   4.018   2.213  0.00  0.00    +0.000 HD
BRANCH  31  33
ATOM     33  C   UNL A   1      14.350   4.987   0.830  0.00  0.00    +0.041 A 
ATOM     34  C   UNL A   1      14.407   6.394   0.737  0.00  0.00    -0.005 A 
ATOM     35  C   UNL A   1      15.562   6.965   0.198  0.00  0.00    +0.047 A 
ATOM     36  N   UNL A   1      16.606   6.235  -0.257  0.00  0.00    -0.251 NA
ATOM     37  C   UNL A   1      16.565   4.903  -0.153  0.00  0.00    +0.074 A 
ATOM     38  C   UNL A   1      17.668   4.197  -0.607  0.00  0.00    -0.017 A 
ATOM     39  C   UNL A   1      17.720   2.809  -0.537  0.00  0.00    +0.043 A 
ATOM     40 CL   UNL A   1      19.107   1.969  -1.111  0.00  0.00    -0.083 Cl
ATOM     41  C   UNL A   1      16.657   2.098  -0.004  0.00  0.00    -0.043 A 
ATOM     42  C   UNL A   1      15.538   2.792   0.456  0.00  0.00    -0.049 A 
ATOM     43  C   UNL A   1      15.462   4.208   0.388  0.00  0.00    +0.022 A 
ATOM     44  C   UNL A   1      15.708   8.456   0.030  0.00  0.00    -0.010 C 
ATOM     45  C   UNL A   1      14.806   9.260   0.957  0.00  0.00    -0.047 C 
ATOM     46  C   UNL A   1      13.384   8.726   0.882  0.00  0.00    -0.049 C 
ATOM     47  C   UNL A   1      13.336   7.271   1.349  0.00  0.00    -0.024 C 
ENDBRANCH  31  33
ENDBRANCH  30  31
ENDBRANCH  29  30
ENDBRANCH  28  29
ENDBRANCH  27  28
ENDBRANCH  26  27
ENDBRANCH  25  26
ENDBRANCH   1  25
TORSDOF 15
