MODEL 1
REMARK VINA RESULT:    -6.306      0.000      0.000
REMARK INTER + INTRA:         -12.988
REMARK INTER:                 -10.915
REMARK INTRA:                  -2.073
REMARK UNBOUND:                -2.073
REMARK  Name = cpd197.pdb
REMARK  17 active torsions:
REMARK  status: ('A' for Active; 'I' for Inactive)
REMARK    1  A    between atoms: C_1  and  C_2
REMARK    2  A    between atoms: C_2  and  C_3
REMARK    3  A    between atoms: C_2  and  C_20
REMARK    4  A    between atoms: C_3  and  C_4
REMARK    5  A    between atoms: C_4  and  C_5
REMARK    6  A    between atoms: C_6  and  C_7
REMARK    7  A    between atoms: C_7  and  O_8
REMARK    8  A    between atoms: C_12  and  C_13
REMARK    9  A    between atoms: C_12  and  C_14
REMARK   10  A    between atoms: C_18  and  C_19
REMARK   11  A    between atoms: C_20  and  C_21
REMARK   12  A    between atoms: C_21  and  O_23
REMARK   13  A    between atoms: O_23  and  C_24
REMARK   14  A    between atoms: C_24  and  C_25
REMARK   15  A    between atoms: C_25  and  C_26
REMARK   16  A    between atoms: C_26  and  C_27
REMARK   17  A    between atoms: C_27  and  N_28
REMARK                            x       y       z     vdW  Elec       q    Type
REMARK                         _______ _______ _______ _____ _____    ______ ____
ROOT
ATOM      1  C   UNL     1      42.393 -19.049 -37.756  0.00  0.00    -0.049 C 
ENDROOT
BRANCH   1   3
ATOM      2  C   UNL     1      43.364 -16.714 -37.471  0.00  0.00    -0.062 C 
ATOM      3  C   UNL     1      43.550 -18.206 -37.181  0.00  0.00    -0.034 C 
BRANCH   3   4
ATOM      4  C   UNL     1      43.647 -18.398 -35.648  0.00  0.00    +0.048 C 
BRANCH   4   5
ATOM      5  C   UNL     1      44.895 -19.129 -35.185  0.00  0.00    +0.307 C 
ATOM      6  O   UNL     1      45.208 -19.239 -34.004  0.00  0.00    -0.251 OA
BRANCH   5   7
ATOM      7  O   UNL     1      45.663 -19.699 -36.152  0.00  0.00    -0.465 OA
BRANCH   7   8
ATOM      8  C   UNL     1      46.874 -19.078 -36.619  0.00  0.00    +0.092 C 
BRANCH   8   9
ATOM      9  C   UNL     1      47.054 -19.412 -38.097  0.00  0.00    -0.017 C 
BRANCH   9  10
ATOM     10  C   UNL     1      46.118 -20.527 -38.565  0.00  0.00    -0.037 C 
BRANCH  10  11
ATOM     11  C   UNL     1      46.854 -21.752 -39.134  0.00  0.00    -0.001 C 
BRANCH  11  12
ATOM     12  N   UNL     1      46.246 -22.229 -40.378  0.00  0.00    -0.302 N 
ATOM     13  C   UNL     1      45.622 -21.172 -41.175  0.00  0.00    -0.001 C 
ATOM     14  C   UNL     1      45.448 -21.813 -42.544  0.00  0.00    -0.039 C 
ATOM     15  C   UNL     1      46.480 -22.932 -42.595  0.00  0.00    -0.039 C 
ATOM     16  C   UNL     1      47.234 -22.832 -41.278  0.00  0.00    -0.001 C 
ATOM     17  H   UNL     1      45.549 -22.899 -40.054  0.00  0.00    +0.000 HD
ENDBRANCH  11  12
ENDBRANCH  10  11
ENDBRANCH   9  10
ENDBRANCH   8   9
ENDBRANCH   7   8
ENDBRANCH   5   7
ENDBRANCH   4   5
ENDBRANCH   3   4
ENDBRANCH   1   3
BRANCH   1  18
ATOM     18  C   UNL     1      41.966 -20.313 -36.985  0.00  0.00    -0.046 C 
BRANCH  18  19
ATOM     19  C   UNL     1      40.450 -20.617 -36.728  0.00  0.00    -0.012 C 
ATOM     20  C   UNL     1      40.008 -21.982 -37.264  0.00  0.00    -0.045 C 
ATOM     21  C   UNL     1      39.281 -22.829 -36.520  0.00  0.00    -0.082 C 
ATOM     22  C   UNL     1      38.757 -22.548 -35.163  0.00  0.00    -0.031 C 
ATOM     23  C   UNL     1      38.718 -21.050 -34.767  0.00  0.00    -0.027 C 
ATOM     24  C   UNL     1      38.310 -20.924 -33.236  0.00  0.00    -0.031 C 
ATOM     25  C   UNL     1      37.817 -19.504 -32.866  0.00  0.00    -0.060 C 
ATOM     26  C   UNL     1      37.115 -21.855 -32.891  0.00  0.00    -0.060 C 
ATOM     27  C   UNL     1      39.497 -21.329 -32.332  0.00  0.00    -0.048 C 
ATOM     28  C   UNL     1      40.825 -20.686 -32.715  0.00  0.00    -0.052 C 
ATOM     29  C   UNL     1      41.178 -20.843 -34.197  0.00  0.00    -0.047 C 
ATOM     30  C   UNL     1      40.073 -20.345 -35.173  0.00  0.00    -0.022 C 
ATOM     31  C   UNL     1      39.948 -18.800 -35.053  0.00  0.00    -0.059 C 
BRANCH  20  32
ATOM     32  C   UNL     1      40.316 -22.316 -38.707  0.00  0.00    +0.066 C 
BRANCH  32  33
ATOM     33  O   UNL     1      41.457 -23.160 -38.838  0.00  0.00    -0.391 OA
ATOM     34  H   UNL     1      41.750 -23.445 -37.958  0.00  0.00    +0.000 HD
ENDBRANCH  32  33
ENDBRANCH  20  32
ENDBRANCH  18  19
ENDBRANCH   1  18
TORSDOF 13
ENDMDL
MODEL 2
REMARK VINA RESULT:    -6.300      2.891      8.810
REMARK INTER + INTRA:         -12.977
REMARK INTER:                 -10.809
REMARK INTRA:                  -2.168
REMARK UNBOUND:                -2.073
REMARK  Name = cpd197.pdb
REMARK  17 active torsions:
REMARK  status: ('A' for Active; 'I' for Inactive)
REMARK    1  A    between atoms: C_1  and  C_2
REMARK    2  A    between atoms: C_2  and  C_3
REMARK    3  A    between atoms: C_2  and  C_20
REMARK    4  A    between atoms: C_3  and  C_4
REMARK    5  A    between atoms: C_4  and  C_5
REMARK    6  A    between atoms: C_6  and  C_7
REMARK    7  A    between atoms: C_7  and  O_8
REMARK    8  A    between atoms: C_12  and  C_13
REMARK    9  A    between atoms: C_12  and  C_14
REMARK   10  A    between atoms: C_18  and  C_19
REMARK   11  A    between atoms: C_20  and  C_21
REMARK   12  A    between atoms: C_21  and  O_23
REMARK   13  A    between atoms: O_23  and  C_24
REMARK   14  A    between atoms: C_24  and  C_25
REMARK   15  A    between atoms: C_25  and  C_26
REMARK   16  A    between atoms: C_26  and  C_27
REMARK   17  A    between atoms: C_27  and  N_28
REMARK                            x       y       z     vdW  Elec       q    Type
REMARK                         _______ _______ _______ _____ _____    ______ ____
ROOT
ATOM      1  C   UNL     1      43.256 -18.960 -37.012  0.00  0.00    -0.049 C 
ENDROOT
BRANCH   1   3
ATOM      2  C   UNL     1      44.332 -20.259 -35.107  0.00  0.00    -0.062 C 
ATOM      3  C   UNL     1      43.219 -20.246 -36.159  0.00  0.00    -0.034 C 
BRANCH   3   4
ATOM      4  C   UNL     1      41.859 -20.374 -35.434  0.00  0.00    +0.048 C 
BRANCH   4   5
ATOM      5  C   UNL     1      40.980 -21.504 -35.945  0.00  0.00    +0.307 C 
ATOM      6  O   UNL     1      41.365 -22.338 -36.758  0.00  0.00    -0.251 OA
BRANCH   5   7
ATOM      7  O   UNL     1      39.723 -21.578 -35.431  0.00  0.00    -0.465 OA
BRANCH   7   8
ATOM      8  C   UNL     1      38.823 -22.643 -35.787  0.00  0.00    +0.092 C 
BRANCH   8   9
ATOM      9  C   UNL     1      38.483 -23.435 -34.529  0.00  0.00    -0.017 C 
BRANCH   9  10
ATOM     10  C   UNL     1      38.402 -22.551 -33.283  0.00  0.00    -0.037 C 
BRANCH  10  11
ATOM     11  C   UNL     1      37.015 -21.924 -33.061  0.00  0.00    -0.001 C 
BRANCH  11  12
ATOM     12  N   UNL     1      37.087 -20.469 -32.910  0.00  0.00    -0.302 N 
ATOM     13  C   UNL     1      38.390 -19.986 -32.449  0.00  0.00    -0.001 C 
ATOM     14  C   UNL     1      38.351 -18.497 -32.763  0.00  0.00    -0.039 C 
ATOM     15  C   UNL     1      37.317 -18.351 -33.874  0.00  0.00    -0.039 C 
ATOM     16  C   UNL     1      36.866 -19.771 -34.181  0.00  0.00    -0.001 C 
ATOM     17  H   UNL     1      36.361 -20.271 -32.221  0.00  0.00    +0.000 HD
ENDBRANCH  11  12
ENDBRANCH  10  11
ENDBRANCH   9  10
ENDBRANCH   8   9
ENDBRANCH   7   8
ENDBRANCH   5   7
ENDBRANCH   4   5
ENDBRANCH   3   4
ENDBRANCH   1   3
BRANCH   1  18
ATOM     18  C   UNL     1      43.484 -19.105 -38.529  0.00  0.00    -0.046 C 
BRANCH  18  19
ATOM     19  C   UNL     1      43.749 -20.514 -39.164  0.00  0.00    -0.012 C 
ATOM     20  C   UNL     1      42.673 -20.936 -40.169  0.00  0.00    -0.045 C 
ATOM     21  C   UNL     1      42.991 -21.435 -41.372  0.00  0.00    -0.082 C 
ATOM     22  C   UNL     1      44.365 -21.710 -41.853  0.00  0.00    -0.031 C 
ATOM     23  C   UNL     1      45.447 -21.797 -40.747  0.00  0.00    -0.027 C 
ATOM     24  C   UNL     1      46.880 -21.913 -41.424  0.00  0.00    -0.031 C 
ATOM     25  C   UNL     1      47.959 -22.441 -40.448  0.00  0.00    -0.060 C 
ATOM     26  C   UNL     1      46.872 -22.939 -42.591  0.00  0.00    -0.060 C 
ATOM     27  C   UNL     1      47.310 -20.545 -42.004  0.00  0.00    -0.048 C 
ATOM     28  C   UNL     1      47.126 -19.372 -41.047  0.00  0.00    -0.052 C 
ATOM     29  C   UNL     1      45.727 -19.299 -40.429  0.00  0.00    -0.047 C 
ATOM     30  C   UNL     1      45.271 -20.607 -39.721  0.00  0.00    -0.022 C 
ATOM     31  C   UNL     1      46.149 -20.835 -38.459  0.00  0.00    -0.059 C 
BRANCH  20  32
ATOM     32  C   UNL     1      41.226 -20.884 -39.729  0.00  0.00    +0.066 C 
BRANCH  32  33
ATOM     33  O   UNL     1      40.716 -22.170 -39.387  0.00  0.00    -0.391 OA
ATOM     34  H   UNL     1      40.770 -22.293 -38.426  0.00  0.00    +0.000 HD
ENDBRANCH  32  33
ENDBRANCH  20  32
ENDBRANCH  18  19
ENDBRANCH   1  18
TORSDOF 13
ENDMDL
MODEL 3
REMARK VINA RESULT:    -6.241      2.613      7.179
REMARK INTER + INTRA:         -12.875
REMARK INTER:                 -10.070
REMARK INTRA:                  -2.805
REMARK UNBOUND:                -2.073
REMARK  Name = cpd197.pdb
REMARK  17 active torsions:
REMARK  status: ('A' for Active; 'I' for Inactive)
REMARK    1  A    between atoms: C_1  and  C_2
REMARK    2  A    between atoms: C_2  and  C_3
REMARK    3  A    between atoms: C_2  and  C_20
REMARK    4  A    between atoms: C_3  and  C_4
REMARK    5  A    between atoms: C_4  and  C_5
REMARK    6  A    between atoms: C_6  and  C_7
REMARK    7  A    between atoms: C_7  and  O_8
REMARK    8  A    between atoms: C_12  and  C_13
REMARK    9  A    between atoms: C_12  and  C_14
REMARK   10  A    between atoms: C_18  and  C_19
REMARK   11  A    between atoms: C_20  and  C_21
REMARK   12  A    between atoms: C_21  and  O_23
REMARK   13  A    between atoms: O_23  and  C_24
REMARK   14  A    between atoms: C_24  and  C_25
REMARK   15  A    between atoms: C_25  and  C_26
REMARK   16  A    between atoms: C_26  and  C_27
REMARK   17  A    between atoms: C_27  and  N_28
REMARK                            x       y       z     vdW  Elec       q    Type
REMARK                         _______ _______ _______ _____ _____    ______ ____
ROOT
ATOM      1  C   UNL     1      44.834 -16.187 -37.004  0.00  0.00    -0.049 C 
ENDROOT
BRANCH   1   3
ATOM      2  C   UNL     1      44.607 -14.497 -35.116  0.00  0.00    -0.062 C 
ATOM      3  C   UNL     1      45.113 -15.886 -35.517  0.00  0.00    -0.034 C 
BRANCH   3   4
ATOM      4  C   UNL     1      44.422 -16.936 -34.615  0.00  0.00    +0.048 C 
BRANCH   4   5
ATOM      5  C   UNL     1      45.373 -17.734 -33.739  0.00  0.00    +0.307 C 
ATOM      6  O   UNL     1      46.590 -17.581 -33.758  0.00  0.00    -0.251 OA
BRANCH   5   7
ATOM      7  O   UNL     1      44.810 -18.630 -32.885  0.00  0.00    -0.465 OA
BRANCH   7   8
ATOM      8  C   UNL     1      43.875 -19.624 -33.342  0.00  0.00    +0.092 C 
BRANCH   8   9
ATOM      9  C   UNL     1      44.533 -20.438 -34.451  0.00  0.00    -0.017 C 
BRANCH   9  10
ATOM     10  C   UNL     1      43.654 -20.551 -35.697  0.00  0.00    -0.037 C 
BRANCH  10  11
ATOM     11  C   UNL     1      42.309 -19.816 -35.573  0.00  0.00    -0.001 C 
BRANCH  11  12
ATOM     12  N   UNL     1      41.170 -20.731 -35.675  0.00  0.00    -0.302 N 
ATOM     13  C   UNL     1      41.317 -21.744 -36.721  0.00  0.00    -0.001 C 
ATOM     14  C   UNL     1      40.261 -22.780 -36.367  0.00  0.00    -0.039 C 
ATOM     15  C   UNL     1      40.002 -22.592 -34.877  0.00  0.00    -0.039 C 
ATOM     16  C   UNL     1      40.970 -21.502 -34.444  0.00  0.00    -0.001 C 
ATOM     17  H   UNL     1      40.389 -20.108 -35.880  0.00  0.00    +0.000 HD
ENDBRANCH  11  12
ENDBRANCH  10  11
ENDBRANCH   9  10
ENDBRANCH   8   9
ENDBRANCH   7   8
ENDBRANCH   5   7
ENDBRANCH   4   5
ENDBRANCH   3   4
ENDBRANCH   1   3
BRANCH   1  18
ATOM     18  C   UNL     1      44.667 -17.661 -37.423  0.00  0.00    -0.046 C 
BRANCH  18  19
ATOM     19  C   UNL     1      45.570 -18.277 -38.547  0.00  0.00    -0.012 C 
ATOM     20  C   UNL     1      46.657 -19.210 -38.006  0.00  0.00    -0.045 C 
ATOM     21  C   UNL     1      46.880 -20.418 -38.544  0.00  0.00    -0.082 C 
ATOM     22  C   UNL     1      46.192 -20.969 -39.735  0.00  0.00    -0.031 C 
ATOM     23  C   UNL     1      45.472 -19.923 -40.624  0.00  0.00    -0.027 C 
ATOM     24  C   UNL     1      44.637 -20.678 -41.747  0.00  0.00    -0.031 C 
ATOM     25  C   UNL     1      44.254 -19.752 -42.927  0.00  0.00    -0.060 C 
ATOM     26  C   UNL     1      45.467 -21.819 -42.398  0.00  0.00    -0.060 C 
ATOM     27  C   UNL     1      43.367 -21.312 -41.133  0.00  0.00    -0.048 C 
ATOM     28  C   UNL     1      42.568 -20.373 -40.236  0.00  0.00    -0.052 C 
ATOM     29  C   UNL     1      43.415 -19.679 -39.166  0.00  0.00    -0.047 C 
ATOM     30  C   UNL     1      44.652 -18.917 -39.724  0.00  0.00    -0.022 C 
ATOM     31  C   UNL     1      44.165 -17.701 -40.560  0.00  0.00    -0.059 C 
BRANCH  20  32
ATOM     32  C   UNL     1      47.561 -18.691 -36.909  0.00  0.00    +0.066 C 
BRANCH  32  33
ATOM     33  O   UNL     1      47.688 -19.612 -35.829  0.00  0.00    -0.391 OA
ATOM     34  H   UNL     1      47.545 -19.148 -34.990  0.00  0.00    +0.000 HD
ENDBRANCH  32  33
ENDBRANCH  20  32
ENDBRANCH  18  19
ENDBRANCH   1  18
TORSDOF 13
ENDMDL
MODEL 4
REMARK VINA RESULT:    -6.133     15.854     20.174
REMARK INTER + INTRA:         -12.688
REMARK INTER:                 -10.521
REMARK INTRA:                  -2.167
REMARK UNBOUND:                -2.073
REMARK  Name = cpd197.pdb
REMARK  17 active torsions:
REMARK  status: ('A' for Active; 'I' for Inactive)
REMARK    1  A    between atoms: C_1  and  C_2
REMARK    2  A    between atoms: C_2  and  C_3
REMARK    3  A    between atoms: C_2  and  C_20
REMARK    4  A    between atoms: C_3  and  C_4
REMARK    5  A    between atoms: C_4  and  C_5
REMARK    6  A    between atoms: C_6  and  C_7
REMARK    7  A    between atoms: C_7  and  O_8
REMARK    8  A    between atoms: C_12  and  C_13
REMARK    9  A    between atoms: C_12  and  C_14
REMARK   10  A    between atoms: C_18  and  C_19
REMARK   11  A    between atoms: C_20  and  C_21
REMARK   12  A    between atoms: C_21  and  O_23
REMARK   13  A    between atoms: O_23  and  C_24
REMARK   14  A    between atoms: C_24  and  C_25
REMARK   15  A    between atoms: C_25  and  C_26
REMARK   16  A    between atoms: C_26  and  C_27
REMARK   17  A    between atoms: C_27  and  N_28
REMARK                            x       y       z     vdW  Elec       q    Type
REMARK                         _______ _______ _______ _____ _____    ______ ____
ROOT
ATOM      1  C   UNL     1      34.752 -33.930 -31.761  0.00  0.00    -0.049 C 
ENDROOT
BRANCH   1   3
ATOM      2  C   UNL     1      34.316 -31.540 -31.004  0.00  0.00    -0.062 C 
ATOM      3  C   UNL     1      33.778 -32.973 -31.042  0.00  0.00    -0.034 C 
BRANCH   3   4
ATOM      4  C   UNL     1      32.406 -32.962 -31.758  0.00  0.00    +0.048 C 
BRANCH   4   5
ATOM      5  C   UNL     1      31.664 -34.286 -31.713  0.00  0.00    +0.307 C 
ATOM      6  O   UNL     1      31.802 -35.162 -32.561  0.00  0.00    -0.251 OA
BRANCH   5   7
ATOM      7  O   UNL     1      30.837 -34.485 -30.653  0.00  0.00    -0.465 OA
BRANCH   7   8
ATOM      8  C   UNL     1      31.048 -35.562 -29.721  0.00  0.00    +0.092 C 
BRANCH   8   9
ATOM      9  C   UNL     1      32.247 -35.216 -28.842  0.00  0.00    -0.017 C 
BRANCH   9  10
ATOM     10  C   UNL     1      31.834 -34.745 -27.447  0.00  0.00    -0.037 C 
BRANCH  10  11
ATOM     11  C   UNL     1      31.339 -35.879 -26.533  0.00  0.00    -0.001 C 
BRANCH  11  12
ATOM     12  N   UNL     1      32.439 -36.719 -26.053  0.00  0.00    -0.302 N 
ATOM     13  C   UNL     1      32.960 -36.319 -24.744  0.00  0.00    -0.001 C 
ATOM     14  C   UNL     1      33.760 -37.532 -24.293  0.00  0.00    -0.039 C 
ATOM     15  C   UNL     1      33.175 -38.706 -25.068  0.00  0.00    -0.039 C 
ATOM     16  C   UNL     1      32.029 -38.115 -25.873  0.00  0.00    -0.001 C 
ATOM     17  H   UNL     1      33.149 -36.606 -26.776  0.00  0.00    +0.000 HD
ENDBRANCH  11  12
ENDBRANCH  10  11
ENDBRANCH   9  10
ENDBRANCH   8   9
ENDBRANCH   7   8
ENDBRANCH   5   7
ENDBRANCH   4   5
ENDBRANCH   3   4
ENDBRANCH   1   3
BRANCH   1  18
ATOM     18  C   UNL     1      36.109 -34.217 -31.090  0.00  0.00    -0.046 C 
BRANCH  18  19
ATOM     19  C   UNL     1      36.791 -35.621 -31.237  0.00  0.00    -0.012 C 
ATOM     20  C   UNL     1      38.320 -35.558 -31.197  0.00  0.00    -0.045 C 
ATOM     21  C   UNL     1      39.039 -36.394 -30.433  0.00  0.00    -0.082 C 
ATOM     22  C   UNL     1      38.489 -37.499 -29.615  0.00  0.00    -0.031 C 
ATOM     23  C   UNL     1      37.053 -37.947 -29.989  0.00  0.00    -0.027 C 
ATOM     24  C   UNL     1      36.538 -39.002 -28.918  0.00  0.00    -0.031 C 
ATOM     25  C   UNL     1      35.331 -39.826 -29.427  0.00  0.00    -0.060 C 
ATOM     26  C   UNL     1      37.628 -40.062 -28.598  0.00  0.00    -0.060 C 
ATOM     27  C   UNL     1      36.176 -38.287 -27.595  0.00  0.00    -0.048 C 
ATOM     28  C   UNL     1      35.306 -37.047 -27.770  0.00  0.00    -0.052 C 
ATOM     29  C   UNL     1      35.850 -36.058 -28.805  0.00  0.00    -0.047 C 
ATOM     30  C   UNL     1      36.129 -36.683 -30.202  0.00  0.00    -0.022 C 
ATOM     31  C   UNL     1      34.778 -37.092 -30.854  0.00  0.00    -0.059 C 
BRANCH  20  32
ATOM     32  C   UNL     1      39.020 -34.597 -32.133  0.00  0.00    +0.066 C 
BRANCH  32  33
ATOM     33  O   UNL     1      40.379 -34.956 -32.363  0.00  0.00    -0.391 OA
ATOM     34  H   UNL     1      40.770 -35.287 -31.539  0.00  0.00    +0.000 HD
ENDBRANCH  32  33
ENDBRANCH  20  32
ENDBRANCH  18  19
ENDBRANCH   1  18
TORSDOF 13
ENDMDL
MODEL 5
REMARK VINA RESULT:    -6.003      2.094      4.171
REMARK INTER + INTRA:         -12.463
REMARK INTER:                  -9.832
REMARK INTRA:                  -2.631
REMARK UNBOUND:                -2.073
REMARK  Name = cpd197.pdb
REMARK  17 active torsions:
REMARK  status: ('A' for Active; 'I' for Inactive)
REMARK    1  A    between atoms: C_1  and  C_2
REMARK    2  A    between atoms: C_2  and  C_3
REMARK    3  A    between atoms: C_2  and  C_20
REMARK    4  A    between atoms: C_3  and  C_4
REMARK    5  A    between atoms: C_4  and  C_5
REMARK    6  A    between atoms: C_6  and  C_7
REMARK    7  A    between atoms: C_7  and  O_8
REMARK    8  A    between atoms: C_12  and  C_13
REMARK    9  A    between atoms: C_12  and  C_14
REMARK   10  A    between atoms: C_18  and  C_19
REMARK   11  A    between atoms: C_20  and  C_21
REMARK   12  A    between atoms: C_21  and  O_23
REMARK   13  A    between atoms: O_23  and  C_24
REMARK   14  A    between atoms: C_24  and  C_25
REMARK   15  A    between atoms: C_25  and  C_26
REMARK   16  A    between atoms: C_26  and  C_27
REMARK   17  A    between atoms: C_27  and  N_28
REMARK                            x       y       z     vdW  Elec       q    Type
REMARK                         _______ _______ _______ _____ _____    ______ ____
ROOT
ATOM      1  C   UNL     1      42.147 -19.288 -38.509  0.00  0.00    -0.049 C 
ENDROOT
BRANCH   1   3
ATOM      2  C   UNL     1      44.163 -18.778 -39.976  0.00  0.00    -0.062 C 
ATOM      3  C   UNL     1      43.194 -19.859 -39.489  0.00  0.00    -0.034 C 
BRANCH   3   4
ATOM      4  C   UNL     1      44.014 -20.981 -38.809  0.00  0.00    +0.048 C 
BRANCH   4   5
ATOM      5  C   UNL     1      45.294 -21.352 -39.538  0.00  0.00    +0.307 C 
ATOM      6  O   UNL     1      45.308 -21.854 -40.657  0.00  0.00    -0.251 OA
BRANCH   5   7
ATOM      7  O   UNL     1      46.462 -21.073 -38.899  0.00  0.00    -0.465 OA
BRANCH   7   8
ATOM      8  C   UNL     1      46.483 -20.460 -37.597  0.00  0.00    +0.092 C 
BRANCH   8   9
ATOM      9  C   UNL     1      47.211 -19.123 -37.700  0.00  0.00    -0.017 C 
BRANCH   9  10
ATOM     10  C   UNL     1      46.582 -18.043 -36.819  0.00  0.00    -0.037 C 
BRANCH  10  11
ATOM     11  C   UNL     1      45.099 -18.295 -36.496  0.00  0.00    -0.001 C 
BRANCH  11  12
ATOM     12  N   UNL     1      44.770 -17.947 -35.112  0.00  0.00    -0.302 N 
ATOM     13  C   UNL     1      43.417 -17.418 -34.941  0.00  0.00    -0.001 C 
ATOM     14  C   UNL     1      43.178 -17.526 -33.442  0.00  0.00    -0.039 C 
ATOM     15  C   UNL     1      44.134 -18.612 -32.964  0.00  0.00    -0.039 C 
ATOM     16  C   UNL     1      44.824 -19.112 -34.223  0.00  0.00    -0.001 C 
ATOM     17  H   UNL     1      45.469 -17.242 -34.879  0.00  0.00    +0.000 HD
ENDBRANCH  11  12
ENDBRANCH  10  11
ENDBRANCH   9  10
ENDBRANCH   8   9
ENDBRANCH   7   8
ENDBRANCH   5   7
ENDBRANCH   4   5
ENDBRANCH   3   4
ENDBRANCH   1   3
BRANCH   1  18
ATOM     18  C   UNL     1      41.820 -20.106 -37.245  0.00  0.00    -0.046 C 
BRANCH  18  19
ATOM     19  C   UNL     1      40.349 -20.563 -36.949  0.00  0.00    -0.012 C 
ATOM     20  C   UNL     1      40.052 -21.989 -37.424  0.00  0.00    -0.045 C 
ATOM     21  C   UNL     1      39.432 -22.878 -36.635  0.00  0.00    -0.082 C 
ATOM     22  C   UNL     1      38.900 -22.601 -35.280  0.00  0.00    -0.031 C 
ATOM     23  C   UNL     1      38.702 -21.102 -34.942  0.00  0.00    -0.027 C 
ATOM     24  C   UNL     1      38.304 -20.959 -33.410  0.00  0.00    -0.031 C 
ATOM     25  C   UNL     1      37.664 -19.587 -33.086  0.00  0.00    -0.060 C 
ATOM     26  C   UNL     1      37.223 -21.999 -33.008  0.00  0.00    -0.060 C 
ATOM     27  C   UNL     1      39.541 -21.195 -32.512  0.00  0.00    -0.048 C 
ATOM     28  C   UNL     1      40.785 -20.427 -32.943  0.00  0.00    -0.052 C 
ATOM     29  C   UNL     1      41.132 -20.605 -34.425  0.00  0.00    -0.047 C 
ATOM     30  C   UNL     1      39.966 -20.271 -35.399  0.00  0.00    -0.022 C 
ATOM     31  C   UNL     1      39.674 -18.745 -35.338  0.00  0.00    -0.059 C 
BRANCH  20  32
ATOM     32  C   UNL     1      40.375 -22.346 -38.858  0.00  0.00    +0.066 C 
BRANCH  32  33
ATOM     33  O   UNL     1      41.433 -23.295 -38.956  0.00  0.00    -0.391 OA
ATOM     34  H   UNL     1      41.708 -23.566 -38.066  0.00  0.00    +0.000 HD
ENDBRANCH  32  33
ENDBRANCH  20  32
ENDBRANCH  18  19
ENDBRANCH   1  18
TORSDOF 13
ENDMDL
MODEL 6
REMARK VINA RESULT:    -5.952      2.942      7.012
REMARK INTER + INTRA:         -12.375
REMARK INTER:                  -9.916
REMARK INTRA:                  -2.459
REMARK UNBOUND:                -2.073
REMARK  Name = cpd197.pdb
REMARK  17 active torsions:
REMARK  status: ('A' for Active; 'I' for Inactive)
REMARK    1  A    between atoms: C_1  and  C_2
REMARK    2  A    between atoms: C_2  and  C_3
REMARK    3  A    between atoms: C_2  and  C_20
REMARK    4  A    between atoms: C_3  and  C_4
REMARK    5  A    between atoms: C_4  and  C_5
REMARK    6  A    between atoms: C_6  and  C_7
REMARK    7  A    between atoms: C_7  and  O_8
REMARK    8  A    between atoms: C_12  and  C_13
REMARK    9  A    between atoms: C_12  and  C_14
REMARK   10  A    between atoms: C_18  and  C_19
REMARK   11  A    between atoms: C_20  and  C_21
REMARK   12  A    between atoms: C_21  and  O_23
REMARK   13  A    between atoms: O_23  and  C_24
REMARK   14  A    between atoms: C_24  and  C_25
REMARK   15  A    between atoms: C_25  and  C_26
REMARK   16  A    between atoms: C_26  and  C_27
REMARK   17  A    between atoms: C_27  and  N_28
REMARK                            x       y       z     vdW  Elec       q    Type
REMARK                         _______ _______ _______ _____ _____    ______ ____
ROOT
ATOM      1  C   UNL     1      42.673 -18.973 -37.309  0.00  0.00    -0.049 C 
ENDROOT
BRANCH   1   3
ATOM      2  C   UNL     1      42.214 -20.945 -35.767  0.00  0.00    -0.062 C 
ATOM      3  C   UNL     1      42.954 -19.615 -35.934  0.00  0.00    -0.034 C 
BRANCH   3   4
ATOM      4  C   UNL     1      44.470 -19.874 -35.761  0.00  0.00    +0.048 C 
BRANCH   4   5
ATOM      5  C   UNL     1      45.194 -18.828 -34.930  0.00  0.00    +0.307 C 
ATOM      6  O   UNL     1      45.282 -18.885 -33.708  0.00  0.00    -0.251 OA
BRANCH   5   7
ATOM      7  O   UNL     1      45.786 -17.811 -35.612  0.00  0.00    -0.465 OA
BRANCH   7   8
ATOM      8  C   UNL     1      47.090 -17.955 -36.202  0.00  0.00    +0.092 C 
BRANCH   8   9
ATOM      9  C   UNL     1      47.038 -17.431 -37.634  0.00  0.00    -0.017 C 
BRANCH   9  10
ATOM     10  C   UNL     1      45.902 -16.430 -37.852  0.00  0.00    -0.037 C 
BRANCH  10  11
ATOM     11  C   UNL     1      46.312 -15.204 -38.686  0.00  0.00    -0.001 C 
BRANCH  11  12
ATOM     12  N   UNL     1      45.267 -14.810 -39.634  0.00  0.00    -0.302 N 
ATOM     13  C   UNL     1      45.781 -14.214 -40.868  0.00  0.00    -0.001 C 
ATOM     14  C   UNL     1      44.594 -14.278 -41.817  0.00  0.00    -0.039 C 
ATOM     15  C   UNL     1      43.711 -15.396 -41.276  0.00  0.00    -0.039 C 
ATOM     16  C   UNL     1      44.470 -15.956 -40.084  0.00  0.00    -0.001 C 
ATOM     17  H   UNL     1      44.718 -14.133 -39.104  0.00  0.00    +0.000 HD
ENDBRANCH  11  12
ENDBRANCH  10  11
ENDBRANCH   9  10
ENDBRANCH   8   9
ENDBRANCH   7   8
ENDBRANCH   5   7
ENDBRANCH   4   5
ENDBRANCH   3   4
ENDBRANCH   1   3
BRANCH   1  18
ATOM     18  C   UNL     1      43.710 -19.182 -38.430  0.00  0.00    -0.046 C 
BRANCH  18  19
ATOM     19  C   UNL     1      43.879 -20.586 -39.108  0.00  0.00    -0.012 C 
ATOM     20  C   UNL     1      42.739 -20.934 -40.070  0.00  0.00    -0.045 C 
ATOM     21  C   UNL     1      42.977 -21.417 -41.298  0.00  0.00    -0.082 C 
ATOM     22  C   UNL     1      44.314 -21.742 -41.850  0.00  0.00    -0.031 C 
ATOM     23  C   UNL     1      45.440 -21.904 -40.798  0.00  0.00    -0.027 C 
ATOM     24  C   UNL     1      46.833 -22.069 -41.546  0.00  0.00    -0.031 C 
ATOM     25  C   UNL     1      47.931 -22.669 -40.634  0.00  0.00    -0.060 C 
ATOM     26  C   UNL     1      46.724 -23.064 -42.733  0.00  0.00    -0.060 C 
ATOM     27  C   UNL     1      47.299 -20.707 -42.115  0.00  0.00    -0.048 C 
ATOM     28  C   UNL     1      47.215 -19.552 -41.124  0.00  0.00    -0.052 C 
ATOM     29  C   UNL     1      45.851 -19.430 -40.438  0.00  0.00    -0.047 C 
ATOM     30  C   UNL     1      45.368 -20.734 -39.739  0.00  0.00    -0.022 C 
ATOM     31  C   UNL     1      46.292 -21.031 -38.525  0.00  0.00    -0.059 C 
BRANCH  20  32
ATOM     32  C   UNL     1      41.318 -20.827 -39.561  0.00  0.00    +0.066 C 
BRANCH  32  33
ATOM     33  O   UNL     1      40.820 -22.071 -39.077  0.00  0.00    -0.391 OA
ATOM     34  H   UNL     1      40.564 -22.630 -39.826  0.00  0.00    +0.000 HD
ENDBRANCH  32  33
ENDBRANCH  20  32
ENDBRANCH  18  19
ENDBRANCH   1  18
TORSDOF 13
ENDMDL
MODEL 7
REMARK VINA RESULT:    -5.900      2.895      7.039
REMARK INTER + INTRA:         -12.284
REMARK INTER:                  -8.975
REMARK INTRA:                  -3.309
REMARK UNBOUND:                -2.073
REMARK  Name = cpd197.pdb
REMARK  17 active torsions:
REMARK  status: ('A' for Active; 'I' for Inactive)
REMARK    1  A    between atoms: C_1  and  C_2
REMARK    2  A    between atoms: C_2  and  C_3
REMARK    3  A    between atoms: C_2  and  C_20
REMARK    4  A    between atoms: C_3  and  C_4
REMARK    5  A    between atoms: C_4  and  C_5
REMARK    6  A    between atoms: C_6  and  C_7
REMARK    7  A    between atoms: C_7  and  O_8
REMARK    8  A    between atoms: C_12  and  C_13
REMARK    9  A    between atoms: C_12  and  C_14
REMARK   10  A    between atoms: C_18  and  C_19
REMARK   11  A    between atoms: C_20  and  C_21
REMARK   12  A    between atoms: C_21  and  O_23
REMARK   13  A    between atoms: O_23  and  C_24
REMARK   14  A    between atoms: C_24  and  C_25
REMARK   15  A    between atoms: C_25  and  C_26
REMARK   16  A    between atoms: C_26  and  C_27
REMARK   17  A    between atoms: C_27  and  N_28
REMARK                            x       y       z     vdW  Elec       q    Type
REMARK                         _______ _______ _______ _____ _____    ______ ____
ROOT
ATOM      1  C   UNL     1      43.922 -17.054 -36.192  0.00  0.00    -0.049 C 
ENDROOT
BRANCH   1   3
ATOM      2  C   UNL     1      46.389 -17.413 -35.679  0.00  0.00    -0.062 C 
ATOM      3  C   UNL     1      44.952 -17.608 -35.185  0.00  0.00    -0.034 C 
BRANCH   3   4
ATOM      4  C   UNL     1      44.805 -16.900 -33.817  0.00  0.00    +0.048 C 
BRANCH   4   5
ATOM      5  C   UNL     1      44.279 -17.789 -32.704  0.00  0.00    +0.307 C 
ATOM      6  O   UNL     1      44.986 -18.220 -31.798  0.00  0.00    -0.251 OA
BRANCH   5   7
ATOM      7  O   UNL     1      42.950 -18.077 -32.729  0.00  0.00    -0.465 OA
BRANCH   7   8
ATOM      8  C   UNL     1      42.467 -19.390 -33.065  0.00  0.00    +0.092 C 
BRANCH   8   9
ATOM      9  C   UNL     1      41.609 -19.287 -34.321  0.00  0.00    -0.017 C 
BRANCH   9  10
ATOM     10  C   UNL     1      42.065 -20.244 -35.424  0.00  0.00    -0.037 C 
BRANCH  10  11
ATOM     11  C   UNL     1      40.993 -21.270 -35.833  0.00  0.00    -0.001 C 
BRANCH  11  12
ATOM     12  N   UNL     1      40.742 -21.256 -37.276  0.00  0.00    -0.302 N 
ATOM     13  C   UNL     1      40.925 -19.943 -37.896  0.00  0.00    -0.001 C 
ATOM     14  C   UNL     1      41.018 -20.260 -39.381  0.00  0.00    -0.039 C 
ATOM     15  C   UNL     1      41.461 -21.717 -39.451  0.00  0.00    -0.039 C 
ATOM     16  C   UNL     1      41.660 -22.137 -38.003  0.00  0.00    -0.001 C 
ATOM     17  H   UNL     1      39.769 -21.558 -37.344  0.00  0.00    +0.000 HD
ENDBRANCH  11  12
ENDBRANCH  10  11
ENDBRANCH   9  10
ENDBRANCH   8   9
ENDBRANCH   7   8
ENDBRANCH   5   7
ENDBRANCH   4   5
ENDBRANCH   3   4
ENDBRANCH   1   3
BRANCH   1  18
ATOM     18  C   UNL     1      44.379 -16.840 -37.648  0.00  0.00    -0.046 C 
BRANCH  18  19
ATOM     19  C   UNL     1      43.715 -17.644 -38.818  0.00  0.00    -0.012 C 
ATOM     20  C   UNL     1      43.158 -16.748 -39.928  0.00  0.00    -0.045 C 
ATOM     21  C   UNL     1      43.405 -16.996 -41.223  0.00  0.00    -0.082 C 
ATOM     22  C   UNL     1      44.152 -18.163 -41.748  0.00  0.00    -0.031 C 
ATOM     23  C   UNL     1      44.299 -19.351 -40.763  0.00  0.00    -0.027 C 
ATOM     24  C   UNL     1      45.268 -20.439 -41.396  0.00  0.00    -0.031 C 
ATOM     25  C   UNL     1      45.133 -21.824 -40.718  0.00  0.00    -0.060 C 
ATOM     26  C   UNL     1      44.927 -20.700 -42.889  0.00  0.00    -0.060 C 
ATOM     27  C   UNL     1      46.735 -19.953 -41.328  0.00  0.00    -0.048 C 
ATOM     28  C   UNL     1      47.153 -19.410 -39.966  0.00  0.00    -0.052 C 
ATOM     29  C   UNL     1      46.193 -18.359 -39.403  0.00  0.00    -0.047 C 
ATOM     30  C   UNL     1      44.708 -18.821 -39.331  0.00  0.00    -0.022 C 
ATOM     31  C   UNL     1      44.579 -19.949 -38.269  0.00  0.00    -0.059 C 
BRANCH  20  32
ATOM     32  C   UNL     1      42.220 -15.628 -39.538  0.00  0.00    +0.066 C 
BRANCH  32  33
ATOM     33  O   UNL     1      41.090 -16.096 -38.806  0.00  0.00    -0.391 OA
ATOM     34  H   UNL     1      40.593 -16.728 -39.349  0.00  0.00    +0.000 HD
ENDBRANCH  32  33
ENDBRANCH  20  32
ENDBRANCH  18  19
ENDBRANCH   1  18
TORSDOF 13
ENDMDL
MODEL 8
REMARK VINA RESULT:    -5.895      2.963      7.625
REMARK INTER + INTRA:         -12.275
REMARK INTER:                  -8.506
REMARK INTRA:                  -3.769
REMARK UNBOUND:                -2.073
REMARK  Name = cpd197.pdb
REMARK  17 active torsions:
REMARK  status: ('A' for Active; 'I' for Inactive)
REMARK    1  A    between atoms: C_1  and  C_2
REMARK    2  A    between atoms: C_2  and  C_3
REMARK    3  A    between atoms: C_2  and  C_20
REMARK    4  A    between atoms: C_3  and  C_4
REMARK    5  A    between atoms: C_4  and  C_5
REMARK    6  A    between atoms: C_6  and  C_7
REMARK    7  A    between atoms: C_7  and  O_8
REMARK    8  A    between atoms: C_12  and  C_13
REMARK    9  A    between atoms: C_12  and  C_14
REMARK   10  A    between atoms: C_18  and  C_19
REMARK   11  A    between atoms: C_20  and  C_21
REMARK   12  A    between atoms: C_21  and  O_23
REMARK   13  A    between atoms: O_23  and  C_24
REMARK   14  A    between atoms: C_24  and  C_25
REMARK   15  A    between atoms: C_25  and  C_26
REMARK   16  A    between atoms: C_26  and  C_27
REMARK   17  A    between atoms: C_27  and  N_28
REMARK                            x       y       z     vdW  Elec       q    Type
REMARK                         _______ _______ _______ _____ _____    ______ ____
ROOT
ATOM      1  C   UNL     1      42.700 -21.035 -39.666  0.00  0.00    -0.049 C 
ENDROOT
BRANCH   1   3
ATOM      2  C   UNL     1      40.235 -21.022 -39.036  0.00  0.00    -0.062 C 
ATOM      3  C   UNL     1      41.645 -20.579 -38.636  0.00  0.00    -0.034 C 
BRANCH   3   4
ATOM      4  C   UNL     1      41.964 -21.165 -37.241  0.00  0.00    +0.048 C 
BRANCH   4   5
ATOM      5  C   UNL     1      42.936 -20.336 -36.419  0.00  0.00    +0.307 C 
ATOM      6  O   UNL     1      44.142 -20.559 -36.380  0.00  0.00    -0.251 OA
BRANCH   5   7
ATOM      7  O   UNL     1      42.412 -19.287 -35.731  0.00  0.00    -0.465 OA
BRANCH   7   8
ATOM      8  C   UNL     1      41.529 -19.483 -34.611  0.00  0.00    +0.092 C 
BRANCH   8   9
ATOM      9  C   UNL     1      42.368 -19.835 -33.386  0.00  0.00    -0.017 C 
BRANCH   9  10
ATOM     10  C   UNL     1      43.159 -18.639 -32.853  0.00  0.00    -0.037 C 
BRANCH  10  11
ATOM     11  C   UNL     1      44.669 -18.725 -33.131  0.00  0.00    -0.001 C 
BRANCH  11  12
ATOM     12  N   UNL     1      45.010 -18.240 -34.471  0.00  0.00    -0.302 N 
ATOM     13  C   UNL     1      44.762 -16.811 -34.664  0.00  0.00    -0.001 C 
ATOM     14  C   UNL     1      45.550 -16.478 -35.922  0.00  0.00    -0.039 C 
ATOM     15  C   UNL     1      46.625 -17.554 -36.015  0.00  0.00    -0.039 C 
ATOM     16  C   UNL     1      46.436 -18.409 -34.771  0.00  0.00    -0.001 C 
ATOM     17  H   UNL     1      44.411 -18.799 -35.079  0.00  0.00    +0.000 HD
ENDBRANCH  11  12
ENDBRANCH  10  11
ENDBRANCH   9  10
ENDBRANCH   8   9
ENDBRANCH   7   8
ENDBRANCH   5   7
ENDBRANCH   4   5
ENDBRANCH   3   4
ENDBRANCH   1   3
BRANCH   1  18
ATOM     18  C   UNL     1      43.538 -19.950 -40.370  0.00  0.00    -0.046 C 
BRANCH  18  19
ATOM     19  C   UNL     1      44.474 -19.003 -39.542  0.00  0.00    -0.012 C 
ATOM     20  C   UNL     1      45.957 -19.364 -39.660  0.00  0.00    -0.045 C 
ATOM     21  C   UNL     1      46.891 -18.433 -39.906  0.00  0.00    -0.082 C 
ATOM     22  C   UNL     1      46.644 -16.977 -40.018  0.00  0.00    -0.031 C 
ATOM     23  C   UNL     1      45.302 -16.486 -39.419  0.00  0.00    -0.027 C 
ATOM     24  C   UNL     1      45.100 -14.950 -39.774  0.00  0.00    -0.031 C 
ATOM     25  C   UNL     1      44.045 -14.264 -38.873  0.00  0.00    -0.060 C 
ATOM     26  C   UNL     1      46.404 -14.139 -39.537  0.00  0.00    -0.060 C 
ATOM     27  C   UNL     1      44.713 -14.792 -41.263  0.00  0.00    -0.048 C 
ATOM     28  C   UNL     1      43.600 -15.727 -41.724  0.00  0.00    -0.052 C 
ATOM     29  C   UNL     1      43.845 -17.196 -41.367  0.00  0.00    -0.047 C 
ATOM     30  C   UNL     1      44.127 -17.448 -39.858  0.00  0.00    -0.022 C 
ATOM     31  C   UNL     1      42.837 -17.150 -39.043  0.00  0.00    -0.059 C 
BRANCH  20  32
ATOM     32  C   UNL     1      46.369 -20.792 -39.378  0.00  0.00    +0.066 C 
BRANCH  32  33
ATOM     33  O   UNL     1      46.678 -21.007 -38.003  0.00  0.00    -0.391 OA
ATOM     34  H   UNL     1      46.859 -20.155 -37.576  0.00  0.00    +0.000 HD
ENDBRANCH  32  33
ENDBRANCH  20  32
ENDBRANCH  18  19
ENDBRANCH   1  18
TORSDOF 13
ENDMDL
MODEL 9
REMARK VINA RESULT:    -5.889      2.865      7.985
REMARK INTER + INTRA:         -12.265
REMARK INTER:                  -9.466
REMARK INTRA:                  -2.800
REMARK UNBOUND:                -2.073
REMARK  Name = cpd197.pdb
REMARK  17 active torsions:
REMARK  status: ('A' for Active; 'I' for Inactive)
REMARK    1  A    between atoms: C_1  and  C_2
REMARK    2  A    between atoms: C_2  and  C_3
REMARK    3  A    between atoms: C_2  and  C_20
REMARK    4  A    between atoms: C_3  and  C_4
REMARK    5  A    between atoms: C_4  and  C_5
REMARK    6  A    between atoms: C_6  and  C_7
REMARK    7  A    between atoms: C_7  and  O_8
REMARK    8  A    between atoms: C_12  and  C_13
REMARK    9  A    between atoms: C_12  and  C_14
REMARK   10  A    between atoms: C_18  and  C_19
REMARK   11  A    between atoms: C_20  and  C_21
REMARK   12  A    between atoms: C_21  and  O_23
REMARK   13  A    between atoms: O_23  and  C_24
REMARK   14  A    between atoms: C_24  and  C_25
REMARK   15  A    between atoms: C_25  and  C_26
REMARK   16  A    between atoms: C_26  and  C_27
REMARK   17  A    between atoms: C_27  and  N_28
REMARK                            x       y       z     vdW  Elec       q    Type
REMARK                         _______ _______ _______ _____ _____    ______ ____
ROOT
ATOM      1  C   UNL     1      41.571 -19.345 -35.784  0.00  0.00    -0.049 C 
ENDROOT
BRANCH   1   3
ATOM      2  C   UNL     1      43.720 -20.170 -34.699  0.00  0.00    -0.062 C 
ATOM      3  C   UNL     1      42.251 -20.486 -34.998  0.00  0.00    -0.034 C 
BRANCH   3   4
ATOM      4  C   UNL     1      41.520 -20.726 -33.656  0.00  0.00    +0.048 C 
BRANCH   4   5
ATOM      5  C   UNL     1      40.668 -21.984 -33.623  0.00  0.00    +0.307 C 
ATOM      6  O   UNL     1      40.940 -22.960 -32.931  0.00  0.00    -0.251 OA
BRANCH   5   7
ATOM      7  O   UNL     1      39.543 -21.979 -34.387  0.00  0.00    -0.465 OA
BRANCH   7   8
ATOM      8  C   UNL     1      38.405 -22.797 -34.061  0.00  0.00    +0.092 C 
BRANCH   8   9
ATOM      9  C   UNL     1      37.555 -22.060 -33.031  0.00  0.00    -0.017 C 
BRANCH   9  10
ATOM     10  C   UNL     1      36.829 -20.852 -33.625  0.00  0.00    -0.037 C 
BRANCH  10  11
ATOM     11  C   UNL     1      37.562 -19.518 -33.400  0.00  0.00    -0.001 C 
BRANCH  11  12
ATOM     12  N   UNL     1      38.200 -19.028 -34.624  0.00  0.00    -0.302 N 
ATOM     13  C   UNL     1      37.623 -19.577 -35.852  0.00  0.00    -0.001 C 
ATOM     14  C   UNL     1      38.140 -18.643 -36.937  0.00  0.00    -0.039 C 
ATOM     15  C   UNL     1      38.470 -17.341 -36.219  0.00  0.00    -0.039 C 
ATOM     16  C   UNL     1      38.064 -17.576 -34.772  0.00  0.00    -0.001 C 
ATOM     17  H   UNL     1      39.170 -19.324 -34.514  0.00  0.00    +0.000 HD
ENDBRANCH  11  12
ENDBRANCH  10  11
ENDBRANCH   9  10
ENDBRANCH   8   9
ENDBRANCH   7   8
ENDBRANCH   5   7
ENDBRANCH   4   5
ENDBRANCH   3   4
ENDBRANCH   1   3
BRANCH   1  18
ATOM     18  C   UNL     1      41.838 -19.253 -37.299  0.00  0.00    -0.046 C 
BRANCH  18  19
ATOM     19  C   UNL     1      42.379 -20.494 -38.091  0.00  0.00    -0.012 C 
ATOM     20  C   UNL     1      41.267 -21.357 -38.695  0.00  0.00    -0.045 C 
ATOM     21  C   UNL     1      41.314 -21.774 -39.969  0.00  0.00    -0.082 C 
ATOM     22  C   UNL     1      42.434 -21.538 -40.910  0.00  0.00    -0.031 C 
ATOM     23  C   UNL     1      43.778 -21.135 -40.251  0.00  0.00    -0.027 C 
ATOM     24  C   UNL     1      44.820 -20.742 -41.385  0.00  0.00    -0.031 C 
ATOM     25  C   UNL     1      46.283 -20.757 -40.880  0.00  0.00    -0.060 C 
ATOM     26  C   UNL     1      44.798 -21.768 -42.552  0.00  0.00    -0.060 C 
ATOM     27  C   UNL     1      44.472 -19.354 -41.972  0.00  0.00    -0.048 C 
ATOM     28  C   UNL     1      44.201 -18.280 -40.925  0.00  0.00    -0.052 C 
ATOM     29  C   UNL     1      43.184 -18.703 -39.861  0.00  0.00    -0.047 C 
ATOM     30  C   UNL     1      43.530 -20.038 -39.141  0.00  0.00    -0.022 C 
ATOM     31  C   UNL     1      44.805 -19.833 -38.275  0.00  0.00    -0.059 C 
BRANCH  20  32
ATOM     32  C   UNL     1      40.156 -21.829 -37.784  0.00  0.00    +0.066 C 
BRANCH  32  33
ATOM     33  O   UNL     1      40.514 -22.998 -37.052  0.00  0.00    -0.391 OA
ATOM     34  H   UNL     1      40.205 -22.913 -36.136  0.00  0.00    +0.000 HD
ENDBRANCH  32  33
ENDBRANCH  20  32
ENDBRANCH  18  19
ENDBRANCH   1  18
TORSDOF 13
ENDMDL
MODEL 10
REMARK VINA RESULT:    -5.886      2.795      7.884
REMARK INTER + INTRA:         -12.260
REMARK INTER:                  -9.970
REMARK INTRA:                  -2.291
REMARK UNBOUND:                -2.073
REMARK  Name = cpd197.pdb
REMARK  17 active torsions:
REMARK  status: ('A' for Active; 'I' for Inactive)
REMARK    1  A    between atoms: C_1  and  C_2
REMARK    2  A    between atoms: C_2  and  C_3
REMARK    3  A    between atoms: C_2  and  C_20
REMARK    4  A    between atoms: C_3  and  C_4
REMARK    5  A    between atoms: C_4  and  C_5
REMARK    6  A    between atoms: C_6  and  C_7
REMARK    7  A    between atoms: C_7  and  O_8
REMARK    8  A    between atoms: C_12  and  C_13
REMARK    9  A    between atoms: C_12  and  C_14
REMARK   10  A    between atoms: C_18  and  C_19
REMARK   11  A    between atoms: C_20  and  C_21
REMARK   12  A    between atoms: C_21  and  O_23
REMARK   13  A    between atoms: O_23  and  C_24
REMARK   14  A    between atoms: C_24  and  C_25
REMARK   15  A    between atoms: C_25  and  C_26
REMARK   16  A    between atoms: C_26  and  C_27
REMARK   17  A    between atoms: C_27  and  N_28
REMARK                            x       y       z     vdW  Elec       q    Type
REMARK                         _______ _______ _______ _____ _____    ______ ____
ROOT
ATOM      1  C   UNL     1      46.992 -18.743 -35.571  0.00  0.00    -0.049 C 
ENDROOT
BRANCH   1   3
ATOM      2  C   UNL     1      45.192 -20.067 -34.355  0.00  0.00    -0.062 C 
ATOM      3  C   UNL     1      45.509 -18.796 -35.148  0.00  0.00    -0.034 C 
BRANCH   3   4
ATOM      4  C   UNL     1      45.154 -17.571 -34.272  0.00  0.00    +0.048 C 
BRANCH   4   5
ATOM      5  C   UNL     1      43.902 -16.829 -34.709  0.00  0.00    +0.307 C 
ATOM      6  O   UNL     1      43.928 -15.839 -35.433  0.00  0.00    -0.251 OA
BRANCH   5   7
ATOM      7  O   UNL     1      42.714 -17.333 -34.281  0.00  0.00    -0.465 OA
BRANCH   7   8
ATOM      8  C   UNL     1      42.498 -17.695 -32.905  0.00  0.00    +0.092 C 
BRANCH   8   9
ATOM      9  C   UNL     1      41.420 -18.772 -32.848  0.00  0.00    -0.017 C 
BRANCH   9  10
ATOM     10  C   UNL     1      41.996 -20.186 -32.946  0.00  0.00    -0.037 C 
BRANCH  10  11
ATOM     11  C   UNL     1      40.923 -21.283 -33.055  0.00  0.00    -0.001 C 
BRANCH  11  12
ATOM     12  N   UNL     1      41.014 -22.019 -34.318  0.00  0.00    -0.302 N 
ATOM     13  C   UNL     1      39.717 -22.296 -34.937  0.00  0.00    -0.001 C 
ATOM     14  C   UNL     1      40.076 -22.670 -36.367  0.00  0.00    -0.039 C 
ATOM     15  C   UNL     1      41.437 -22.030 -36.617  0.00  0.00    -0.039 C 
ATOM     16  C   UNL     1      41.755 -21.271 -35.338  0.00  0.00    -0.001 C 
ATOM     17  H   UNL     1      41.481 -22.885 -34.048  0.00  0.00    +0.000 HD
ENDBRANCH  11  12
ENDBRANCH  10  11
ENDBRANCH   9  10
ENDBRANCH   8   9
ENDBRANCH   7   8
ENDBRANCH   5   7
ENDBRANCH   4   5
ENDBRANCH   3   4
ENDBRANCH   1   3
BRANCH   1  18
ATOM     18  C   UNL     1      47.327 -18.962 -37.059  0.00  0.00    -0.046 C 
BRANCH  18  19
ATOM     19  C   UNL     1      46.339 -18.483 -38.178  0.00  0.00    -0.012 C 
ATOM     20  C   UNL     1      46.878 -17.306 -38.997  0.00  0.00    -0.045 C 
ATOM     21  C   UNL     1      46.828 -17.300 -40.337  0.00  0.00    -0.082 C 
ATOM     22  C   UNL     1      46.204 -18.347 -41.179  0.00  0.00    -0.031 C 
ATOM     23  C   UNL     1      45.213 -19.284 -40.442  0.00  0.00    -0.027 C 
ATOM     24  C   UNL     1      44.772 -20.454 -41.423  0.00  0.00    -0.031 C 
ATOM     25  C   UNL     1      43.480 -21.167 -40.955  0.00  0.00    -0.060 C 
ATOM     26  C   UNL     1      44.426 -19.907 -42.836  0.00  0.00    -0.060 C 
ATOM     27  C   UNL     1      45.919 -21.479 -41.583  0.00  0.00    -0.048 C 
ATOM     28  C   UNL     1      46.551 -21.924 -40.270  0.00  0.00    -0.052 C 
ATOM     29  C   UNL     1      46.968 -20.760 -39.365  0.00  0.00    -0.047 C 
ATOM     30  C   UNL     1      45.828 -19.746 -39.062  0.00  0.00    -0.022 C 
ATOM     31  C   UNL     1      44.749 -20.440 -38.184  0.00  0.00    -0.059 C 
BRANCH  20  32
ATOM     32  C   UNL     1      47.371 -16.085 -38.252  0.00  0.00    +0.066 C 
BRANCH  32  33
ATOM     33  O   UNL     1      46.409 -15.589 -37.325  0.00  0.00    -0.391 OA
ATOM     34  H   UNL     1      45.535 -15.947 -37.544  0.00  0.00    +0.000 HD
ENDBRANCH  32  33
ENDBRANCH  20  32
ENDBRANCH  18  19
ENDBRANCH   1  18
TORSDOF 13
ENDMDL
MODEL 11
REMARK VINA RESULT:    -5.845      2.754      6.594
REMARK INTER + INTRA:         -12.189
REMARK INTER:                  -9.573
REMARK INTRA:                  -2.616
REMARK UNBOUND:                -2.073
REMARK  Name = cpd197.pdb
REMARK  17 active torsions:
REMARK  status: ('A' for Active; 'I' for Inactive)
REMARK    1  A    between atoms: C_1  and  C_2
REMARK    2  A    between atoms: C_2  and  C_3
REMARK    3  A    between atoms: C_2  and  C_20
REMARK    4  A    between atoms: C_3  and  C_4
REMARK    5  A    between atoms: C_4  and  C_5
REMARK    6  A    between atoms: C_6  and  C_7
REMARK    7  A    between atoms: C_7  and  O_8
REMARK    8  A    between atoms: C_12  and  C_13
REMARK    9  A    between atoms: C_12  and  C_14
REMARK   10  A    between atoms: C_18  and  C_19
REMARK   11  A    between atoms: C_20  and  C_21
REMARK   12  A    between atoms: C_21  and  O_23
REMARK   13  A    between atoms: O_23  and  C_24
REMARK   14  A    between atoms: C_24  and  C_25
REMARK   15  A    between atoms: C_25  and  C_26
REMARK   16  A    between atoms: C_26  and  C_27
REMARK   17  A    between atoms: C_27  and  N_28
REMARK                            x       y       z     vdW  Elec       q    Type
REMARK                         _______ _______ _______ _____ _____    ______ ____
ROOT
ATOM      1  C   UNL     1      46.255 -16.976 -38.435  0.00  0.00    -0.049 C 
ENDROOT
BRANCH   1   3
ATOM      2  C   UNL     1      46.222 -15.163 -36.650  0.00  0.00    -0.062 C 
ATOM      3  C   UNL     1      46.461 -16.647 -36.941  0.00  0.00    -0.034 C 
BRANCH   3   4
ATOM      4  C   UNL     1      45.493 -17.479 -36.067  0.00  0.00    +0.048 C 
BRANCH   4   5
ATOM      5  C   UNL     1      46.172 -18.299 -34.984  0.00  0.00    +0.307 C 
ATOM      6  O   UNL     1      47.380 -18.517 -34.966  0.00  0.00    -0.251 OA
BRANCH   5   7
ATOM      7  O   UNL     1      45.377 -18.775 -33.989  0.00  0.00    -0.465 OA
BRANCH   7   8
ATOM      8  C   UNL     1      44.612 -19.984 -34.147  0.00  0.00    +0.092 C 
BRANCH   8   9
ATOM      9  C   UNL     1      43.141 -19.666 -33.895  0.00  0.00    -0.017 C 
BRANCH   9  10
ATOM     10  C   UNL     1      42.305 -20.920 -33.638  0.00  0.00    -0.037 C 
BRANCH  10  11
ATOM     11  C   UNL     1      40.836 -20.622 -33.292  0.00  0.00    -0.001 C 
BRANCH  11  12
ATOM     12  N   UNL     1      39.910 -21.255 -34.234  0.00  0.00    -0.302 N 
ATOM     13  C   UNL     1      39.761 -20.529 -35.496  0.00  0.00    -0.001 C 
ATOM     14  C   UNL     1      39.116 -21.549 -36.422  0.00  0.00    -0.039 C 
ATOM     15  C   UNL     1      39.473 -22.907 -35.829  0.00  0.00    -0.039 C 
ATOM     16  C   UNL     1      40.357 -22.593 -34.632  0.00  0.00    -0.001 C 
ATOM     17  H   UNL     1      39.030 -21.271 -33.718  0.00  0.00    +0.000 HD
ENDBRANCH  11  12
ENDBRANCH  10  11
ENDBRANCH   9  10
ENDBRANCH   8   9
ENDBRANCH   7   8
ENDBRANCH   5   7
ENDBRANCH   4   5
ENDBRANCH   3   4
ENDBRANCH   1   3
BRANCH   1  18
ATOM     18  C   UNL     1      46.292 -18.457 -38.860  0.00  0.00    -0.046 C 
BRANCH  18  19
ATOM     19  C   UNL     1      45.334 -18.990 -39.980  0.00  0.00    -0.012 C 
ATOM     20  C   UNL     1      46.023 -19.938 -40.965  0.00  0.00    -0.045 C 
ATOM     21  C   UNL     1      45.470 -21.107 -41.321  0.00  0.00    -0.082 C 
ATOM     22  C   UNL     1      44.137 -21.593 -40.893  0.00  0.00    -0.031 C 
ATOM     23  C   UNL     1      43.186 -20.505 -40.333  0.00  0.00    -0.027 C 
ATOM     24  C   UNL     1      41.880 -21.201 -39.753  0.00  0.00    -0.031 C 
ATOM     25  C   UNL     1      40.703 -20.210 -39.583  0.00  0.00    -0.060 C 
ATOM     26  C   UNL     1      41.339 -22.287 -40.724  0.00  0.00    -0.060 C 
ATOM     27  C   UNL     1      42.195 -21.891 -38.405  0.00  0.00    -0.048 C 
ATOM     28  C   UNL     1      42.970 -21.021 -37.422  0.00  0.00    -0.052 C 
ATOM     29  C   UNL     1      44.224 -20.382 -38.025  0.00  0.00    -0.047 C 
ATOM     30  C   UNL     1      43.965 -19.569 -39.326  0.00  0.00    -0.022 C 
ATOM     31  C   UNL     1      43.121 -18.310 -38.979  0.00  0.00    -0.059 C 
BRANCH  20  32
ATOM     32  C   UNL     1      47.303 -19.475 -41.625  0.00  0.00    +0.066 C 
BRANCH  32  33
ATOM     33  O   UNL     1      48.344 -20.443 -41.529  0.00  0.00    -0.391 OA
ATOM     34  H   UNL     1      49.006 -20.144 -40.886  0.00  0.00    +0.000 HD
ENDBRANCH  32  33
ENDBRANCH  20  32
ENDBRANCH  18  19
ENDBRANCH   1  18
TORSDOF 13
ENDMDL
MODEL 12
REMARK VINA RESULT:    -5.809      2.232      4.021
REMARK INTER + INTRA:         -12.127
REMARK INTER:                 -10.211
REMARK INTRA:                  -1.917
REMARK UNBOUND:                -2.073
REMARK  Name = cpd197.pdb
REMARK  17 active torsions:
REMARK  status: ('A' for Active; 'I' for Inactive)
REMARK    1  A    between atoms: C_1  and  C_2
REMARK    2  A    between atoms: C_2  and  C_3
REMARK    3  A    between atoms: C_2  and  C_20
REMARK    4  A    between atoms: C_3  and  C_4
REMARK    5  A    between atoms: C_4  and  C_5
REMARK    6  A    between atoms: C_6  and  C_7
REMARK    7  A    between atoms: C_7  and  O_8
REMARK    8  A    between atoms: C_12  and  C_13
REMARK    9  A    between atoms: C_12  and  C_14
REMARK   10  A    between atoms: C_18  and  C_19
REMARK   11  A    between atoms: C_20  and  C_21
REMARK   12  A    between atoms: C_21  and  O_23
REMARK   13  A    between atoms: O_23  and  C_24
REMARK   14  A    between atoms: C_24  and  C_25
REMARK   15  A    between atoms: C_25  and  C_26
REMARK   16  A    between atoms: C_26  and  C_27
REMARK   17  A    between atoms: C_27  and  N_28
REMARK                            x       y       z     vdW  Elec       q    Type
REMARK                         _______ _______ _______ _____ _____    ______ ____
ROOT
ATOM      1  C   UNL     1      42.183 -19.032 -32.921  0.00  0.00    -0.049 C 
ENDROOT
BRANCH   1   3
ATOM      2  C   UNL     1      41.884 -16.812 -34.129  0.00  0.00    -0.062 C 
ATOM      3  C   UNL     1      42.887 -17.860 -33.637  0.00  0.00    -0.034 C 
BRANCH   3   4
ATOM      4  C   UNL     1      43.888 -17.167 -32.682  0.00  0.00    +0.048 C 
BRANCH   4   5
ATOM      5  C   UNL     1      45.328 -17.622 -32.844  0.00  0.00    +0.307 C 
ATOM      6  O   UNL     1      46.247 -17.206 -32.145  0.00  0.00    -0.251 OA
BRANCH   5   7
ATOM      7  O   UNL     1      45.568 -18.558 -33.801  0.00  0.00    -0.465 OA
BRANCH   7   8
ATOM      8  C   UNL     1      46.496 -18.320 -34.875  0.00  0.00    +0.092 C 
BRANCH   8   9
ATOM      9  C   UNL     1      47.043 -19.662 -35.352  0.00  0.00    -0.017 C 
BRANCH   9  10
ATOM     10  C   UNL     1      46.248 -20.237 -36.525  0.00  0.00    -0.037 C 
BRANCH  10  11
ATOM     11  C   UNL     1      46.311 -19.372 -37.796  0.00  0.00    -0.001 C 
BRANCH  11  12
ATOM     12  N   UNL     1      46.069 -20.157 -39.008  0.00  0.00    -0.302 N 
ATOM     13  C   UNL     1      46.573 -19.530 -40.231  0.00  0.00    -0.001 C 
ATOM     14  C   UNL     1      46.583 -20.669 -41.240  0.00  0.00    -0.039 C 
ATOM     15  C   UNL     1      46.647 -21.941 -40.403  0.00  0.00    -0.039 C 
ATOM     16  C   UNL     1      46.737 -21.462 -38.963  0.00  0.00    -0.001 C 
ATOM     17  H   UNL     1      45.052 -20.237 -39.034  0.00  0.00    +0.000 HD
ENDBRANCH  11  12
ENDBRANCH  10  11
ENDBRANCH   9  10
ENDBRANCH   8   9
ENDBRANCH   7   8
ENDBRANCH   5   7
ENDBRANCH   4   5
ENDBRANCH   3   4
ENDBRANCH   1   3
BRANCH   1  18
ATOM     18  C   UNL     1      41.005 -19.715 -33.642  0.00  0.00    -0.046 C 
BRANCH  18  19
ATOM     19  C   UNL     1      41.232 -21.023 -34.476  0.00  0.00    -0.012 C 
ATOM     20  C   UNL     1      40.280 -22.159 -34.090  0.00  0.00    -0.045 C 
ATOM     21  C   UNL     1      39.619 -22.869 -35.016  0.00  0.00    -0.082 C 
ATOM     22  C   UNL     1      39.766 -22.716 -36.483  0.00  0.00    -0.031 C 
ATOM     23  C   UNL     1      41.046 -21.974 -36.945  0.00  0.00    -0.027 C 
ATOM     24  C   UNL     1      40.972 -21.730 -38.513  0.00  0.00    -0.031 C 
ATOM     25  C   UNL     1      42.354 -21.410 -39.132  0.00  0.00    -0.060 C 
ATOM     26  C   UNL     1      40.495 -23.006 -39.262  0.00  0.00    -0.060 C 
ATOM     27  C   UNL     1      39.969 -20.596 -38.831  0.00  0.00    -0.048 C 
ATOM     28  C   UNL     1      40.146 -19.346 -37.978  0.00  0.00    -0.052 C 
ATOM     29  C   UNL     1      40.202 -19.632 -36.474  0.00  0.00    -0.047 C 
ATOM     30  C   UNL     1      41.273 -20.683 -36.063  0.00  0.00    -0.022 C 
ATOM     31  C   UNL     1      42.688 -20.089 -36.310  0.00  0.00    -0.059 C 
BRANCH  20  32
ATOM     32  C   UNL     1      40.184 -22.545 -32.630  0.00  0.00    +0.066 C 
BRANCH  32  33
ATOM     33  O   UNL     1      39.090 -21.910 -31.972  0.00  0.00    -0.391 OA
ATOM     34  H   UNL     1      39.398 -21.094 -31.548  0.00  0.00    +0.000 HD
ENDBRANCH  32  33
ENDBRANCH  20  32
ENDBRANCH  18  19
ENDBRANCH   1  18
TORSDOF 13
ENDMDL
MODEL 13
REMARK VINA RESULT:    -5.779      2.473      7.562
REMARK INTER + INTRA:         -12.075
REMARK INTER:                  -9.863
REMARK INTRA:                  -2.212
REMARK UNBOUND:                -2.073
REMARK  Name = cpd197.pdb
REMARK  17 active torsions:
REMARK  status: ('A' for Active; 'I' for Inactive)
REMARK    1  A    between atoms: C_1  and  C_2
REMARK    2  A    between atoms: C_2  and  C_3
REMARK    3  A    between atoms: C_2  and  C_20
REMARK    4  A    between atoms: C_3  and  C_4
REMARK    5  A    between atoms: C_4  and  C_5
REMARK    6  A    between atoms: C_6  and  C_7
REMARK    7  A    between atoms: C_7  and  O_8
REMARK    8  A    between atoms: C_12  and  C_13
REMARK    9  A    between atoms: C_12  and  C_14
REMARK   10  A    between atoms: C_18  and  C_19
REMARK   11  A    between atoms: C_20  and  C_21
REMARK   12  A    between atoms: C_21  and  O_23
REMARK   13  A    between atoms: O_23  and  C_24
REMARK   14  A    between atoms: C_24  and  C_25
REMARK   15  A    between atoms: C_25  and  C_26
REMARK   16  A    between atoms: C_26  and  C_27
REMARK   17  A    between atoms: C_27  and  N_28
REMARK                            x       y       z     vdW  Elec       q    Type
REMARK                         _______ _______ _______ _____ _____    ______ ____
ROOT
ATOM      1  C   UNL     1      43.732 -20.012 -35.243  0.00  0.00    -0.049 C 
ENDROOT
BRANCH   1   3
ATOM      2  C   UNL     1      46.102 -19.093 -35.123  0.00  0.00    -0.062 C 
ATOM      3  C   UNL     1      44.753 -19.212 -34.407  0.00  0.00    -0.034 C 
BRANCH   3   4
ATOM      4  C   UNL     1      44.221 -17.787 -34.126  0.00  0.00    +0.048 C 
BRANCH   4   5
ATOM      5  C   UNL     1      43.656 -17.592 -32.730  0.00  0.00    +0.307 C 
ATOM      6  O   UNL     1      44.359 -17.508 -31.727  0.00  0.00    -0.251 OA
BRANCH   5   7
ATOM      7  O   UNL     1      42.304 -17.482 -32.629  0.00  0.00    -0.465 OA
BRANCH   7   8
ATOM      8  C   UNL     1      41.552 -16.605 -33.485  0.00  0.00    +0.092 C 
BRANCH   8   9
ATOM      9  C   UNL     1      40.233 -17.284 -33.840  0.00  0.00    -0.017 C 
BRANCH   9  10
ATOM     10  C   UNL     1      40.433 -18.578 -34.631  0.00  0.00    -0.037 C 
BRANCH  10  11
ATOM     11  C   UNL     1      39.510 -19.724 -34.183  0.00  0.00    -0.001 C 
BRANCH  11  12
ATOM     12  N   UNL     1      40.260 -20.943 -33.869  0.00  0.00    -0.302 N 
ATOM     13  C   UNL     1      40.798 -20.972 -32.508  0.00  0.00    -0.001 C 
ATOM     14  C   UNL     1      41.149 -22.437 -32.295  0.00  0.00    -0.039 C 
ATOM     15  C   UNL     1      40.275 -23.205 -33.280  0.00  0.00    -0.039 C 
ATOM     16  C   UNL     1      39.424 -22.143 -33.960  0.00  0.00    -0.001 C 
ATOM     17  H   UNL     1      41.013 -20.935 -34.557  0.00  0.00    +0.000 HD
ENDBRANCH  11  12
ENDBRANCH  10  11
ENDBRANCH   9  10
ENDBRANCH   8   9
ENDBRANCH   7   8
ENDBRANCH   5   7
ENDBRANCH   4   5
ENDBRANCH   3   4
ENDBRANCH   1   3
BRANCH   1  18
ATOM     18  C   UNL     1      43.603 -19.675 -36.742  0.00  0.00    -0.046 C 
BRANCH  18  19
ATOM     19  C   UNL     1      43.592 -20.815 -37.818  0.00  0.00    -0.012 C 
ATOM     20  C   UNL     1      42.197 -21.102 -38.380  0.00  0.00    -0.045 C 
ATOM     21  C   UNL     1      41.979 -21.216 -39.698  0.00  0.00    -0.082 C 
ATOM     22  C   UNL     1      43.022 -21.161 -40.750  0.00  0.00    -0.031 C 
ATOM     23  C   UNL     1      44.472 -21.385 -40.254  0.00  0.00    -0.027 C 
ATOM     24  C   UNL     1      45.482 -21.117 -41.452  0.00  0.00    -0.031 C 
ATOM     25  C   UNL     1      46.881 -21.729 -41.199  0.00  0.00    -0.060 C 
ATOM     26  C   UNL     1      44.993 -21.790 -42.764  0.00  0.00    -0.060 C 
ATOM     27  C   UNL     1      45.605 -19.599 -41.718  0.00  0.00    -0.048 C 
ATOM     28  C   UNL     1      45.830 -18.758 -40.467  0.00  0.00    -0.052 C 
ATOM     29  C   UNL     1      44.826 -19.046 -39.346  0.00  0.00    -0.047 C 
ATOM     30  C   UNL     1      44.733 -20.545 -38.941  0.00  0.00    -0.022 C 
ATOM     31  C   UNL     1      46.068 -20.973 -38.269  0.00  0.00    -0.059 C 
BRANCH  20  32
ATOM     32  C   UNL     1      41.074 -21.369 -37.402  0.00  0.00    +0.066 C 
BRANCH  32  33
ATOM     33  O   UNL     1      39.815 -20.902 -37.879  0.00  0.00    -0.391 OA
ATOM     34  H   UNL     1      39.451 -20.258 -37.253  0.00  0.00    +0.000 HD
ENDBRANCH  32  33
ENDBRANCH  20  32
ENDBRANCH  18  19
ENDBRANCH   1  18
TORSDOF 13
ENDMDL
MODEL 14
REMARK VINA RESULT:    -5.676      2.577      8.081
REMARK INTER + INTRA:         -11.897
REMARK INTER:                  -9.207
REMARK INTRA:                  -2.690
REMARK UNBOUND:                -2.073
REMARK  Name = cpd197.pdb
REMARK  17 active torsions:
REMARK  status: ('A' for Active; 'I' for Inactive)
REMARK    1  A    between atoms: C_1  and  C_2
REMARK    2  A    between atoms: C_2  and  C_3
REMARK    3  A    between atoms: C_2  and  C_20
REMARK    4  A    between atoms: C_3  and  C_4
REMARK    5  A    between atoms: C_4  and  C_5
REMARK    6  A    between atoms: C_6  and  C_7
REMARK    7  A    between atoms: C_7  and  O_8
REMARK    8  A    between atoms: C_12  and  C_13
REMARK    9  A    between atoms: C_12  and  C_14
REMARK   10  A    between atoms: C_18  and  C_19
REMARK   11  A    between atoms: C_20  and  C_21
REMARK   12  A    between atoms: C_21  and  O_23
REMARK   13  A    between atoms: O_23  and  C_24
REMARK   14  A    between atoms: C_24  and  C_25
REMARK   15  A    between atoms: C_25  and  C_26
REMARK   16  A    between atoms: C_26  and  C_27
REMARK   17  A    between atoms: C_27  and  N_28
REMARK                            x       y       z     vdW  Elec       q    Type
REMARK                         _______ _______ _______ _____ _____    ______ ____
ROOT
ATOM      1  C   UNL     1      41.783 -20.965 -36.255  0.00  0.00    -0.049 C 
ENDROOT
BRANCH   1   3
ATOM      2  C   UNL     1      40.751 -21.943 -38.366  0.00  0.00    -0.062 C 
ATOM      3  C   UNL     1      40.543 -21.006 -37.173  0.00  0.00    -0.034 C 
BRANCH   3   4
ATOM      4  C   UNL     1      39.303 -21.490 -36.383  0.00  0.00    +0.048 C 
BRANCH   4   5
ATOM      5  C   UNL     1      39.472 -22.846 -35.720  0.00  0.00    +0.307 C 
ATOM      6  O   UNL     1      39.215 -23.905 -36.284  0.00  0.00    -0.251 OA
BRANCH   5   7
ATOM      7  O   UNL     1      39.961 -22.848 -34.451  0.00  0.00    -0.465 OA
BRANCH   7   8
ATOM      8  C   UNL     1      39.357 -22.064 -33.407  0.00  0.00    +0.092 C 
BRANCH   8   9
ATOM      9  C   UNL     1      40.435 -21.202 -32.758  0.00  0.00    -0.017 C 
BRANCH   9  10
ATOM     10  C   UNL     1      40.333 -19.730 -33.163  0.00  0.00    -0.037 C 
BRANCH  10  11
ATOM     11  C   UNL     1      41.374 -18.828 -32.478  0.00  0.00    -0.001 C 
BRANCH  11  12
ATOM     12  N   UNL     1      42.286 -18.210 -33.442  0.00  0.00    -0.302 N 
ATOM     13  C   UNL     1      41.657 -17.874 -34.721  0.00  0.00    -0.001 C 
ATOM     14  C   UNL     1      42.644 -16.910 -35.362  0.00  0.00    -0.039 C 
ATOM     15  C   UNL     1      43.442 -16.326 -34.202  0.00  0.00    -0.039 C 
ATOM     16  C   UNL     1      42.826 -16.938 -32.954  0.00  0.00    -0.001 C 
ATOM     17  H   UNL     1      43.007 -18.921 -33.568  0.00  0.00    +0.000 HD
ENDBRANCH  11  12
ENDBRANCH  10  11
ENDBRANCH   9  10
ENDBRANCH   8   9
ENDBRANCH   7   8
ENDBRANCH   5   7
ENDBRANCH   4   5
ENDBRANCH   3   4
ENDBRANCH   1   3
BRANCH   1  18
ATOM     18  C   UNL     1      43.170 -21.117 -36.909  0.00  0.00    -0.046 C 
BRANCH  18  19
ATOM     19  C   UNL     1      44.108 -19.873 -37.089  0.00  0.00    -0.012 C 
ATOM     20  C   UNL     1      45.459 -20.028 -36.386  0.00  0.00    -0.045 C 
ATOM     21  C   UNL     1      46.612 -19.740 -37.007  0.00  0.00    -0.082 C 
ATOM     22  C   UNL     1      46.737 -19.181 -38.374  0.00  0.00    -0.031 C 
ATOM     23  C   UNL     1      45.450 -18.530 -38.941  0.00  0.00    -0.027 C 
ATOM     24  C   UNL     1      45.686 -18.145 -40.465  0.00  0.00    -0.031 C 
ATOM     25  C   UNL     1      44.655 -17.114 -40.985  0.00  0.00    -0.060 C 
ATOM     26  C   UNL     1      47.064 -17.457 -40.667  0.00  0.00    -0.060 C 
ATOM     27  C   UNL     1      45.660 -19.416 -41.347  0.00  0.00    -0.048 C 
ATOM     28  C   UNL     1      44.482 -20.344 -41.076  0.00  0.00    -0.052 C 
ATOM     29  C   UNL     1      44.303 -20.692 -39.595  0.00  0.00    -0.047 C 
ATOM     30  C   UNL     1      44.202 -19.456 -38.655  0.00  0.00    -0.022 C 
ATOM     31  C   UNL     1      42.876 -18.700 -38.951  0.00  0.00    -0.059 C 
BRANCH  20  32
ATOM     32  C   UNL     1      45.463 -20.410 -34.922  0.00  0.00    +0.066 C 
BRANCH  32  33
ATOM     33  O   UNL     1      45.173 -19.305 -34.072  0.00  0.00    -0.391 OA
ATOM     34  H   UNL     1      44.212 -19.214 -33.975  0.00  0.00    +0.000 HD
ENDBRANCH  32  33
ENDBRANCH  20  32
ENDBRANCH  18  19
ENDBRANCH   1  18
TORSDOF 13
ENDMDL
MODEL 15
REMARK VINA RESULT:    -5.673      2.706      8.447
REMARK INTER + INTRA:         -11.891
REMARK INTER:                  -9.312
REMARK INTRA:                  -2.579
REMARK UNBOUND:                -2.073
REMARK  Name = cpd197.pdb
REMARK  17 active torsions:
REMARK  status: ('A' for Active; 'I' for Inactive)
REMARK    1  A    between atoms: C_1  and  C_2
REMARK    2  A    between atoms: C_2  and  C_3
REMARK    3  A    between atoms: C_2  and  C_20
REMARK    4  A    between atoms: C_3  and  C_4
REMARK    5  A    between atoms: C_4  and  C_5
REMARK    6  A    between atoms: C_6  and  C_7
REMARK    7  A    between atoms: C_7  and  O_8
REMARK    8  A    between atoms: C_12  and  C_13
REMARK    9  A    between atoms: C_12  and  C_14
REMARK   10  A    between atoms: C_18  and  C_19
REMARK   11  A    between atoms: C_20  and  C_21
REMARK   12  A    between atoms: C_21  and  O_23
REMARK   13  A    between atoms: O_23  and  C_24
REMARK   14  A    between atoms: C_24  and  C_25
REMARK   15  A    between atoms: C_25  and  C_26
REMARK   16  A    between atoms: C_26  and  C_27
REMARK   17  A    between atoms: C_27  and  N_28
REMARK                            x       y       z     vdW  Elec       q    Type
REMARK                         _______ _______ _______ _____ _____    ______ ____
ROOT
ATOM      1  C   UNL     1      41.359 -19.512 -35.681  0.00  0.00    -0.049 C 
ENDROOT
BRANCH   1   3
ATOM      2  C   UNL     1      39.291 -18.598 -36.849  0.00  0.00    -0.062 C 
ATOM      3  C   UNL     1      39.959 -19.836 -36.242  0.00  0.00    -0.034 C 
BRANCH   3   4
ATOM      4  C   UNL     1      40.055 -20.926 -37.336  0.00  0.00    +0.048 C 
BRANCH   4   5
ATOM      5  C   UNL     1      39.897 -22.346 -36.822  0.00  0.00    +0.307 C 
ATOM      6  O   UNL     1      40.186 -23.336 -37.487  0.00  0.00    -0.251 OA
BRANCH   5   7
ATOM      7  O   UNL     1      39.439 -22.487 -35.550  0.00  0.00    -0.465 OA
BRANCH   7   8
ATOM      8  C   UNL     1      40.267 -23.023 -34.502  0.00  0.00    +0.092 C 
BRANCH   8   9
ATOM      9  C   UNL     1      39.572 -22.791 -33.164  0.00  0.00    -0.017 C 
BRANCH   9  10
ATOM     10  C   UNL     1      39.510 -21.311 -32.784  0.00  0.00    -0.037 C 
BRANCH  10  11
ATOM     11  C   UNL     1      38.082 -20.739 -32.759  0.00  0.00    -0.001 C 
BRANCH  11  12
ATOM     12  N   UNL     1      38.076 -19.281 -32.622  0.00  0.00    -0.302 N 
ATOM     13  C   UNL     1      39.412 -18.686 -32.565  0.00  0.00    -0.001 C 
ATOM     14  C   UNL     1      39.159 -17.211 -32.838  0.00  0.00    -0.039 C 
ATOM     15  C   UNL     1      37.833 -17.167 -33.588  0.00  0.00    -0.039 C 
ATOM     16  C   UNL     1      37.430 -18.623 -33.762  0.00  0.00    -0.001 C 
ATOM     17  H   UNL     1      37.575 -19.133 -31.746  0.00  0.00    +0.000 HD
ENDBRANCH  11  12
ENDBRANCH  10  11
ENDBRANCH   9  10
ENDBRANCH   8   9
ENDBRANCH   7   8
ENDBRANCH   5   7
ENDBRANCH   4   5
ENDBRANCH   3   4
ENDBRANCH   1   3
BRANCH   1  18
ATOM     18  C   UNL     1      42.557 -20.317 -36.220  0.00  0.00    -0.046 C 
BRANCH  18  19
ATOM     19  C   UNL     1      43.784 -19.586 -36.867  0.00  0.00    -0.012 C 
ATOM     20  C   UNL     1      45.123 -19.977 -36.237  0.00  0.00    -0.045 C 
ATOM     21  C   UNL     1      46.186 -20.303 -36.988  0.00  0.00    -0.082 C 
ATOM     22  C   UNL     1      46.239 -20.257 -38.468  0.00  0.00    -0.031 C 
ATOM     23  C   UNL     1      45.134 -19.406 -39.143  0.00  0.00    -0.027 C 
ATOM     24  C   UNL     1      45.212 -19.601 -40.718  0.00  0.00    -0.031 C 
ATOM     25  C   UNL     1      44.471 -18.485 -41.494  0.00  0.00    -0.060 C 
ATOM     26  C   UNL     1      46.678 -19.523 -41.226  0.00  0.00    -0.060 C 
ATOM     27  C   UNL     1      44.651 -20.988 -41.113  0.00  0.00    -0.048 C 
ATOM     28  C   UNL     1      43.311 -21.328 -40.473  0.00  0.00    -0.052 C 
ATOM     29  C   UNL     1      43.290 -21.133 -38.954  0.00  0.00    -0.047 C 
ATOM     30  C   UNL     1      43.731 -19.716 -38.485  0.00  0.00    -0.022 C 
ATOM     31  C   UNL     1      42.668 -18.677 -38.938  0.00  0.00    -0.059 C 
BRANCH  20  32
ATOM     32  C   UNL     1      45.260 -19.881 -34.733  0.00  0.00    +0.066 C 
BRANCH  32  33
ATOM     33  O   UNL     1      45.481 -21.150 -34.126  0.00  0.00    -0.391 OA
ATOM     34  H   UNL     1      46.044 -21.041 -33.344  0.00  0.00    +0.000 HD
ENDBRANCH  32  33
ENDBRANCH  20  32
ENDBRANCH  18  19
ENDBRANCH   1  18
TORSDOF 13
ENDMDL
MODEL 16
REMARK VINA RESULT:    -5.625      1.783      2.465
REMARK INTER + INTRA:         -11.809
REMARK INTER:                  -9.343
REMARK INTRA:                  -2.466
REMARK UNBOUND:                -2.073
REMARK  Name = cpd197.pdb
REMARK  17 active torsions:
REMARK  status: ('A' for Active; 'I' for Inactive)
REMARK    1  A    between atoms: C_1  and  C_2
REMARK    2  A    between atoms: C_2  and  C_3
REMARK    3  A    between atoms: C_2  and  C_20
REMARK    4  A    between atoms: C_3  and  C_4
REMARK    5  A    between atoms: C_4  and  C_5
REMARK    6  A    between atoms: C_6  and  C_7
REMARK    7  A    between atoms: C_7  and  O_8
REMARK    8  A    between atoms: C_12  and  C_13
REMARK    9  A    between atoms: C_12  and  C_14
REMARK   10  A    between atoms: C_18  and  C_19
REMARK   11  A    between atoms: C_20  and  C_21
REMARK   12  A    between atoms: C_21  and  O_23
REMARK   13  A    between atoms: O_23  and  C_24
REMARK   14  A    between atoms: C_24  and  C_25
REMARK   15  A    between atoms: C_25  and  C_26
REMARK   16  A    between atoms: C_26  and  C_27
REMARK   17  A    between atoms: C_27  and  N_28
REMARK                            x       y       z     vdW  Elec       q    Type
REMARK                         _______ _______ _______ _____ _____    ______ ____
ROOT
ATOM      1  C   UNL     1      42.334 -17.563 -35.704  0.00  0.00    -0.049 C 
ENDROOT
BRANCH   1   3
ATOM      2  C   UNL     1      41.532 -16.122 -33.766  0.00  0.00    -0.062 C 
ATOM      3  C   UNL     1      42.710 -16.897 -34.364  0.00  0.00    -0.034 C 
BRANCH   3   4
ATOM      4  C   UNL     1      43.164 -17.964 -33.340  0.00  0.00    +0.048 C 
BRANCH   4   5
ATOM      5  C   UNL     1      44.601 -17.811 -32.870  0.00  0.00    +0.307 C 
ATOM      6  O   UNL     1      44.982 -18.154 -31.755  0.00  0.00    -0.251 OA
BRANCH   5   7
ATOM      7  O   UNL     1      45.483 -17.290 -33.764  0.00  0.00    -0.465 OA
BRANCH   7   8
ATOM      8  C   UNL     1      46.169 -18.120 -34.719  0.00  0.00    +0.092 C 
BRANCH   8   9
ATOM      9  C   UNL     1      46.533 -17.268 -35.931  0.00  0.00    -0.017 C 
BRANCH   9  10
ATOM     10  C   UNL     1      46.857 -18.112 -37.165  0.00  0.00    -0.037 C 
BRANCH  10  11
ATOM     11  C   UNL     1      46.181 -19.494 -37.163  0.00  0.00    -0.001 C 
BRANCH  11  12
ATOM     12  N   UNL     1      45.404 -19.728 -38.382  0.00  0.00    -0.302 N 
ATOM     13  C   UNL     1      45.732 -18.814 -39.478  0.00  0.00    -0.001 C 
ATOM     14  C   UNL     1      45.133 -19.493 -40.701  0.00  0.00    -0.039 C 
ATOM     15  C   UNL     1      45.031 -20.968 -40.328  0.00  0.00    -0.039 C 
ATOM     16  C   UNL     1      45.637 -21.065 -38.937  0.00  0.00    -0.001 C 
ATOM     17  H   UNL     1      44.441 -19.593 -38.072  0.00  0.00    +0.000 HD
ENDBRANCH  11  12
ENDBRANCH  10  11
ENDBRANCH   9  10
ENDBRANCH   8   9
ENDBRANCH   7   8
ENDBRANCH   5   7
ENDBRANCH   4   5
ENDBRANCH   3   4
ENDBRANCH   1   3
BRANCH   1  18
ATOM     18  C   UNL     1      42.379 -19.102 -35.783  0.00  0.00    -0.046 C 
BRANCH  18  19
ATOM     19  C   UNL     1      41.079 -19.923 -36.090  0.00  0.00    -0.012 C 
ATOM     20  C   UNL     1      41.243 -20.898 -37.260  0.00  0.00    -0.045 C 
ATOM     21  C   UNL     1      40.835 -22.173 -37.176  0.00  0.00    -0.082 C 
ATOM     22  C   UNL     1      40.129 -22.775 -36.020  0.00  0.00    -0.031 C 
ATOM     23  C   UNL     1      39.484 -21.763 -35.040  0.00  0.00    -0.027 C 
ATOM     24  C   UNL     1      38.929 -22.544 -33.772  0.00  0.00    -0.031 C 
ATOM     25  C   UNL     1      37.899 -21.715 -32.966  0.00  0.00    -0.060 C 
ATOM     26  C   UNL     1      38.157 -23.826 -34.191  0.00  0.00    -0.060 C 
ATOM     27  C   UNL     1      40.098 -22.977 -32.857  0.00  0.00    -0.048 C 
ATOM     28  C   UNL     1      41.105 -21.872 -32.561  0.00  0.00    -0.052 C 
ATOM     29  C   UNL     1      41.617 -21.156 -33.815  0.00  0.00    -0.047 C 
ATOM     30  C   UNL     1      40.494 -20.588 -34.730  0.00  0.00    -0.022 C 
ATOM     31  C   UNL     1      39.776 -19.425 -33.990  0.00  0.00    -0.059 C 
BRANCH  20  32
ATOM     32  C   UNL     1      41.779 -20.360 -38.568  0.00  0.00    +0.066 C 
BRANCH  32  33
ATOM     33  O   UNL     1      41.561 -21.257 -39.654  0.00  0.00    -0.391 OA
ATOM     34  H   UNL     1      41.776 -20.812 -40.489  0.00  0.00    +0.000 HD
ENDBRANCH  32  33
ENDBRANCH  20  32
ENDBRANCH  18  19
ENDBRANCH   1  18
TORSDOF 13
ENDMDL
MODEL 17
REMARK VINA RESULT:    -5.624      2.452      6.819
REMARK INTER + INTRA:         -11.806
REMARK INTER:                  -9.369
REMARK INTRA:                  -2.437
REMARK UNBOUND:                -2.073
REMARK  Name = cpd197.pdb
REMARK  17 active torsions:
REMARK  status: ('A' for Active; 'I' for Inactive)
REMARK    1  A    between atoms: C_1  and  C_2
REMARK    2  A    between atoms: C_2  and  C_3
REMARK    3  A    between atoms: C_2  and  C_20
REMARK    4  A    between atoms: C_3  and  C_4
REMARK    5  A    between atoms: C_4  and  C_5
REMARK    6  A    between atoms: C_6  and  C_7
REMARK    7  A    between atoms: C_7  and  O_8
REMARK    8  A    between atoms: C_12  and  C_13
REMARK    9  A    between atoms: C_12  and  C_14
REMARK   10  A    between atoms: C_18  and  C_19
REMARK   11  A    between atoms: C_20  and  C_21
REMARK   12  A    between atoms: C_21  and  O_23
REMARK   13  A    between atoms: O_23  and  C_24
REMARK   14  A    between atoms: C_24  and  C_25
REMARK   15  A    between atoms: C_25  and  C_26
REMARK   16  A    between atoms: C_26  and  C_27
REMARK   17  A    between atoms: C_27  and  N_28
REMARK                            x       y       z     vdW  Elec       q    Type
REMARK                         _______ _______ _______ _____ _____    ______ ____
ROOT
ATOM      1  C   UNL     1      41.720 -18.855 -37.192  0.00  0.00    -0.049 C 
ENDROOT
BRANCH   1   3
ATOM      2  C   UNL     1      40.270 -17.055 -36.127  0.00  0.00    -0.062 C 
ATOM      3  C   UNL     1      40.943 -18.416 -35.932  0.00  0.00    -0.034 C 
BRANCH   3   4
ATOM      4  C   UNL     1      39.852 -19.456 -35.582  0.00  0.00    +0.048 C 
BRANCH   4   5
ATOM      5  C   UNL     1      40.239 -20.423 -34.476  0.00  0.00    +0.307 C 
ATOM      6  O   UNL     1      40.078 -21.636 -34.559  0.00  0.00    -0.251 OA
BRANCH   5   7
ATOM      7  O   UNL     1      40.814 -19.883 -33.368  0.00  0.00    -0.465 OA
BRANCH   7   8
ATOM      8  C   UNL     1      42.202 -20.098 -33.056  0.00  0.00    +0.092 C 
BRANCH   8   9
ATOM      9  C   UNL     1      42.842 -18.752 -32.732  0.00  0.00    -0.017 C 
BRANCH   9  10
ATOM     10  C   UNL     1      44.249 -18.615 -33.316  0.00  0.00    -0.037 C 
BRANCH  10  11
ATOM     11  C   UNL     1      44.339 -17.615 -34.482  0.00  0.00    -0.001 C 
BRANCH  11  12
ATOM     12  N   UNL     1      45.384 -17.981 -35.441  0.00  0.00    -0.302 N 
ATOM     13  C   UNL     1      45.955 -16.839 -36.158  0.00  0.00    -0.001 C 
ATOM     14  C   UNL     1      47.242 -17.396 -36.749  0.00  0.00    -0.039 C 
ATOM     15  C   UNL     1      47.599 -18.591 -35.873  0.00  0.00    -0.039 C 
ATOM     16  C   UNL     1      46.533 -18.616 -34.788  0.00  0.00    -0.001 C 
ATOM     17  H   UNL     1      44.900 -18.608 -36.083  0.00  0.00    +0.000 HD
ENDBRANCH  11  12
ENDBRANCH  10  11
ENDBRANCH   9  10
ENDBRANCH   8   9
ENDBRANCH   7   8
ENDBRANCH   5   7
ENDBRANCH   4   5
ENDBRANCH   3   4
ENDBRANCH   1   3
BRANCH   1  18
ATOM     18  C   UNL     1      42.877 -19.856 -37.014  0.00  0.00    -0.046 C 
BRANCH  18  19
ATOM     19  C   UNL     1      43.184 -20.926 -38.119  0.00  0.00    -0.012 C 
ATOM     20  C   UNL     1      41.924 -21.473 -38.796  0.00  0.00    -0.045 C 
ATOM     21  C   UNL     1      41.828 -21.573 -40.130  0.00  0.00    -0.082 C 
ATOM     22  C   UNL     1      42.907 -21.255 -41.095  0.00  0.00    -0.031 C 
ATOM     23  C   UNL     1      44.334 -21.193 -40.494  0.00  0.00    -0.027 C 
ATOM     24  C   UNL     1      45.346 -20.668 -41.601  0.00  0.00    -0.031 C 
ATOM     25  C   UNL     1      46.822 -20.985 -41.257  0.00  0.00    -0.060 C 
ATOM     26  C   UNL     1      45.104 -21.370 -42.966  0.00  0.00    -0.060 C 
ATOM     27  C   UNL     1      45.163 -19.147 -41.816  0.00  0.00    -0.048 C 
ATOM     28  C   UNL     1      45.116 -18.334 -40.528  0.00  0.00    -0.052 C 
ATOM     29  C   UNL     1      44.120 -18.873 -39.497  0.00  0.00    -0.047 C 
ATOM     30  C   UNL     1      44.318 -20.375 -39.142  0.00  0.00    -0.022 C 
ATOM     31  C   UNL     1      45.662 -20.544 -38.380  0.00  0.00    -0.059 C 
BRANCH  20  32
ATOM     32  C   UNL     1      40.817 -22.012 -37.916  0.00  0.00    +0.066 C 
BRANCH  32  33
ATOM     33  O   UNL     1      41.297 -22.938 -36.946  0.00  0.00    -0.391 OA
ATOM     34  H   UNL     1      40.792 -22.837 -36.124  0.00  0.00    +0.000 HD
ENDBRANCH  32  33
ENDBRANCH  20  32
ENDBRANCH  18  19
ENDBRANCH   1  18
TORSDOF 13
ENDMDL
MODEL 18
REMARK VINA RESULT:    -5.596      2.737      6.879
REMARK INTER + INTRA:         -11.759
REMARK INTER:                  -8.456
REMARK INTRA:                  -3.303
REMARK UNBOUND:                -2.073
REMARK  Name = cpd197.pdb
REMARK  17 active torsions:
REMARK  status: ('A' for Active; 'I' for Inactive)
REMARK    1  A    between atoms: C_1  and  C_2
REMARK    2  A    between atoms: C_2  and  C_3
REMARK    3  A    between atoms: C_2  and  C_20
REMARK    4  A    between atoms: C_3  and  C_4
REMARK    5  A    between atoms: C_4  and  C_5
REMARK    6  A    between atoms: C_6  and  C_7
REMARK    7  A    between atoms: C_7  and  O_8
REMARK    8  A    between atoms: C_12  and  C_13
REMARK    9  A    between atoms: C_12  and  C_14
REMARK   10  A    between atoms: C_18  and  C_19
REMARK   11  A    between atoms: C_20  and  C_21
REMARK   12  A    between atoms: C_21  and  O_23
REMARK   13  A    between atoms: O_23  and  C_24
REMARK   14  A    between atoms: C_24  and  C_25
REMARK   15  A    between atoms: C_25  and  C_26
REMARK   16  A    between atoms: C_26  and  C_27
REMARK   17  A    between atoms: C_27  and  N_28
REMARK                            x       y       z     vdW  Elec       q    Type
REMARK                         _______ _______ _______ _____ _____    ______ ____
ROOT
ATOM      1  C   UNL     1      41.746 -20.195 -34.786  0.00  0.00    -0.049 C 
ENDROOT
BRANCH   1   3
ATOM      2  C   UNL     1      39.590 -20.051 -36.130  0.00  0.00    -0.062 C 
ATOM      3  C   UNL     1      40.572 -19.296 -35.229  0.00  0.00    -0.034 C 
BRANCH   3   4
ATOM      4  C   UNL     1      39.799 -18.771 -33.996  0.00  0.00    +0.048 C 
BRANCH   4   5
ATOM      5  C   UNL     1      40.683 -18.236 -32.883  0.00  0.00    +0.307 C 
ATOM      6  O   UNL     1      40.884 -18.841 -31.835  0.00  0.00    -0.251 OA
BRANCH   5   7
ATOM      7  O   UNL     1      41.287 -17.038 -33.107  0.00  0.00    -0.465 OA
BRANCH   7   8
ATOM      8  C   UNL     1      42.693 -16.943 -33.396  0.00  0.00    +0.092 C 
BRANCH   8   9
ATOM      9  C   UNL     1      42.865 -16.562 -34.863  0.00  0.00    -0.017 C 
BRANCH   9  10
ATOM     10  C   UNL     1      44.031 -15.599 -35.087  0.00  0.00    -0.037 C 
BRANCH  10  11
ATOM     11  C   UNL     1      45.392 -16.300 -35.233  0.00  0.00    -0.001 C 
BRANCH  11  12
ATOM     12  N   UNL     1      45.755 -16.509 -36.636  0.00  0.00    -0.302 N 
ATOM     13  C   UNL     1      45.128 -15.560 -37.558  0.00  0.00    -0.001 C 
ATOM     14  C   UNL     1      45.948 -15.704 -38.831  0.00  0.00    -0.039 C 
ATOM     15  C   UNL     1      47.293 -16.261 -38.379  0.00  0.00    -0.039 C 
ATOM     16  C   UNL     1      47.194 -16.345 -36.864  0.00  0.00    -0.001 C 
ATOM     17  H   UNL     1      45.434 -17.460 -36.820  0.00  0.00    +0.000 HD
ENDBRANCH  11  12
ENDBRANCH  10  11
ENDBRANCH   9  10
ENDBRANCH   8   9
ENDBRANCH   7   8
ENDBRANCH   5   7
ENDBRANCH   4   5
ENDBRANCH   3   4
ENDBRANCH   1   3
BRANCH   1  18
ATOM     18  C   UNL     1      42.716 -20.701 -35.870  0.00  0.00    -0.046 C 
BRANCH  18  19
ATOM     19  C   UNL     1      43.840 -19.765 -36.435  0.00  0.00    -0.012 C 
ATOM     20  C   UNL     1      45.214 -20.023 -35.808  0.00  0.00    -0.045 C 
ATOM     21  C   UNL     1      46.318 -20.145 -36.558  0.00  0.00    -0.082 C 
ATOM     22  C   UNL     1      46.381 -19.977 -38.029  0.00  0.00    -0.031 C 
ATOM     23  C   UNL     1      45.179 -19.230 -38.661  0.00  0.00    -0.027 C 
ATOM     24  C   UNL     1      45.299 -19.290 -40.244  0.00  0.00    -0.031 C 
ATOM     25  C   UNL     1      44.424 -18.225 -40.949  0.00  0.00    -0.060 C 
ATOM     26  C   UNL     1      46.747 -18.978 -40.713  0.00  0.00    -0.060 C 
ATOM     27  C   UNL     1      44.934 -20.703 -40.755  0.00  0.00    -0.048 C 
ATOM     28  C   UNL     1      43.644 -21.268 -40.171  0.00  0.00    -0.052 C 
ATOM     29  C   UNL     1      43.581 -21.196 -38.642  0.00  0.00    -0.047 C 
ATOM     30  C   UNL     1      43.824 -19.775 -38.058  0.00  0.00    -0.022 C 
ATOM     31  C   UNL     1      42.635 -18.854 -38.454  0.00  0.00    -0.059 C 
BRANCH  20  32
ATOM     32  C   UNL     1      45.320 -20.027 -34.299  0.00  0.00    +0.066 C 
BRANCH  32  33
ATOM     33  O   UNL     1      45.520 -21.336 -33.772  0.00  0.00    -0.391 OA
ATOM     34  H   UNL     1      44.668 -21.706 -33.493  0.00  0.00    +0.000 HD
ENDBRANCH  32  33
ENDBRANCH  20  32
ENDBRANCH  18  19
ENDBRANCH   1  18
TORSDOF 13
ENDMDL
MODEL 19
REMARK VINA RESULT:    -5.555      2.018      3.234
REMARK INTER + INTRA:         -11.687
REMARK INTER:                  -9.911
REMARK INTRA:                  -1.775
REMARK UNBOUND:                -2.073
REMARK  Name = cpd197.pdb
REMARK  17 active torsions:
REMARK  status: ('A' for Active; 'I' for Inactive)
REMARK    1  A    between atoms: C_1  and  C_2
REMARK    2  A    between atoms: C_2  and  C_3
REMARK    3  A    between atoms: C_2  and  C_20
REMARK    4  A    between atoms: C_3  and  C_4
REMARK    5  A    between atoms: C_4  and  C_5
REMARK    6  A    between atoms: C_6  and  C_7
REMARK    7  A    between atoms: C_7  and  O_8
REMARK    8  A    between atoms: C_12  and  C_13
REMARK    9  A    between atoms: C_12  and  C_14
REMARK   10  A    between atoms: C_18  and  C_19
REMARK   11  A    between atoms: C_20  and  C_21
REMARK   12  A    between atoms: C_21  and  O_23
REMARK   13  A    between atoms: O_23  and  C_24
REMARK   14  A    between atoms: C_24  and  C_25
REMARK   15  A    between atoms: C_25  and  C_26
REMARK   16  A    between atoms: C_26  and  C_27
REMARK   17  A    between atoms: C_27  and  N_28
REMARK                            x       y       z     vdW  Elec       q    Type
REMARK                         _______ _______ _______ _____ _____    ______ ____
ROOT
ATOM      1  C   UNL     1      40.586 -22.222 -36.608  0.00  0.00    -0.049 C 
ENDROOT
BRANCH   1   3
ATOM      2  C   UNL     1      41.922 -21.394 -38.610  0.00  0.00    -0.062 C 
ATOM      3  C   UNL     1      41.890 -21.549 -37.087  0.00  0.00    -0.034 C 
BRANCH   3   4
ATOM      4  C   UNL     1      42.039 -20.147 -36.449  0.00  0.00    +0.048 C 
BRANCH   4   5
ATOM      5  C   UNL     1      43.334 -19.941 -35.681  0.00  0.00    +0.307 C 
ATOM      6  O   UNL     1      43.441 -20.154 -34.478  0.00  0.00    -0.251 OA
BRANCH   5   7
ATOM      7  O   UNL     1      44.411 -19.528 -36.401  0.00  0.00    -0.465 OA
BRANCH   7   8
ATOM      8  C   UNL     1      45.560 -20.372 -36.593  0.00  0.00    +0.092 C 
BRANCH   8   9
ATOM      9  C   UNL     1      46.562 -19.637 -37.478  0.00  0.00    -0.017 C 
BRANCH   9  10
ATOM     10  C   UNL     1      46.084 -19.510 -38.925  0.00  0.00    -0.037 C 
BRANCH  10  11
ATOM     11  C   UNL     1      45.531 -20.822 -39.510  0.00  0.00    -0.001 C 
BRANCH  11  12
ATOM     12  N   UNL     1      46.491 -21.473 -40.404  0.00  0.00    -0.302 N 
ATOM     13  C   UNL     1      47.350 -20.538 -41.132  0.00  0.00    -0.001 C 
ATOM     14  C   UNL     1      48.484 -21.417 -41.640  0.00  0.00    -0.039 C 
ATOM     15  C   UNL     1      48.505 -22.621 -40.707  0.00  0.00    -0.039 C 
ATOM     16  C   UNL     1      47.424 -22.337 -39.674  0.00  0.00    -0.001 C 
ATOM     17  H   UNL     1      45.893 -21.993 -41.046  0.00  0.00    +0.000 HD
ENDBRANCH  11  12
ENDBRANCH  10  11
ENDBRANCH   9  10
ENDBRANCH   8   9
ENDBRANCH   7   8
ENDBRANCH   5   7
ENDBRANCH   4   5
ENDBRANCH   3   4
ENDBRANCH   1   3
BRANCH   1  18
ATOM     18  C   UNL     1      40.059 -21.858 -35.206  0.00  0.00    -0.046 C 
BRANCH  18  19
ATOM     19  C   UNL     1      38.526 -21.637 -34.964  0.00  0.00    -0.012 C 
ATOM     20  C   UNL     1      37.960 -22.507 -33.837  0.00  0.00    -0.045 C 
ATOM     21  C   UNL     1      37.174 -21.993 -32.880  0.00  0.00    -0.082 C 
ATOM     22  C   UNL     1      36.696 -20.592 -32.819  0.00  0.00    -0.031 C 
ATOM     23  C   UNL     1      36.792 -19.803 -34.149  0.00  0.00    -0.027 C 
ATOM     24  C   UNL     1      36.419 -18.281 -33.883  0.00  0.00    -0.031 C 
ATOM     25  C   UNL     1      36.056 -17.521 -35.182  0.00  0.00    -0.060 C 
ATOM     26  C   UNL     1      35.153 -18.157 -32.991  0.00  0.00    -0.060 C 
ATOM     27  C   UNL     1      37.581 -17.566 -33.153  0.00  0.00    -0.048 C 
ATOM     28  C   UNL     1      38.953 -17.810 -33.770  0.00  0.00    -0.052 C 
ATOM     29  C   UNL     1      39.269 -19.291 -33.997  0.00  0.00    -0.047 C 
ATOM     30  C   UNL     1      38.196 -20.053 -34.829  0.00  0.00    -0.022 C 
ATOM     31  C   UNL     1      38.207 -19.514 -36.287  0.00  0.00    -0.059 C 
BRANCH  20  32
ATOM     32  C   UNL     1      38.217 -23.997 -33.888  0.00  0.00    +0.066 C 
BRANCH  32  33
ATOM     33  O   UNL     1      39.017 -24.447 -32.799  0.00  0.00    -0.391 OA
ATOM     34  H   UNL     1      38.891 -25.401 -32.677  0.00  0.00    +0.000 HD
ENDBRANCH  32  33
ENDBRANCH  20  32
ENDBRANCH  18  19
ENDBRANCH   1  18
TORSDOF 13
ENDMDL
MODEL 20
REMARK VINA RESULT:    -5.504      2.753      4.508
REMARK INTER + INTRA:         -11.600
REMARK INTER:                  -8.640
REMARK INTRA:                  -2.960
REMARK UNBOUND:                -2.073
REMARK  Name = cpd197.pdb
REMARK  17 active torsions:
REMARK  status: ('A' for Active; 'I' for Inactive)
REMARK    1  A    between atoms: C_1  and  C_2
REMARK    2  A    between atoms: C_2  and  C_3
REMARK    3  A    between atoms: C_2  and  C_20
REMARK    4  A    between atoms: C_3  and  C_4
REMARK    5  A    between atoms: C_4  and  C_5
REMARK    6  A    between atoms: C_6  and  C_7
REMARK    7  A    between atoms: C_7  and  O_8
REMARK    8  A    between atoms: C_12  and  C_13
REMARK    9  A    between atoms: C_12  and  C_14
REMARK   10  A    between atoms: C_18  and  C_19
REMARK   11  A    between atoms: C_20  and  C_21
REMARK   12  A    between atoms: C_21  and  O_23
REMARK   13  A    between atoms: O_23  and  C_24
REMARK   14  A    between atoms: C_24  and  C_25
REMARK   15  A    between atoms: C_25  and  C_26
REMARK   16  A    between atoms: C_26  and  C_27
REMARK   17  A    between atoms: C_27  and  N_28
REMARK                            x       y       z     vdW  Elec       q    Type
REMARK                         _______ _______ _______ _____ _____    ______ ____
ROOT
ATOM      1  C   UNL     1      42.987 -20.057 -33.752  0.00  0.00    -0.049 C 
ENDROOT
BRANCH   1   3
ATOM      2  C   UNL     1      43.047 -17.564 -33.248  0.00  0.00    -0.062 C 
ATOM      3  C   UNL     1      43.678 -18.709 -34.046  0.00  0.00    -0.034 C 
BRANCH   3   4
ATOM      4  C   UNL     1      45.181 -18.784 -33.688  0.00  0.00    +0.048 C 
BRANCH   4   5
ATOM      5  C   UNL     1      46.077 -19.223 -34.834  0.00  0.00    +0.307 C 
ATOM      6  O   UNL     1      47.302 -19.251 -34.755  0.00  0.00    -0.251 OA
BRANCH   5   7
ATOM      7  O   UNL     1      45.456 -19.625 -35.975  0.00  0.00    -0.465 OA
BRANCH   7   8
ATOM      8  C   UNL     1      45.692 -18.970 -37.234  0.00  0.00    +0.092 C 
BRANCH   8   9
ATOM      9  C   UNL     1      44.544 -19.307 -38.181  0.00  0.00    -0.017 C 
BRANCH   9  10
ATOM     10  C   UNL     1      43.222 -19.529 -37.444  0.00  0.00    -0.037 C 
BRANCH  10  11
ATOM     11  C   UNL     1      42.645 -20.944 -37.626  0.00  0.00    -0.001 C 
BRANCH  11  12
ATOM     12  N   UNL     1      41.347 -21.097 -36.965  0.00  0.00    -0.302 N 
ATOM     13  C   UNL     1      40.206 -20.747 -37.813  0.00  0.00    -0.001 C 
ATOM     14  C   UNL     1      39.019 -21.363 -37.086  0.00  0.00    -0.039 C 
ATOM     15  C   UNL     1      39.609 -22.478 -36.231  0.00  0.00    -0.039 C 
ATOM     16  C   UNL     1      41.093 -22.484 -36.563  0.00  0.00    -0.001 C 
ATOM     17  H   UNL     1      41.416 -20.463 -36.169  0.00  0.00    +0.000 HD
ENDBRANCH  11  12
ENDBRANCH  10  11
ENDBRANCH   9  10
ENDBRANCH   8   9
ENDBRANCH   7   8
ENDBRANCH   5   7
ENDBRANCH   4   5
ENDBRANCH   3   4
ENDBRANCH   1   3
BRANCH   1  18
ATOM     18  C   UNL     1      41.731 -20.046 -32.861  0.00  0.00    -0.046 C 
BRANCH  18  19
ATOM     19  C   UNL     1      40.332 -20.444 -33.448  0.00  0.00    -0.012 C 
ATOM     20  C   UNL     1      39.712 -21.664 -32.760  0.00  0.00    -0.045 C 
ATOM     21  C   UNL     1      38.434 -21.669 -32.354  0.00  0.00    -0.082 C 
ATOM     22  C   UNL     1      37.459 -20.575 -32.572  0.00  0.00    -0.031 C 
ATOM     23  C   UNL     1      37.843 -19.557 -33.676  0.00  0.00    -0.027 C 
ATOM     24  C   UNL     1      36.802 -18.356 -33.666  0.00  0.00    -0.031 C 
ATOM     25  C   UNL     1      36.826 -17.536 -34.978  0.00  0.00    -0.060 C 
ATOM     26  C   UNL     1      35.342 -18.876 -33.557  0.00  0.00    -0.060 C 
ATOM     27  C   UNL     1      37.063 -17.431 -32.454  0.00  0.00    -0.048 C 
ATOM     28  C   UNL     1      38.524 -17.038 -32.269  0.00  0.00    -0.052 C 
ATOM     29  C   UNL     1      39.486 -18.229 -32.276  0.00  0.00    -0.047 C 
ATOM     30  C   UNL     1      39.362 -19.145 -33.529  0.00  0.00    -0.022 C 
ATOM     31  C   UNL     1      39.843 -18.360 -34.781  0.00  0.00    -0.059 C 
BRANCH  20  32
ATOM     32  C   UNL     1      40.548 -22.920 -32.646  0.00  0.00    +0.066 C 
BRANCH  32  33
ATOM     33  O   UNL     1      39.750 -24.088 -32.475  0.00  0.00    -0.391 OA
ATOM     34  H   UNL     1      39.491 -24.432 -33.344  0.00  0.00    +0.000 HD
ENDBRANCH  32  33
ENDBRANCH  20  32
ENDBRANCH  18  19
ENDBRANCH   1  18
TORSDOF 13
ENDMDL
