REMARK  Name = cpd197.pdb
REMARK  17 active torsions:
REMARK  status: ('A' for Active; 'I' for Inactive)
REMARK    1  A    between atoms: C_1  and  C_2
REMARK    2  A    between atoms: C_2  and  C_3
REMARK    3  A    between atoms: C_2  and  C_20
REMARK    4  A    between atoms: C_3  and  C_4
REMARK    5  A    between atoms: C_4  and  C_5
REMARK    6  A    between atoms: C_6  and  C_7
REMARK    7  A    between atoms: C_7  and  O_8
REMARK    8  A    between atoms: C_12  and  C_13
REMARK    9  A    between atoms: C_12  and  C_14
REMARK   10  A    between atoms: C_18  and  C_19
REMARK   11  A    between atoms: C_20  and  C_21
REMARK   12  A    between atoms: C_21  and  O_23
REMARK   13  A    between atoms: O_23  and  C_24
REMARK   14  A    between atoms: C_24  and  C_25
REMARK   15  A    between atoms: C_25  and  C_26
REMARK   16  A    between atoms: C_26  and  C_27
REMARK   17  A    between atoms: C_27  and  N_28
REMARK                            x       y       z     vdW  Elec       q    Type
REMARK                         _______ _______ _______ _____ _____    ______ ____
ROOT
ATOM      1  C   UNL     1      -4.225  -1.625   0.679  0.00  0.00    -0.049 C 
ENDROOT
BRANCH   1   3
ATOM      2  C   UNL     1      -3.895  -0.431  -1.544  0.00  0.00    -0.062 C 
ATOM      3  C   UNL     1      -3.706  -1.739  -0.770  0.00  0.00    -0.034 C 
BRANCH   3   4
ATOM      4  C   UNL     1      -2.201  -2.098  -0.777  0.00  0.00    +0.048 C 
BRANCH   4   5
ATOM      5  C   UNL     1      -1.891  -3.511  -0.313  0.00  0.00    +0.307 C 
ATOM      6  O   UNL     1      -2.755  -4.365  -0.140  0.00  0.00    -0.251 OA
BRANCH   5   7
ATOM      7  O   UNL     1      -0.580  -3.815  -0.118  0.00  0.00    -0.465 OA
BRANCH   7   8
ATOM      8  C   UNL     1       0.460  -2.842  -0.324  0.00  0.00    +0.092 C 
BRANCH   8   9
ATOM      9  C   UNL     1       1.811  -3.531  -0.159  0.00  0.00    -0.017 C 
BRANCH   9  10
ATOM     10  C   UNL     1       2.986  -2.597  -0.452  0.00  0.00    -0.037 C 
BRANCH  10  11
ATOM     11  C   UNL     1       3.181  -1.499   0.608  0.00  0.00    -0.001 C 
BRANCH  11  12
ATOM     12  N   UNL     1       3.242  -0.163   0.011  0.00  0.00    -0.302 N 
ATOM     13  C   UNL     1       1.940   0.357  -0.410  0.00  0.00    -0.001 C 
ATOM     14  C   UNL     1       2.193   1.846  -0.595  0.00  0.00    -0.039 C 
ATOM     15  C   UNL     1       3.410   2.154   0.269  0.00  0.00    -0.039 C 
ATOM     16  C   UNL     1       3.750   0.839   0.953  0.00  0.00    -0.001 C 
ATOM     17  H   UNL     1       3.857  -0.296  -0.792  0.00  0.00    +0.000 HD
ENDBRANCH  11  12
ENDBRANCH  10  11
ENDBRANCH   9  10
ENDBRANCH   8   9
ENDBRANCH   7   8
ENDBRANCH   5   7
ENDBRANCH   4   5
ENDBRANCH   3   4
ENDBRANCH   1   3
BRANCH   1  18
ATOM     18  C   UNL     1      -5.698  -1.224   0.889  0.00  0.00    -0.046 C 
BRANCH  18  19
ATOM     19  C   UNL     1      -6.844  -1.964   0.116  0.00  0.00    -0.012 C 
ATOM     20  C   UNL     1      -7.087  -3.391   0.616  0.00  0.00    -0.045 C 
ATOM     21  C   UNL     1      -8.322  -3.845   0.875  0.00  0.00    -0.082 C 
ATOM     22  C   UNL     1      -9.579  -3.093   0.651  0.00  0.00    -0.031 C 
ATOM     23  C   UNL     1      -9.461  -1.879  -0.305  0.00  0.00    -0.027 C 
ATOM     24  C   UNL     1     -10.832  -1.075  -0.301  0.00  0.00    -0.031 C 
ATOM     25  C   UNL     1     -10.974  -0.134  -1.522  0.00  0.00    -0.060 C 
ATOM     26  C   UNL     1     -12.050  -2.034  -0.403  0.00  0.00    -0.060 C 
ATOM     27  C   UNL     1     -10.976  -0.270   1.012  0.00  0.00    -0.048 C 
ATOM     28  C   UNL     1      -9.739   0.535   1.393  0.00  0.00    -0.052 C 
ATOM     29  C   UNL     1      -8.446  -0.286   1.384  0.00  0.00    -0.047 C 
ATOM     30  C   UNL     1      -8.173  -1.034   0.047  0.00  0.00    -0.022 C 
ATOM     31  C   UNL     1      -7.877   0.009  -1.067  0.00  0.00    -0.059 C 
BRANCH  20  32
ATOM     32  C   UNL     1      -5.902  -4.327   0.707  0.00  0.00    +0.066 C 
BRANCH  32  33
ATOM     33  O   UNL     1      -6.295  -5.695   0.776  0.00  0.00    -0.391 OA
ATOM     34  H   UNL     1      -6.829  -5.838   1.573  0.00  0.00    +0.000 HD
ENDBRANCH  32  33
ENDBRANCH  20  32
ENDBRANCH  18  19
ENDBRANCH   1  18
TORSDOF 13
