REMARK  Name = cpd65.pdb
REMARK  4 active torsions:
REMARK  status: ('A' for Active; 'I' for Inactive)
REMARK    1  A    between atoms: C_2  and  C_4
REMARK    2  A    between atoms: C_5  and  C_6
REMARK    3  A    between atoms: N_8  and  C_9
REMARK    4  A    between atoms: C_13  and  C_14
REMARK                            x       y       z     vdW  Elec       q    Type
REMARK                         _______ _______ _______ _____ _____    ______ ____
ROOT
ATOM      1  C   UNL A   1      -0.555  -2.295   0.000  0.00  0.00    +0.241 C 
ATOM      2  O   UNL A   1      -1.675  -1.820   0.000  0.00  0.00    -0.270 OA
ATOM      3  N   UNL A   1       0.640  -1.583   0.000  0.00  0.00    -0.282 N 
ATOM      4  H   UNL A   1       1.455  -2.135   0.000  0.00  0.00    +0.000 HD
ENDROOT
BRANCH   3   5
ATOM      5  C   UNL A   1       0.861  -0.187   0.000  0.00  0.00    +0.034 A 
ATOM      6  C   UNL A   1       2.211   0.206   0.000  0.00  0.00    -0.040 A 
ATOM      7  C   UNL A   1       2.572   1.550   0.000  0.00  0.00    -0.059 A 
ATOM      8  C   UNL A   1       1.580   2.523   0.000  0.00  0.00    -0.048 A 
ATOM      9  C   UNL A   1       0.217   2.172   0.000  0.00  0.00    +0.065 A 
ATOM     10  C   UNL A   1      -0.131   0.799   0.000  0.00  0.00    -0.026 A 
BRANCH   9  11
ATOM     11  C   UNL A   1      -0.829   3.276   0.000  0.00  0.00    +0.387 C 
ATOM     12  O   UNL A   1      -2.053   2.943   0.000  0.00  0.00    -0.241 OA
ATOM     13  O   UNL A   1      -0.396   4.476   0.000  0.00  0.00    -0.241 OA
ENDBRANCH   9  11
ENDBRANCH   3   5
BRANCH   1  15
ATOM     14  C   UNL A   1      -1.008  -4.876   0.000  0.00  0.00    +0.032 C 
ATOM     15  C   UNL A   1      -0.249  -3.772   0.000  0.00  0.00    +0.007 C 
BRANCH  14  17
ATOM     16  O   UNL A   1      -3.321  -4.259   0.000  0.00  0.00    -0.241 OA
ATOM     17  C   UNL A   1      -2.500  -5.200   0.000  0.00  0.00    +0.380 C 
ATOM     18  O   UNL A   1      -2.717  -6.453   0.000  0.00  0.00    -0.241 OA
ENDBRANCH  14  17
ENDBRANCH   1  15
TORSDOF 4
