@<TRIPOS>MOLECULE
*****
 17 17 0 0 0
SMALL
GASTEIGER

@<TRIPOS>ATOM
      1 O          -1.7321   -2.0000    0.0000 O.co2   1  UNL1       -0.2405
      2 C          -1.7321   -3.0000    0.0000 C.2     1  UNL1        0.3881
      3 O          -2.5981   -3.5000    0.0000 O.co2   1  UNL1       -0.2405
      4 C          -0.8660   -3.5000    0.0000 C.2     1  UNL1        0.0909
      5 C           0.0000   -3.0000    0.0000 C.2     1  UNL1        0.0666
      6 C           0.0000   -2.0000    0.0000 C.2     1  UNL1        0.2693
      7 O          -0.8660   -1.5000    0.0000 O.2     1  UNL1       -0.2680
      8 N           0.8660   -1.5000    0.0000 N.am    1  UNL1       -0.1754
      9 C           0.8660   -0.5000    0.0000 C.ar    1  UNL1        0.0739
     10 C           1.7321   -0.0000    0.0000 C.ar    1  UNL1        0.0166
     11 C           1.7321    1.0000    0.0000 C.ar    1  UNL1        0.0015
     12 C           0.8660    1.5000    0.0000 C.ar    1  UNL1        0.0067
     13 C          -0.0000    1.0000    0.0000 C.ar    1  UNL1        0.0811
     14 C          -0.8660    1.5000    0.0000 C.2     1  UNL1        0.3878
     15 O          -1.7321    1.0000    0.0000 O.co2   1  UNL1       -0.2406
     16 O          -0.8660    2.5000    0.0000 O.co2   1  UNL1       -0.2406
     17 C           0.0000   -0.0000    0.0000 C.ar    1  UNL1        0.0232
@<TRIPOS>BOND
     1     1     2   ar
     2     2     3   ar
     3     2     4    1
     4     4     5    2
     5     5     6    1
     6     6     7    2
     7     6     8   am
     8     8     9    1
     9     9    10   ar
    10    10    11   ar
    11    11    12   ar
    12    12    13   ar
    13    13    14    1
    14    14    15   ar
    15    14    16   ar
    16    13    17   ar
    17     9    17   ar
