MODEL 1
REMARK VINA RESULT:    -6.856      0.000      0.000
REMARK INTER + INTRA:          -8.884
REMARK INTER:                  -8.460
REMARK INTRA:                  -0.424
REMARK UNBOUND:                -0.424
REMARK  Name = cpd65.pdb
REMARK  4 active torsions:
REMARK  status: ('A' for Active; 'I' for Inactive)
REMARK    1  A    between atoms: C_2  and  C_4
REMARK    2  A    between atoms: C_5  and  C_6
REMARK    3  A    between atoms: N_8  and  C_9
REMARK    4  A    between atoms: C_13  and  C_14
REMARK                            x       y       z     vdW  Elec       q    Type
REMARK                         _______ _______ _______ _____ _____    ______ ____
ROOT
ATOM      1  C   UNL A   1      37.015 -37.290 -30.083  0.00  0.00    +0.241 C 
ATOM      2  O   UNL A   1      36.841 -38.282 -30.766  0.00  0.00    -0.270 OA
ATOM      3  N   UNL A   1      38.145 -36.478 -30.085  0.00  0.00    -0.282 N 
ATOM      4  H   UNL A   1      38.112 -35.715 -29.464  0.00  0.00    +0.000 HD
ENDROOT
BRANCH   3   5
ATOM      5  C   UNL A   1      39.332 -36.583 -30.845  0.00  0.00    +0.034 A 
ATOM      6  C   UNL A   1      39.297 -35.953 -32.101  0.00  0.00    -0.040 A 
ATOM      7  C   UNL A   1      40.398 -35.978 -32.953  0.00  0.00    -0.059 A 
ATOM      8  C   UNL A   1      41.554 -36.638 -32.554  0.00  0.00    -0.048 A 
ATOM      9  C   UNL A   1      41.630 -37.281 -31.304  0.00  0.00    +0.065 A 
ATOM     10  C   UNL A   1      40.500 -37.245 -30.451  0.00  0.00    -0.026 A 
BRANCH   9  11
ATOM     11  C   UNL A   1      42.919 -37.989 -30.916  0.00  0.00    +0.387 C 
ATOM     12  O   UNL A   1      42.869 -39.231 -30.664  0.00  0.00    -0.241 OA
ATOM     13  O   UNL A   1      43.975 -37.274 -30.871  0.00  0.00    -0.241 OA
ENDBRANCH   9  11
ENDBRANCH   3   5
BRANCH   1  15
ATOM     14  C   UNL A   1      35.246 -35.655 -29.052  0.00  0.00    +0.032 C 
ATOM     15  C   UNL A   1      36.020 -36.748 -29.087  0.00  0.00    +0.007 C 
BRANCH  14  17
ATOM     16  O   UNL A   1      35.319 -34.510 -31.153  0.00  0.00    -0.241 OA
ATOM     17  C   UNL A   1      34.980 -34.451 -29.952  0.00  0.00    +0.380 C 
ATOM     18  O   UNL A   1      34.418 -33.499 -29.324  0.00  0.00    -0.241 OA
ENDBRANCH  14  17
ENDBRANCH   1  15
TORSDOF 4
ENDMDL
MODEL 2
REMARK VINA RESULT:    -6.789      2.058      6.408
REMARK INTER + INTRA:          -8.801
REMARK INTER:                  -8.431
REMARK INTRA:                  -0.370
REMARK UNBOUND:                -0.424
REMARK  Name = cpd65.pdb
REMARK  4 active torsions:
REMARK  status: ('A' for Active; 'I' for Inactive)
REMARK    1  A    between atoms: C_2  and  C_4
REMARK    2  A    between atoms: C_5  and  C_6
REMARK    3  A    between atoms: N_8  and  C_9
REMARK    4  A    between atoms: C_13  and  C_14
REMARK                            x       y       z     vdW  Elec       q    Type
REMARK                         _______ _______ _______ _____ _____    ______ ____
ROOT
ATOM      1  C   UNL A   1      40.024 -35.389 -31.870  0.00  0.00    +0.241 C 
ATOM      2  O   UNL A   1      39.897 -34.191 -31.707  0.00  0.00    -0.270 OA
ATOM      3  N   UNL A   1      39.171 -36.379 -31.394  0.00  0.00    -0.282 N 
ATOM      4  H   UNL A   1      39.431 -37.300 -31.622  0.00  0.00    +0.000 HD
ENDROOT
BRANCH   3   5
ATOM      5  C   UNL A   1      37.987 -36.262 -30.631  0.00  0.00    +0.034 A 
ATOM      6  C   UNL A   1      37.113 -35.238 -31.035  0.00  0.00    -0.040 A 
ATOM      7  C   UNL A   1      35.910 -35.010 -30.372  0.00  0.00    -0.059 A 
ATOM      8  C   UNL A   1      35.566 -35.811 -29.290  0.00  0.00    -0.048 A 
ATOM      9  C   UNL A   1      36.413 -36.846 -28.853  0.00  0.00    +0.065 A 
ATOM     10  C   UNL A   1      37.633 -37.062 -29.540  0.00  0.00    -0.026 A 
BRANCH   9  11
ATOM     11  C   UNL A   1      35.990 -37.693 -27.662  0.00  0.00    +0.387 C 
ATOM     12  O   UNL A   1      36.444 -38.874 -27.574  0.00  0.00    -0.241 OA
ATOM     13  O   UNL A   1      35.197 -37.148 -26.825  0.00  0.00    -0.241 OA
ENDBRANCH   9  11
ENDBRANCH   3   5
BRANCH   1  15
ATOM     14  C   UNL A   1      42.115 -36.909 -32.304  0.00  0.00    +0.032 C 
ATOM     15  C   UNL A   1      41.153 -36.037 -32.634  0.00  0.00    +0.007 C 
BRANCH  14  17
ATOM     16  O   UNL A   1      43.762 -37.673 -30.743  0.00  0.00    -0.241 OA
ATOM     17  C   UNL A   1      42.551 -37.662 -31.049  0.00  0.00    +0.380 C 
ATOM     18  O   UNL A   1      41.569 -38.206 -30.453  0.00  0.00    -0.241 OA
ENDBRANCH  14  17
ENDBRANCH   1  15
TORSDOF 4
ENDMDL
MODEL 3
REMARK VINA RESULT:    -6.742      1.585      2.498
REMARK INTER + INTRA:          -8.743
REMARK INTER:                  -8.731
REMARK INTRA:                  -0.012
REMARK UNBOUND:                -0.424
REMARK  Name = cpd65.pdb
REMARK  4 active torsions:
REMARK  status: ('A' for Active; 'I' for Inactive)
REMARK    1  A    between atoms: C_2  and  C_4
REMARK    2  A    between atoms: C_5  and  C_6
REMARK    3  A    between atoms: N_8  and  C_9
REMARK    4  A    between atoms: C_13  and  C_14
REMARK                            x       y       z     vdW  Elec       q    Type
REMARK                         _______ _______ _______ _____ _____    ______ ____
ROOT
ATOM      1  C   UNL A   1      37.438 -35.702 -30.571  0.00  0.00    +0.241 C 
ATOM      2  O   UNL A   1      37.580 -34.743 -31.306  0.00  0.00    -0.270 OA
ATOM      3  N   UNL A   1      38.359 -36.724 -30.365  0.00  0.00    -0.282 N 
ATOM      4  H   UNL A   1      38.074 -37.422 -29.732  0.00  0.00    +0.000 HD
ENDROOT
BRANCH   3   5
ATOM      5  C   UNL A   1      39.643 -36.911 -30.926  0.00  0.00    +0.034 A 
ATOM      6  C   UNL A   1      39.830 -36.340 -32.197  0.00  0.00    -0.040 A 
ATOM      7  C   UNL A   1      41.046 -36.448 -32.865  0.00  0.00    -0.059 A 
ATOM      8  C   UNL A   1      42.096 -37.134 -32.266  0.00  0.00    -0.048 A 
ATOM      9  C   UNL A   1      41.949 -37.720 -30.995  0.00  0.00    +0.065 A 
ATOM     10  C   UNL A   1      40.705 -37.599 -30.330  0.00  0.00    -0.026 A 
BRANCH   9  11
ATOM     11  C   UNL A   1      43.130 -38.459 -30.383  0.00  0.00    +0.387 C 
ATOM     12  O   UNL A   1      42.924 -39.603 -29.876  0.00  0.00    -0.241 OA
ATOM     13  O   UNL A   1      44.259 -37.868 -30.423  0.00  0.00    -0.241 OA
ENDBRANCH   9  11
ENDBRANCH   3   5
BRANCH   1  15
ATOM     14  C   UNL A   1      35.930 -36.835 -28.752  0.00  0.00    +0.032 C 
ATOM     15  C   UNL A   1      36.213 -35.966 -29.732  0.00  0.00    +0.007 C 
BRANCH  14  17
ATOM     16  O   UNL A   1      36.083 -39.048 -27.853  0.00  0.00    -0.241 OA
ATOM     17  C   UNL A   1      36.660 -37.952 -28.011  0.00  0.00    +0.380 C 
ATOM     18  O   UNL A   1      37.821 -37.597 -27.634  0.00  0.00    -0.241 OA
ENDBRANCH  14  17
ENDBRANCH   1  15
TORSDOF 4
ENDMDL
MODEL 4
REMARK VINA RESULT:    -6.598      1.842      2.993
REMARK INTER + INTRA:          -8.565
REMARK INTER:                  -7.916
REMARK INTRA:                  -0.648
REMARK UNBOUND:                -0.424
REMARK  Name = cpd65.pdb
REMARK  4 active torsions:
REMARK  status: ('A' for Active; 'I' for Inactive)
REMARK    1  A    between atoms: C_2  and  C_4
REMARK    2  A    between atoms: C_5  and  C_6
REMARK    3  A    between atoms: N_8  and  C_9
REMARK    4  A    between atoms: C_13  and  C_14
REMARK                            x       y       z     vdW  Elec       q    Type
REMARK                         _______ _______ _______ _____ _____    ______ ____
ROOT
ATOM      1  C   UNL A   1      35.177 -36.247 -30.199  0.00  0.00    +0.241 C 
ATOM      2  O   UNL A   1      34.941 -37.272 -30.811  0.00  0.00    -0.270 OA
ATOM      3  N   UNL A   1      36.355 -35.946 -29.523  0.00  0.00    -0.282 N 
ATOM      4  H   UNL A   1      36.370 -35.067 -29.081  0.00  0.00    +0.000 HD
ENDROOT
BRANCH   3   5
ATOM      5  C   UNL A   1      37.534 -36.712 -29.375  0.00  0.00    +0.034 A 
ATOM      6  C   UNL A   1      37.535 -37.605 -28.289  0.00  0.00    -0.040 A 
ATOM      7  C   UNL A   1      38.632 -38.421 -28.026  0.00  0.00    -0.059 A 
ATOM      8  C   UNL A   1      39.747 -38.352 -28.851  0.00  0.00    -0.048 A 
ATOM      9  C   UNL A   1      39.786 -37.472 -29.949  0.00  0.00    +0.065 A 
ATOM     10  C   UNL A   1      38.660 -36.650 -30.201  0.00  0.00    -0.026 A 
BRANCH   9  11
ATOM     11  C   UNL A   1      41.031 -37.435 -30.822  0.00  0.00    +0.387 C 
ATOM     12  O   UNL A   1      41.032 -36.672 -31.835  0.00  0.00    -0.241 OA
ATOM     13  O   UNL A   1      42.001 -38.185 -30.468  0.00  0.00    -0.241 OA
ENDBRANCH   9  11
ENDBRANCH   3   5
BRANCH   1  15
ATOM     14  C   UNL A   1      34.247 -33.810 -30.444  0.00  0.00    +0.032 C 
ATOM     15  C   UNL A   1      34.218 -35.092 -30.056  0.00  0.00    +0.007 C 
BRANCH  14  17
ATOM     16  O   UNL A   1      34.750 -32.016 -31.948  0.00  0.00    -0.241 OA
ATOM     17  C   UNL A   1      35.215 -32.895 -31.192  0.00  0.00    +0.380 C 
ATOM     18  O   UNL A   1      36.429 -33.168 -30.930  0.00  0.00    -0.241 OA
ENDBRANCH  14  17
ENDBRANCH   1  15
TORSDOF 4
ENDMDL
MODEL 5
REMARK VINA RESULT:    -6.576      1.761      6.925
REMARK INTER + INTRA:          -8.538
REMARK INTER:                  -8.118
REMARK INTRA:                  -0.420
REMARK UNBOUND:                -0.424
REMARK  Name = cpd65.pdb
REMARK  4 active torsions:
REMARK  status: ('A' for Active; 'I' for Inactive)
REMARK    1  A    between atoms: C_2  and  C_4
REMARK    2  A    between atoms: C_5  and  C_6
REMARK    3  A    between atoms: N_8  and  C_9
REMARK    4  A    between atoms: C_13  and  C_14
REMARK                            x       y       z     vdW  Elec       q    Type
REMARK                         _______ _______ _______ _____ _____    ______ ____
ROOT
ATOM      1  C   UNL A   1      39.505 -35.239 -31.853  0.00  0.00    +0.241 C 
ATOM      2  O   UNL A   1      39.228 -34.055 -31.831  0.00  0.00    -0.270 OA
ATOM      3  N   UNL A   1      38.804 -36.259 -31.217  0.00  0.00    -0.282 N 
ATOM      4  H   UNL A   1      39.174 -37.162 -31.344  0.00  0.00    +0.000 HD
ENDROOT
BRANCH   3   5
ATOM      5  C   UNL A   1      37.640 -36.194 -30.417  0.00  0.00    +0.034 A 
ATOM      6  C   UNL A   1      37.634 -37.046 -29.299  0.00  0.00    -0.040 A 
ATOM      7  C   UNL A   1      36.551 -37.084 -28.425  0.00  0.00    -0.059 A 
ATOM      8  C   UNL A   1      35.455 -36.265 -28.663  0.00  0.00    -0.048 A 
ATOM      9  C   UNL A   1      35.421 -35.398 -29.771  0.00  0.00    +0.065 A 
ATOM     10  C   UNL A   1      36.532 -35.373 -30.648  0.00  0.00    -0.026 A 
BRANCH   9  11
ATOM     11  C   UNL A   1      34.196 -34.522 -29.985  0.00  0.00    +0.387 C 
ATOM     12  O   UNL A   1      33.361 -34.416 -29.036  0.00  0.00    -0.241 OA
ATOM     13  O   UNL A   1      34.094 -33.946 -31.119  0.00  0.00    -0.241 OA
ENDBRANCH   9  11
ENDBRANCH   3   5
BRANCH   1  15
ATOM     14  C   UNL A   1      41.842 -36.375 -32.192  0.00  0.00    +0.032 C 
ATOM     15  C   UNL A   1      40.682 -35.833 -32.586  0.00  0.00    +0.007 C 
BRANCH  14  17
ATOM     16  O   UNL A   1      43.786 -36.556 -30.807  0.00  0.00    -0.241 OA
ATOM     17  C   UNL A   1      42.543 -36.660 -30.866  0.00  0.00    +0.380 C 
ATOM     18  O   UNL A   1      41.721 -36.984 -29.951  0.00  0.00    -0.241 OA
ENDBRANCH  14  17
ENDBRANCH   1  15
TORSDOF 4
ENDMDL
MODEL 6
REMARK VINA RESULT:    -6.412      2.215      3.122
REMARK INTER + INTRA:          -8.336
REMARK INTER:                  -7.951
REMARK INTRA:                  -0.386
REMARK UNBOUND:                -0.424
REMARK  Name = cpd65.pdb
REMARK  4 active torsions:
REMARK  status: ('A' for Active; 'I' for Inactive)
REMARK    1  A    between atoms: C_2  and  C_4
REMARK    2  A    between atoms: C_5  and  C_6
REMARK    3  A    between atoms: N_8  and  C_9
REMARK    4  A    between atoms: C_13  and  C_14
REMARK                            x       y       z     vdW  Elec       q    Type
REMARK                         _______ _______ _______ _____ _____    ______ ____
ROOT
ATOM      1  C   UNL A   1      35.433 -35.176 -31.076  0.00  0.00    +0.241 C 
ATOM      2  O   UNL A   1      35.485 -34.797 -29.922  0.00  0.00    -0.270 OA
ATOM      3  N   UNL A   1      36.463 -35.776 -31.792  0.00  0.00    -0.282 N 
ATOM      4  H   UNL A   1      36.241 -36.019 -32.720  0.00  0.00    +0.000 HD
ENDROOT
BRANCH   3   5
ATOM      5  C   UNL A   1      37.781 -36.090 -31.389  0.00  0.00    +0.034 A 
ATOM      6  C   UNL A   1      38.799 -35.430 -32.100  0.00  0.00    -0.040 A 
ATOM      7  C   UNL A   1      40.142 -35.646 -31.806  0.00  0.00    -0.059 A 
ATOM      8  C   UNL A   1      40.485 -36.531 -30.792  0.00  0.00    -0.048 A 
ATOM      9  C   UNL A   1      39.497 -37.213 -30.056  0.00  0.00    +0.065 A 
ATOM     10  C   UNL A   1      38.135 -36.980 -30.369  0.00  0.00    -0.026 A 
BRANCH   9  11
ATOM     11  C   UNL A   1      39.926 -38.171 -28.956  0.00  0.00    +0.387 C 
ATOM     12  O   UNL A   1      41.150 -38.192 -28.622  0.00  0.00    -0.241 OA
ATOM     13  O   UNL A   1      39.013 -38.896 -28.438  0.00  0.00    -0.241 OA
ENDBRANCH   9  11
ENDBRANCH   3   5
BRANCH   1  15
ATOM     14  C   UNL A   1      33.363 -34.070 -32.243  0.00  0.00    +0.032 C 
ATOM     15  C   UNL A   1      34.217 -35.063 -31.963  0.00  0.00    +0.007 C 
BRANCH  14  17
ATOM     16  O   UNL A   1      34.171 -31.849 -31.864  0.00  0.00    -0.241 OA
ATOM     17  C   UNL A   1      33.182 -32.610 -31.833  0.00  0.00    +0.380 C 
ATOM     18  O   UNL A   1      31.982 -32.354 -31.498  0.00  0.00    -0.241 OA
ENDBRANCH  14  17
ENDBRANCH   1  15
TORSDOF 4
ENDMDL
MODEL 7
REMARK VINA RESULT:    -6.385      2.543      3.789
REMARK INTER + INTRA:          -8.303
REMARK INTER:                  -7.790
REMARK INTRA:                  -0.513
REMARK UNBOUND:                -0.424
REMARK  Name = cpd65.pdb
REMARK  4 active torsions:
REMARK  status: ('A' for Active; 'I' for Inactive)
REMARK    1  A    between atoms: C_2  and  C_4
REMARK    2  A    between atoms: C_5  and  C_6
REMARK    3  A    between atoms: N_8  and  C_9
REMARK    4  A    between atoms: C_13  and  C_14
REMARK                            x       y       z     vdW  Elec       q    Type
REMARK                         _______ _______ _______ _____ _____    ______ ____
ROOT
ATOM      1  C   UNL A   1      34.189 -35.352 -31.985  0.00  0.00    +0.241 C 
ATOM      2  O   UNL A   1      34.240 -36.312 -32.731  0.00  0.00    -0.270 OA
ATOM      3  N   UNL A   1      35.157 -34.979 -31.059  0.00  0.00    -0.282 N 
ATOM      4  H   UNL A   1      34.947 -34.170 -30.538  0.00  0.00    +0.000 HD
ENDROOT
BRANCH   3   5
ATOM      5  C   UNL A   1      36.398 -35.584 -30.753  0.00  0.00    +0.034 A 
ATOM      6  C   UNL A   1      36.374 -36.489 -29.677  0.00  0.00    -0.040 A 
ATOM      7  C   UNL A   1      37.525 -37.156 -29.269  0.00  0.00    -0.059 A 
ATOM      8  C   UNL A   1      38.721 -36.924 -29.937  0.00  0.00    -0.048 A 
ATOM      9  C   UNL A   1      38.788 -36.026 -31.019  0.00  0.00    +0.065 A 
ATOM     10  C   UNL A   1      37.606 -35.356 -31.420  0.00  0.00    -0.026 A 
BRANCH   9  11
ATOM     11  C   UNL A   1      40.122 -35.808 -31.715  0.00  0.00    +0.387 C 
ATOM     12  O   UNL A   1      40.121 -35.245 -32.852  0.00  0.00    -0.241 OA
ATOM     13  O   UNL A   1      41.163 -36.212 -31.098  0.00  0.00    -0.241 OA
ENDBRANCH   9  11
ENDBRANCH   3   5
BRANCH   1  15
ATOM     14  C   UNL A   1      32.962 -33.056 -31.684  0.00  0.00    +0.032 C 
ATOM     15  C   UNL A   1      33.044 -34.372 -31.924  0.00  0.00    +0.007 C 
BRANCH  14  17
ATOM     16  O   UNL A   1      35.012 -31.857 -31.988  0.00  0.00    -0.241 OA
ATOM     17  C   UNL A   1      33.932 -31.922 -31.364  0.00  0.00    +0.380 C 
ATOM     18  O   UNL A   1      33.485 -31.154 -30.454  0.00  0.00    -0.241 OA
ENDBRANCH  14  17
ENDBRANCH   1  15
TORSDOF 4
ENDMDL
MODEL 8
REMARK VINA RESULT:    -6.129      2.766      3.865
REMARK INTER + INTRA:          -7.986
REMARK INTER:                  -7.467
REMARK INTRA:                  -0.520
REMARK UNBOUND:                -0.424
REMARK  Name = cpd65.pdb
REMARK  4 active torsions:
REMARK  status: ('A' for Active; 'I' for Inactive)
REMARK    1  A    between atoms: C_2  and  C_4
REMARK    2  A    between atoms: C_5  and  C_6
REMARK    3  A    between atoms: N_8  and  C_9
REMARK    4  A    between atoms: C_13  and  C_14
REMARK                            x       y       z     vdW  Elec       q    Type
REMARK                         _______ _______ _______ _____ _____    ______ ____
ROOT
ATOM      1  C   UNL A   1      34.059 -35.493 -31.625  0.00  0.00    +0.241 C 
ATOM      2  O   UNL A   1      34.005 -36.522 -32.273  0.00  0.00    -0.270 OA
ATOM      3  N   UNL A   1      35.146 -35.048 -30.879  0.00  0.00    -0.282 N 
ATOM      4  H   UNL A   1      35.011 -34.189 -30.417  0.00  0.00    +0.000 HD
ENDROOT
BRANCH   3   5
ATOM      5  C   UNL A   1      36.413 -35.642 -30.684  0.00  0.00    +0.034 A 
ATOM      6  C   UNL A   1      37.400 -35.267 -31.613  0.00  0.00    -0.040 A 
ATOM      7  C   UNL A   1      38.693 -35.777 -31.539  0.00  0.00    -0.059 A 
ATOM      8  C   UNL A   1      39.016 -36.673 -30.527  0.00  0.00    -0.048 A 
ATOM      9  C   UNL A   1      38.058 -37.074 -29.578  0.00  0.00    +0.065 A 
ATOM     10  C   UNL A   1      36.747 -36.545 -29.670  0.00  0.00    -0.026 A 
BRANCH   9  11
ATOM     11  C   UNL A   1      38.463 -38.058 -28.491  0.00  0.00    +0.387 C 
ATOM     12  O   UNL A   1      39.647 -38.514 -28.506  0.00  0.00    -0.241 OA
ATOM     13  O   UNL A   1      37.572 -38.360 -27.629  0.00  0.00    -0.241 OA
ENDBRANCH   9  11
ENDBRANCH   3   5
BRANCH   1  15
ATOM     14  C   UNL A   1      32.895 -33.161 -31.358  0.00  0.00    +0.032 C 
ATOM     15  C   UNL A   1      32.938 -34.492 -31.509  0.00  0.00    +0.007 C 
BRANCH  14  17
ATOM     16  O   UNL A   1      34.930 -32.046 -31.943  0.00  0.00    -0.241 OA
ATOM     17  C   UNL A   1      33.905 -32.023 -31.231  0.00  0.00    +0.380 C 
ATOM     18  O   UNL A   1      33.545 -31.159 -30.370  0.00  0.00    -0.241 OA
ENDBRANCH  14  17
ENDBRANCH   1  15
TORSDOF 4
ENDMDL
MODEL 9
REMARK VINA RESULT:    -6.070     34.980     36.474
REMARK INTER + INTRA:          -7.914
REMARK INTER:                  -7.522
REMARK INTRA:                  -0.392
REMARK UNBOUND:                -0.424
REMARK  Name = cpd65.pdb
REMARK  4 active torsions:
REMARK  status: ('A' for Active; 'I' for Inactive)
REMARK    1  A    between atoms: C_2  and  C_4
REMARK    2  A    between atoms: C_5  and  C_6
REMARK    3  A    between atoms: N_8  and  C_9
REMARK    4  A    between atoms: C_13  and  C_14
REMARK                            x       y       z     vdW  Elec       q    Type
REMARK                         _______ _______ _______ _____ _____    ______ ____
ROOT
ATOM      1  C   UNL A   1      63.353 -22.860  -9.779  0.00  0.00    +0.241 C 
ATOM      2  O   UNL A   1      62.923 -23.925 -10.180  0.00  0.00    -0.270 OA
ATOM      3  N   UNL A   1      63.972 -22.633  -8.554  0.00  0.00    -0.282 N 
ATOM      4  H   UNL A   1      64.258 -21.705  -8.396  0.00  0.00    +0.000 HD
ENDROOT
BRANCH   3   5
ATOM      5  C   UNL A   1      64.253 -23.534  -7.502  0.00  0.00    +0.034 A 
ATOM      6  C   UNL A   1      64.364 -22.952  -6.227  0.00  0.00    -0.040 A 
ATOM      7  C   UNL A   1      64.638 -23.723  -5.102  0.00  0.00    -0.059 A 
ATOM      8  C   UNL A   1      64.806 -25.095  -5.239  0.00  0.00    -0.048 A 
ATOM      9  C   UNL A   1      64.703 -25.718  -6.497  0.00  0.00    +0.065 A 
ATOM     10  C   UNL A   1      64.424 -24.917  -7.631  0.00  0.00    -0.026 A 
BRANCH   9  11
ATOM     11  C   UNL A   1      64.895 -27.224  -6.593  0.00  0.00    +0.387 C 
ATOM     12  O   UNL A   1      63.883 -27.969  -6.429  0.00  0.00    -0.241 OA
ATOM     13  O   UNL A   1      66.078 -27.636  -6.834  0.00  0.00    -0.241 OA
ENDBRANCH   9  11
ENDBRANCH   3   5
BRANCH   1  15
ATOM     14  C   UNL A   1      62.853 -20.333 -10.258  0.00  0.00    +0.032 C 
ATOM     15  C   UNL A   1      63.293 -21.564 -10.548  0.00  0.00    +0.007 C 
BRANCH  14  17
ATOM     16  O   UNL A   1      62.393 -20.111  -7.919  0.00  0.00    -0.241 OA
ATOM     17  C   UNL A   1      62.216 -19.633  -9.059  0.00  0.00    +0.380 C 
ATOM     18  O   UNL A   1      61.556 -18.602  -9.403  0.00  0.00    -0.241 OA
ENDBRANCH  14  17
ENDBRANCH   1  15
TORSDOF 4
ENDMDL
MODEL 10
REMARK VINA RESULT:    -5.955      1.921      6.525
REMARK INTER + INTRA:          -7.771
REMARK INTER:                  -7.905
REMARK INTRA:                   0.134
REMARK UNBOUND:                -0.424
REMARK  Name = cpd65.pdb
REMARK  4 active torsions:
REMARK  status: ('A' for Active; 'I' for Inactive)
REMARK    1  A    between atoms: C_2  and  C_4
REMARK    2  A    between atoms: C_5  and  C_6
REMARK    3  A    between atoms: N_8  and  C_9
REMARK    4  A    between atoms: C_13  and  C_14
REMARK                            x       y       z     vdW  Elec       q    Type
REMARK                         _______ _______ _______ _____ _____    ______ ____
ROOT
ATOM      1  C   UNL A   1      39.912 -37.912 -29.477  0.00  0.00    +0.241 C 
ATOM      2  O   UNL A   1      39.824 -38.800 -28.650  0.00  0.00    -0.270 OA
ATOM      3  N   UNL A   1      38.929 -36.978 -29.789  0.00  0.00    -0.282 N 
ATOM      4  H   UNL A   1      39.176 -36.330 -30.488  0.00  0.00    +0.000 HD
ENDROOT
BRANCH   3   5
ATOM      5  C   UNL A   1      37.631 -36.818 -29.254  0.00  0.00    +0.034 A 
ATOM      6  C   UNL A   1      37.359 -37.580 -28.103  0.00  0.00    -0.040 A 
ATOM      7  C   UNL A   1      36.120 -37.519 -27.473  0.00  0.00    -0.059 A 
ATOM      8  C   UNL A   1      35.132 -36.690 -27.989  0.00  0.00    -0.048 A 
ATOM      9  C   UNL A   1      35.363 -35.911 -29.139  0.00  0.00    +0.065 A 
ATOM     10  C   UNL A   1      36.631 -35.986 -29.767  0.00  0.00    -0.026 A 
BRANCH   9  11
ATOM     11  C   UNL A   1      34.248 -35.020 -29.663  0.00  0.00    +0.387 C 
ATOM     12  O   UNL A   1      33.460 -34.488 -28.823  0.00  0.00    -0.241 OA
ATOM     13  O   UNL A   1      34.181 -34.869 -30.928  0.00  0.00    -0.241 OA
ENDBRANCH   9  11
ENDBRANCH   3   5
BRANCH   1  15
ATOM     14  C   UNL A   1      41.343 -36.931 -31.441  0.00  0.00    +0.032 C 
ATOM     15  C   UNL A   1      41.126 -37.656 -30.335  0.00  0.00    +0.007 C 
BRANCH  14  17
ATOM     16  O   UNL A   1      39.292 -36.232 -32.457  0.00  0.00    -0.241 OA
ATOM     17  C   UNL A   1      40.521 -36.034 -32.362  0.00  0.00    +0.380 C 
ATOM     18  O   UNL A   1      41.238 -35.157 -32.940  0.00  0.00    -0.241 OA
ENDBRANCH  14  17
ENDBRANCH   1  15
TORSDOF 4
ENDMDL
MODEL 11
REMARK VINA RESULT:    -5.722     18.888     19.541
REMARK INTER + INTRA:          -7.485
REMARK INTER:                  -6.923
REMARK INTRA:                  -0.562
REMARK UNBOUND:                -0.424
REMARK  Name = cpd65.pdb
REMARK  4 active torsions:
REMARK  status: ('A' for Active; 'I' for Inactive)
REMARK    1  A    between atoms: C_2  and  C_4
REMARK    2  A    between atoms: C_5  and  C_6
REMARK    3  A    between atoms: N_8  and  C_9
REMARK    4  A    between atoms: C_13  and  C_14
REMARK                            x       y       z     vdW  Elec       q    Type
REMARK                         _______ _______ _______ _____ _____    ______ ____
ROOT
ATOM      1  C   UNL A   1      47.057 -18.856 -37.654  0.00  0.00    +0.241 C 
ATOM      2  O   UNL A   1      47.223 -18.047 -38.548  0.00  0.00    -0.270 OA
ATOM      3  N   UNL A   1      46.586 -20.156 -37.799  0.00  0.00    -0.282 N 
ATOM      4  H   UNL A   1      46.516 -20.671 -36.963  0.00  0.00    +0.000 HD
ENDROOT
BRANCH   3   5
ATOM      5  C   UNL A   1      46.194 -20.851 -38.966  0.00  0.00    +0.034 A 
ATOM      6  C   UNL A   1      44.876 -20.608 -39.393  0.00  0.00    -0.040 A 
ATOM      7  C   UNL A   1      44.359 -21.227 -40.528  0.00  0.00    -0.059 A 
ATOM      8  C   UNL A   1      45.160 -22.102 -41.253  0.00  0.00    -0.048 A 
ATOM      9  C   UNL A   1      46.483 -22.372 -40.859  0.00  0.00    +0.065 A 
ATOM     10  C   UNL A   1      46.992 -21.733 -39.701  0.00  0.00    -0.026 A 
BRANCH   9  11
ATOM     11  C   UNL A   1      47.317 -23.338 -41.687  0.00  0.00    +0.387 C 
ATOM     12  O   UNL A   1      46.720 -24.079 -42.526  0.00  0.00    -0.241 OA
ATOM     13  O   UNL A   1      48.575 -23.334 -41.478  0.00  0.00    -0.241 OA
ENDBRANCH   9  11
ENDBRANCH   3   5
BRANCH   1  15
ATOM     14  C   UNL A   1      46.624 -18.744 -35.072  0.00  0.00    +0.032 C 
ATOM     15  C   UNL A   1      47.338 -18.592 -36.196  0.00  0.00    +0.007 C 
BRANCH  14  17
ATOM     16  O   UNL A   1      44.351 -19.291 -35.588  0.00  0.00    -0.241 OA
ATOM     17  C   UNL A   1      45.227 -19.237 -34.700  0.00  0.00    +0.380 C 
ATOM     18  O   UNL A   1      45.141 -19.541 -33.469  0.00  0.00    -0.241 OA
ENDBRANCH  14  17
ENDBRANCH   1  15
TORSDOF 4
ENDMDL
MODEL 12
REMARK VINA RESULT:    -5.712      2.508      3.483
REMARK INTER + INTRA:          -7.472
REMARK INTER:                  -7.087
REMARK INTRA:                  -0.385
REMARK UNBOUND:                -0.424
REMARK  Name = cpd65.pdb
REMARK  4 active torsions:
REMARK  status: ('A' for Active; 'I' for Inactive)
REMARK    1  A    between atoms: C_2  and  C_4
REMARK    2  A    between atoms: C_5  and  C_6
REMARK    3  A    between atoms: N_8  and  C_9
REMARK    4  A    between atoms: C_13  and  C_14
REMARK                            x       y       z     vdW  Elec       q    Type
REMARK                         _______ _______ _______ _____ _____    ______ ____
ROOT
ATOM      1  C   UNL A   1      35.801 -36.330 -29.580  0.00  0.00    +0.241 C 
ATOM      2  O   UNL A   1      36.077 -35.153 -29.719  0.00  0.00    -0.270 OA
ATOM      3  N   UNL A   1      36.694 -37.395 -29.622  0.00  0.00    -0.282 N 
ATOM      4  H   UNL A   1      36.292 -38.283 -29.489  0.00  0.00    +0.000 HD
ENDROOT
BRANCH   3   5
ATOM      5  C   UNL A   1      38.093 -37.395 -29.826  0.00  0.00    +0.034 A 
ATOM      6  C   UNL A   1      38.846 -38.017 -28.815  0.00  0.00    -0.040 A 
ATOM      7  C   UNL A   1      40.234 -38.088 -28.889  0.00  0.00    -0.059 A 
ATOM      8  C   UNL A   1      40.889 -37.534 -29.983  0.00  0.00    -0.048 A 
ATOM      9  C   UNL A   1      40.172 -36.903 -31.016  0.00  0.00    +0.065 A 
ATOM     10  C   UNL A   1      38.760 -36.840 -30.924  0.00  0.00    -0.026 A 
BRANCH   9  11
ATOM     11  C   UNL A   1      40.937 -36.314 -32.191  0.00  0.00    +0.387 C 
ATOM     12  O   UNL A   1      40.305 -35.582 -33.013  0.00  0.00    -0.241 OA
ATOM     13  O   UNL A   1      42.177 -36.600 -32.269  0.00  0.00    -0.241 OA
ENDBRANCH   9  11
ENDBRANCH   3   5
BRANCH   1  15
ATOM     14  C   UNL A   1      33.770 -37.311 -28.245  0.00  0.00    +0.032 C 
ATOM     15  C   UNL A   1      34.411 -36.861 -29.333  0.00  0.00    +0.007 C 
BRANCH  14  17
ATOM     16  O   UNL A   1      33.533 -36.778 -25.923  0.00  0.00    -0.241 OA
ATOM     17  C   UNL A   1      34.094 -37.509 -26.766  0.00  0.00    +0.380 C 
ATOM     18  O   UNL A   1      34.937 -38.444 -26.583  0.00  0.00    -0.241 OA
ENDBRANCH  14  17
ENDBRANCH   1  15
TORSDOF 4
ENDMDL
MODEL 13
REMARK VINA RESULT:    -5.664     16.998     18.385
REMARK INTER + INTRA:          -7.413
REMARK INTER:                  -6.972
REMARK INTRA:                  -0.442
REMARK UNBOUND:                -0.424
REMARK  Name = cpd65.pdb
REMARK  4 active torsions:
REMARK  status: ('A' for Active; 'I' for Inactive)
REMARK    1  A    between atoms: C_2  and  C_4
REMARK    2  A    between atoms: C_5  and  C_6
REMARK    3  A    between atoms: N_8  and  C_9
REMARK    4  A    between atoms: C_13  and  C_14
REMARK                            x       y       z     vdW  Elec       q    Type
REMARK                         _______ _______ _______ _____ _____    ______ ____
ROOT
ATOM      1  C   UNL A   1      43.946 -20.005 -37.914  0.00  0.00    +0.241 C 
ATOM      2  O   UNL A   1      44.571 -18.989 -38.151  0.00  0.00    -0.270 OA
ATOM      3  N   UNL A   1      43.836 -21.116 -38.745  0.00  0.00    -0.282 N 
ATOM      4  H   UNL A   1      43.286 -21.851 -38.389  0.00  0.00    +0.000 HD
ENDROOT
BRANCH   3   5
ATOM      5  C   UNL A   1      44.393 -21.348 -40.023  0.00  0.00    +0.034 A 
ATOM      6  C   UNL A   1      43.733 -20.711 -41.089  0.00  0.00    -0.040 A 
ATOM      7  C   UNL A   1      44.176 -20.854 -42.400  0.00  0.00    -0.059 A 
ATOM      8  C   UNL A   1      45.291 -21.640 -42.662  0.00  0.00    -0.048 A 
ATOM      9  C   UNL A   1      45.980 -22.294 -41.624  0.00  0.00    +0.065 A 
ATOM     10  C   UNL A   1      45.515 -22.137 -40.295  0.00  0.00    -0.026 A 
BRANCH   9  11
ATOM     11  C   UNL A   1      47.195 -23.143 -41.965  0.00  0.00    +0.387 C 
ATOM     12  O   UNL A   1      47.035 -24.138 -42.736  0.00  0.00    -0.241 OA
ATOM     13  O   UNL A   1      48.305 -22.791 -41.444  0.00  0.00    -0.241 OA
ENDBRANCH   9  11
ENDBRANCH   3   5
BRANCH   1  15
ATOM     14  C   UNL A   1      42.196 -21.123 -36.315  0.00  0.00    +0.032 C 
ATOM     15  C   UNL A   1      43.159 -20.254 -36.651  0.00  0.00    +0.007 C 
BRANCH  14  17
ATOM     16  O   UNL A   1      41.151 -22.147 -38.210  0.00  0.00    -0.241 OA
ATOM     17  C   UNL A   1      41.430 -22.254 -36.997  0.00  0.00    +0.380 C 
ATOM     18  O   UNL A   1      41.166 -23.204 -36.195  0.00  0.00    -0.241 OA
ENDBRANCH  14  17
ENDBRANCH   1  15
TORSDOF 4
ENDMDL
MODEL 14
REMARK VINA RESULT:    -5.596     18.671     20.624
REMARK INTER + INTRA:          -7.329
REMARK INTER:                  -6.704
REMARK INTRA:                  -0.625
REMARK UNBOUND:                -0.424
REMARK  Name = cpd65.pdb
REMARK  4 active torsions:
REMARK  status: ('A' for Active; 'I' for Inactive)
REMARK    1  A    between atoms: C_2  and  C_4
REMARK    2  A    between atoms: C_5  and  C_6
REMARK    3  A    between atoms: N_8  and  C_9
REMARK    4  A    between atoms: C_13  and  C_14
REMARK                            x       y       z     vdW  Elec       q    Type
REMARK                         _______ _______ _______ _____ _____    ______ ____
ROOT
ATOM      1  C   UNL A   1      46.623 -19.346 -40.456  0.00  0.00    +0.241 C 
ATOM      2  O   UNL A   1      45.502 -18.890 -40.580  0.00  0.00    -0.270 OA
ATOM      3  N   UNL A   1      47.327 -19.484 -39.264  0.00  0.00    -0.282 N 
ATOM      4  H   UNL A   1      48.226 -19.875 -39.353  0.00  0.00    +0.000 HD
ENDROOT
BRANCH   3   5
ATOM      5  C   UNL A   1      46.946 -19.149 -37.945  0.00  0.00    +0.034 A 
ATOM      6  C   UNL A   1      47.300 -17.853 -37.531  0.00  0.00    -0.040 A 
ATOM      7  C   UNL A   1      46.986 -17.391 -36.256  0.00  0.00    -0.059 A 
ATOM      8  C   UNL A   1      46.311 -18.227 -35.374  0.00  0.00    -0.048 A 
ATOM      9  C   UNL A   1      45.939 -19.531 -35.750  0.00  0.00    +0.065 A 
ATOM     10  C   UNL A   1      46.266 -19.983 -37.052  0.00  0.00    -0.026 A 
BRANCH   9  11
ATOM     11  C   UNL A   1      45.201 -20.405 -34.747  0.00  0.00    +0.387 C 
ATOM     12  O   UNL A   1      45.879 -20.997 -33.854  0.00  0.00    -0.241 OA
ATOM     13  O   UNL A   1      43.934 -20.482 -34.877  0.00  0.00    -0.241 OA
ENDBRANCH   9  11
ENDBRANCH   3   5
BRANCH   1  15
ATOM     14  C   UNL A   1      48.019 -21.044 -41.882  0.00  0.00    +0.032 C 
ATOM     15  C   UNL A   1      47.473 -19.855 -41.593  0.00  0.00    +0.007 C 
BRANCH  14  17
ATOM     16  O   UNL A   1      48.222 -22.524 -40.011  0.00  0.00    -0.241 OA
ATOM     17  C   UNL A   1      48.063 -22.432 -41.246  0.00  0.00    +0.380 C 
ATOM     18  O   UNL A   1      47.924 -23.357 -42.108  0.00  0.00    -0.241 OA
ENDBRANCH  14  17
ENDBRANCH   1  15
TORSDOF 4
ENDMDL
MODEL 15
REMARK VINA RESULT:    -5.576      2.881      7.491
REMARK INTER + INTRA:          -7.304
REMARK INTER:                  -6.661
REMARK INTRA:                  -0.644
REMARK UNBOUND:                -0.424
REMARK  Name = cpd65.pdb
REMARK  4 active torsions:
REMARK  status: ('A' for Active; 'I' for Inactive)
REMARK    1  A    between atoms: C_2  and  C_4
REMARK    2  A    between atoms: C_5  and  C_6
REMARK    3  A    between atoms: N_8  and  C_9
REMARK    4  A    between atoms: C_13  and  C_14
REMARK                            x       y       z     vdW  Elec       q    Type
REMARK                         _______ _______ _______ _____ _____    ______ ____
ROOT
ATOM      1  C   UNL A   1      37.115 -36.187 -29.992  0.00  0.00    +0.241 C 
ATOM      2  O   UNL A   1      36.960 -36.547 -28.841  0.00  0.00    -0.270 OA
ATOM      3  N   UNL A   1      36.282 -35.331 -30.706  0.00  0.00    -0.282 N 
ATOM      4  H   UNL A   1      36.564 -35.149 -31.631  0.00  0.00    +0.000 HD
ENDROOT
BRANCH   3   5
ATOM      5  C   UNL A   1      35.092 -34.683 -30.303  0.00  0.00    +0.034 A 
ATOM      6  C   UNL A   1      35.229 -33.319 -29.991  0.00  0.00    -0.040 A 
ATOM      7  C   UNL A   1      34.138 -32.560 -29.580  0.00  0.00    -0.059 A 
ATOM      8  C   UNL A   1      32.889 -33.160 -29.476  0.00  0.00    -0.048 A 
ATOM      9  C   UNL A   1      32.709 -34.522 -29.779  0.00  0.00    +0.065 A 
ATOM     10  C   UNL A   1      33.832 -35.279 -30.196  0.00  0.00    -0.026 A 
BRANCH   9  11
ATOM     11  C   UNL A   1      31.321 -35.130 -29.650  0.00  0.00    +0.387 C 
ATOM     12  O   UNL A   1      31.151 -36.325 -30.040  0.00  0.00    -0.241 OA
ATOM     13  O   UNL A   1      30.414 -34.386 -29.151  0.00  0.00    -0.241 OA
ENDBRANCH   9  11
ENDBRANCH   3   5
BRANCH   1  15
ATOM     14  C   UNL A   1      39.188 -35.942 -31.576  0.00  0.00    +0.032 C 
ATOM     15  C   UNL A   1      38.261 -36.610 -30.877  0.00  0.00    +0.007 C 
BRANCH  14  17
ATOM     16  O   UNL A   1      40.756 -34.163 -31.907  0.00  0.00    -0.241 OA
ATOM     17  C   UNL A   1      39.550 -34.481 -31.831  0.00  0.00    +0.380 C 
ATOM     18  O   UNL A   1      38.519 -33.744 -31.938  0.00  0.00    -0.241 OA
ENDBRANCH  14  17
ENDBRANCH   1  15
TORSDOF 4
ENDMDL
MODEL 16
REMARK VINA RESULT:    -5.570      2.896      4.631
REMARK INTER + INTRA:          -7.297
REMARK INTER:                  -6.893
REMARK INTRA:                  -0.404
REMARK UNBOUND:                -0.424
REMARK  Name = cpd65.pdb
REMARK  4 active torsions:
REMARK  status: ('A' for Active; 'I' for Inactive)
REMARK    1  A    between atoms: C_2  and  C_4
REMARK    2  A    between atoms: C_5  and  C_6
REMARK    3  A    between atoms: N_8  and  C_9
REMARK    4  A    between atoms: C_13  and  C_14
REMARK                            x       y       z     vdW  Elec       q    Type
REMARK                         _______ _______ _______ _____ _____    ______ ____
ROOT
ATOM      1  C   UNL A   1      34.688 -33.628 -30.781  0.00  0.00    +0.241 C 
ATOM      2  O   UNL A   1      34.921 -33.171 -29.678  0.00  0.00    -0.270 OA
ATOM      3  N   UNL A   1      35.371 -34.669 -31.400  0.00  0.00    -0.282 N 
ATOM      4  H   UNL A   1      35.043 -34.909 -32.297  0.00  0.00    +0.000 HD
ENDROOT
BRANCH   3   5
ATOM      5  C   UNL A   1      36.465 -35.435 -30.938  0.00  0.00    +0.034 A 
ATOM      6  C   UNL A   1      37.653 -35.291 -31.676  0.00  0.00    -0.040 A 
ATOM      7  C   UNL A   1      38.807 -35.987 -31.331  0.00  0.00    -0.059 A 
ATOM      8  C   UNL A   1      38.787 -36.840 -30.235  0.00  0.00    -0.048 A 
ATOM      9  C   UNL A   1      37.619 -37.013 -29.469  0.00  0.00    +0.065 A 
ATOM     10  C   UNL A   1      36.454 -36.296 -29.836  0.00  0.00    -0.026 A 
BRANCH   9  11
ATOM     11  C   UNL A   1      37.651 -37.960 -28.279  0.00  0.00    +0.387 C 
ATOM     12  O   UNL A   1      38.780 -38.291 -27.805  0.00  0.00    -0.241 OA
ATOM     13  O   UNL A   1      36.524 -38.359 -27.834  0.00  0.00    -0.241 OA
ENDBRANCH   9  11
ENDBRANCH   3   5
BRANCH   1  15
ATOM     14  C   UNL A   1      32.353 -32.676 -31.495  0.00  0.00    +0.032 C 
ATOM     15  C   UNL A   1      33.593 -33.143 -31.697  0.00  0.00    +0.007 C 
BRANCH  14  17
ATOM     16  O   UNL A   1      31.864 -31.659 -29.383  0.00  0.00    -0.241 OA
ATOM     17  C   UNL A   1      31.449 -32.405 -30.295  0.00  0.00    +0.380 C 
ATOM     18  O   UNL A   1      30.334 -33.009 -30.391  0.00  0.00    -0.241 OA
ENDBRANCH  14  17
ENDBRANCH   1  15
TORSDOF 4
ENDMDL
MODEL 17
REMARK VINA RESULT:    -5.475     19.496     20.982
REMARK INTER + INTRA:          -7.179
REMARK INTER:                  -6.573
REMARK INTRA:                  -0.606
REMARK UNBOUND:                -0.424
REMARK  Name = cpd65.pdb
REMARK  4 active torsions:
REMARK  status: ('A' for Active; 'I' for Inactive)
REMARK    1  A    between atoms: C_2  and  C_4
REMARK    2  A    between atoms: C_5  and  C_6
REMARK    3  A    between atoms: N_8  and  C_9
REMARK    4  A    between atoms: C_13  and  C_14
REMARK                            x       y       z     vdW  Elec       q    Type
REMARK                         _______ _______ _______ _____ _____    ______ ____
ROOT
ATOM      1  C   UNL A   1      45.444 -20.278 -39.838  0.00  0.00    +0.241 C 
ATOM      2  O   UNL A   1      44.453 -20.316 -39.133  0.00  0.00    -0.270 OA
ATOM      3  N   UNL A   1      46.588 -19.522 -39.607  0.00  0.00    -0.282 N 
ATOM      4  H   UNL A   1      47.294 -19.615 -40.286  0.00  0.00    +0.000 HD
ENDROOT
BRANCH   3   5
ATOM      5  C   UNL A   1      46.890 -18.639 -38.545  0.00  0.00    +0.034 A 
ATOM      6  C   UNL A   1      46.691 -17.275 -38.824  0.00  0.00    -0.040 A 
ATOM      7  C   UNL A   1      46.949 -16.297 -37.868  0.00  0.00    -0.059 A 
ATOM      8  C   UNL A   1      47.412 -16.675 -36.614  0.00  0.00    -0.048 A 
ATOM      9  C   UNL A   1      47.625 -18.029 -36.294  0.00  0.00    +0.065 A 
ATOM     10  C   UNL A   1      47.357 -19.010 -37.280  0.00  0.00    -0.026 A 
BRANCH   9  11
ATOM     11  C   UNL A   1      48.133 -18.388 -34.906  0.00  0.00    +0.387 C 
ATOM     12  O   UNL A   1      47.397 -18.117 -33.909  0.00  0.00    -0.241 OA
ATOM     13  O   UNL A   1      49.280 -18.944 -34.842  0.00  0.00    -0.241 OA
ENDBRANCH   9  11
ENDBRANCH   3   5
BRANCH   1  15
ATOM     14  C   UNL A   1      46.489 -21.994 -41.520  0.00  0.00    +0.032 C 
ATOM     15  C   UNL A   1      45.618 -21.059 -41.116  0.00  0.00    +0.007 C 
BRANCH  14  17
ATOM     16  O   UNL A   1      48.157 -22.330 -39.836  0.00  0.00    -0.241 OA
ATOM     17  C   UNL A   1      47.695 -22.720 -40.929  0.00  0.00    +0.380 C 
ATOM     18  O   UNL A   1      48.087 -23.677 -41.669  0.00  0.00    -0.241 OA
ENDBRANCH  14  17
ENDBRANCH   1  15
TORSDOF 4
ENDMDL
MODEL 18
REMARK VINA RESULT:    -5.445     19.519     20.716
REMARK INTER + INTRA:          -7.143
REMARK INTER:                  -6.540
REMARK INTRA:                  -0.603
REMARK UNBOUND:                -0.424
REMARK  Name = cpd65.pdb
REMARK  4 active torsions:
REMARK  status: ('A' for Active; 'I' for Inactive)
REMARK    1  A    between atoms: C_2  and  C_4
REMARK    2  A    between atoms: C_5  and  C_6
REMARK    3  A    between atoms: N_8  and  C_9
REMARK    4  A    between atoms: C_13  and  C_14
REMARK                            x       y       z     vdW  Elec       q    Type
REMARK                         _______ _______ _______ _____ _____    ______ ____
ROOT
ATOM      1  C   UNL A   1      46.978 -17.635 -38.437  0.00  0.00    +0.241 C 
ATOM      2  O   UNL A   1      47.358 -17.016 -39.413  0.00  0.00    -0.270 OA
ATOM      3  N   UNL A   1      46.436 -18.916 -38.436  0.00  0.00    -0.282 N 
ATOM      4  H   UNL A   1      46.183 -19.261 -37.550  0.00  0.00    +0.000 HD
ENDROOT
BRANCH   3   5
ATOM      5  C   UNL A   1      46.194 -19.796 -39.515  0.00  0.00    +0.034 A 
ATOM      6  C   UNL A   1      45.062 -19.493 -40.293  0.00  0.00    -0.040 A 
ATOM      7  C   UNL A   1      44.707 -20.277 -41.386  0.00  0.00    -0.059 A 
ATOM      8  C   UNL A   1      45.483 -21.381 -41.716  0.00  0.00    -0.048 A 
ATOM      9  C   UNL A   1      46.623 -21.720 -40.963  0.00  0.00    +0.065 A 
ATOM     10  C   UNL A   1      46.970 -20.909 -39.853  0.00  0.00    -0.026 A 
BRANCH   9  11
ATOM     11  C   UNL A   1      47.439 -22.938 -41.366  0.00  0.00    +0.387 C 
ATOM     12  O   UNL A   1      48.646 -23.006 -40.982  0.00  0.00    -0.241 OA
ATOM     13  O   UNL A   1      46.843 -23.819 -42.071  0.00  0.00    -0.241 OA
ENDBRANCH   9  11
ENDBRANCH   3   5
BRANCH   1  15
ATOM     14  C   UNL A   1      47.477 -17.623 -35.865  0.00  0.00    +0.032 C 
ATOM     15  C   UNL A   1      47.026 -17.118 -37.021  0.00  0.00    +0.007 C 
BRANCH  14  17
ATOM     16  O   UNL A   1      49.306 -18.865 -34.946  0.00  0.00    -0.241 OA
ATOM     17  C   UNL A   1      48.144 -18.916 -35.400  0.00  0.00    +0.380 C 
ATOM     18  O   UNL A   1      47.383 -19.925 -35.546  0.00  0.00    -0.241 OA
ENDBRANCH  14  17
ENDBRANCH   1  15
TORSDOF 4
ENDMDL
MODEL 19
REMARK VINA RESULT:    -5.406     17.173     18.529
REMARK INTER + INTRA:          -7.095
REMARK INTER:                  -6.675
REMARK INTRA:                  -0.419
REMARK UNBOUND:                -0.424
REMARK  Name = cpd65.pdb
REMARK  4 active torsions:
REMARK  status: ('A' for Active; 'I' for Inactive)
REMARK    1  A    between atoms: C_2  and  C_4
REMARK    2  A    between atoms: C_5  and  C_6
REMARK    3  A    between atoms: N_8  and  C_9
REMARK    4  A    between atoms: C_13  and  C_14
REMARK                            x       y       z     vdW  Elec       q    Type
REMARK                         _______ _______ _______ _____ _____    ______ ____
ROOT
ATOM      1  C   UNL A   1      42.830 -21.107 -39.462  0.00  0.00    +0.241 C 
ATOM      2  O   UNL A   1      43.332 -20.768 -38.407  0.00  0.00    -0.270 OA
ATOM      3  N   UNL A   1      43.496 -21.284 -40.671  0.00  0.00    -0.282 N 
ATOM      4  H   UNL A   1      42.928 -21.562 -41.424  0.00  0.00    +0.000 HD
ENDROOT
BRANCH   3   5
ATOM      5  C   UNL A   1      44.866 -21.125 -40.979  0.00  0.00    +0.034 A 
ATOM      6  C   UNL A   1      45.234 -19.844 -41.430  0.00  0.00    -0.040 A 
ATOM      7  C   UNL A   1      46.551 -19.549 -41.769  0.00  0.00    -0.059 A 
ATOM      8  C   UNL A   1      47.522 -20.537 -41.661  0.00  0.00    -0.048 A 
ATOM      9  C   UNL A   1      47.196 -21.831 -41.214  0.00  0.00    +0.065 A 
ATOM     10  C   UNL A   1      45.850 -22.113 -40.873  0.00  0.00    -0.026 A 
BRANCH   9  11
ATOM     11  C   UNL A   1      48.296 -22.876 -41.114  0.00  0.00    +0.387 C 
ATOM     12  O   UNL A   1      49.200 -22.713 -40.239  0.00  0.00    -0.241 OA
ATOM     13  O   UNL A   1      48.232 -23.856 -41.927  0.00  0.00    -0.241 OA
ENDBRANCH   9  11
ENDBRANCH   3   5
BRANCH   1  15
ATOM     14  C   UNL A   1      40.393 -21.855 -38.854  0.00  0.00    +0.032 C 
ATOM     15  C   UNL A   1      41.364 -21.405 -39.660  0.00  0.00    +0.007 C 
BRANCH  14  17
ATOM     16  O   UNL A   1      41.164 -22.991 -36.893  0.00  0.00    -0.241 OA
ATOM     17  C   UNL A   1      40.268 -22.279 -37.393  0.00  0.00    +0.380 C 
ATOM     18  O   UNL A   1      39.210 -21.825 -36.852  0.00  0.00    -0.241 OA
ENDBRANCH  14  17
ENDBRANCH   1  15
TORSDOF 4
ENDMDL
MODEL 20
REMARK VINA RESULT:    -5.234     14.789     16.684
REMARK INTER + INTRA:          -6.882
REMARK INTER:                  -6.237
REMARK INTRA:                  -0.645
REMARK UNBOUND:                -0.424
REMARK  Name = cpd65.pdb
REMARK  4 active torsions:
REMARK  status: ('A' for Active; 'I' for Inactive)
REMARK    1  A    between atoms: C_2  and  C_4
REMARK    2  A    between atoms: C_5  and  C_6
REMARK    3  A    between atoms: N_8  and  C_9
REMARK    4  A    between atoms: C_13  and  C_14
REMARK                            x       y       z     vdW  Elec       q    Type
REMARK                         _______ _______ _______ _____ _____    ______ ____
ROOT
ATOM      1  C   UNL A   1      41.421 -20.011 -37.133  0.00  0.00    +0.241 C 
ATOM      2  O   UNL A   1      40.714 -19.090 -36.769  0.00  0.00    -0.270 OA
ATOM      3  N   UNL A   1      41.574 -21.234 -36.489  0.00  0.00    -0.282 N 
ATOM      4  H   UNL A   1      42.190 -21.863 -36.928  0.00  0.00    +0.000 HD
ENDROOT
BRANCH   3   5
ATOM      5  C   UNL A   1      40.979 -21.710 -35.299  0.00  0.00    +0.034 A 
ATOM      6  C   UNL A   1      41.523 -21.196 -34.109  0.00  0.00    -0.040 A 
ATOM      7  C   UNL A   1      41.032 -21.580 -32.864  0.00  0.00    -0.059 A 
ATOM      8  C   UNL A   1      39.983 -22.489 -32.796  0.00  0.00    -0.048 A 
ATOM      9  C   UNL A   1      39.410 -23.027 -33.963  0.00  0.00    +0.065 A 
ATOM     10  C   UNL A   1      39.923 -22.625 -35.220  0.00  0.00    -0.026 A 
BRANCH   9  11
ATOM     11  C   UNL A   1      38.264 -24.019 -33.832  0.00  0.00    +0.387 C 
ATOM     12  O   UNL A   1      37.546 -23.971 -32.788  0.00  0.00    -0.241 OA
ATOM     13  O   UNL A   1      38.103 -24.840 -34.795  0.00  0.00    -0.241 OA
ENDBRANCH   9  11
ENDBRANCH   3   5
BRANCH   1  15
ATOM     14  C   UNL A   1      42.365 -20.788 -39.450  0.00  0.00    +0.032 C 
ATOM     15  C   UNL A   1      42.279 -19.996 -38.374  0.00  0.00    +0.007 C 
BRANCH  14  17
ATOM     16  O   UNL A   1      41.396 -22.140 -41.172  0.00  0.00    -0.241 OA
ATOM     17  C   UNL A   1      41.678 -22.053 -39.958  0.00  0.00    +0.380 C 
ATOM     18  O   UNL A   1      41.474 -22.894 -39.026  0.00  0.00    -0.241 OA
ENDBRANCH  14  17
ENDBRANCH   1  15
TORSDOF 4
ENDMDL
