MODEL 1
REMARK VINA RESULT:    -7.557      0.000      0.000
REMARK INTER + INTRA:         -10.264
REMARK INTER:                  -9.766
REMARK INTRA:                  -0.498
REMARK UNBOUND:                -0.498
REMARK  Name = cpd90.pdb
REMARK  5 active torsions:
REMARK  status: ('A' for Active; 'I' for Inactive)
REMARK    1  A    between atoms: C_2  and  C_4
REMARK    2  A    between atoms: C_4  and  C_5
REMARK    3  A    between atoms: C_5  and  C_6
REMARK    4  A    between atoms: N_8  and  C_9
REMARK    5  A    between atoms: C_13  and  C_14
REMARK                            x       y       z     vdW  Elec       q    Type
REMARK                         _______ _______ _______ _____ _____    ______ ____
ROOT
ATOM      1  C   UNL A   1      44.329 -40.085 -28.476  0.00  0.00    +0.218 C 
ATOM      2  O   UNL A   1      44.404 -39.280 -27.558  0.00  0.00    -0.275 OA
ATOM      3  N   UNL A   1      43.479 -40.026 -29.572  0.00  0.00    -0.285 N 
ATOM      4  H   UNL A   1      43.562 -40.771 -30.210  0.00  0.00    +0.000 HD
ENDROOT
BRANCH   3   5
ATOM      5  C   UNL A   1      42.513 -39.053 -29.904  0.00  0.00    +0.034 A 
ATOM      6  C   UNL A   1      41.499 -38.851 -28.955  0.00  0.00    -0.040 A 
ATOM      7  C   UNL A   1      40.489 -37.917 -29.172  0.00  0.00    -0.059 A 
ATOM      8  C   UNL A   1      40.484 -37.172 -30.347  0.00  0.00    -0.048 A 
ATOM      9  C   UNL A   1      41.483 -37.346 -31.320  0.00  0.00    +0.065 A 
ATOM     10  C   UNL A   1      42.501 -38.299 -31.082  0.00  0.00    -0.026 A 
BRANCH   9  11
ATOM     11  C   UNL A   1      41.442 -36.515 -32.592  0.00  0.00    +0.387 C 
ATOM     12  O   UNL A   1      41.366 -37.126 -33.702  0.00  0.00    -0.241 OA
ATOM     13  O   UNL A   1      41.488 -35.248 -32.452  0.00  0.00    -0.241 OA
ENDBRANCH   9  11
ENDBRANCH   3   5
BRANCH   1  14
ATOM     14  C   UNL A   1      45.197 -41.336 -28.566  0.00  0.00    +0.034 C 
BRANCH  14  15
ATOM     15  C   UNL A   1      46.209 -41.332 -29.700  0.00  0.00    +0.057 C 
BRANCH  15  17
ATOM     16  O   UNL A   1      44.628 -42.656 -30.891  0.00  0.00    -0.246 OA
ATOM     17  C   UNL A   1      45.845 -42.328 -30.802  0.00  0.00    +0.356 C 
ATOM     18  O   UNL A   1      46.821 -42.714 -31.508  0.00  0.00    -0.246 OA
ENDBRANCH  15  17
ENDBRANCH  14  15
ENDBRANCH   1  14
TORSDOF 5
ENDMDL
MODEL 2
REMARK VINA RESULT:    -6.412      4.773      7.125
REMARK INTER + INTRA:          -8.784
REMARK INTER:                  -8.306
REMARK INTRA:                  -0.479
REMARK UNBOUND:                -0.498
REMARK  Name = cpd90.pdb
REMARK  5 active torsions:
REMARK  status: ('A' for Active; 'I' for Inactive)
REMARK    1  A    between atoms: C_2  and  C_4
REMARK    2  A    between atoms: C_4  and  C_5
REMARK    3  A    between atoms: C_5  and  C_6
REMARK    4  A    between atoms: N_8  and  C_9
REMARK    5  A    between atoms: C_13  and  C_14
REMARK                            x       y       z     vdW  Elec       q    Type
REMARK                         _______ _______ _______ _____ _____    ______ ____
ROOT
ATOM      1  C   UNL A   1      39.558 -35.189 -31.863  0.00  0.00    +0.218 C 
ATOM      2  O   UNL A   1      39.518 -33.972 -31.750  0.00  0.00    -0.275 OA
ATOM      3  N   UNL A   1      38.645 -36.106 -31.359  0.00  0.00    -0.285 N 
ATOM      4  H   UNL A   1      38.848 -37.050 -31.549  0.00  0.00    +0.000 HD
ENDROOT
BRANCH   3   5
ATOM      5  C   UNL A   1      37.469 -35.880 -30.613  0.00  0.00    +0.034 A 
ATOM      6  C   UNL A   1      37.297 -36.695 -29.484  0.00  0.00    -0.040 A 
ATOM      7  C   UNL A   1      36.174 -36.566 -28.670  0.00  0.00    -0.059 A 
ATOM      8  C   UNL A   1      35.207 -35.615 -28.981  0.00  0.00    -0.048 A 
ATOM      9  C   UNL A   1      35.345 -34.781 -30.104  0.00  0.00    +0.065 A 
ATOM     10  C   UNL A   1      36.493 -34.927 -30.918  0.00  0.00    -0.026 A 
BRANCH   9  11
ATOM     11  C   UNL A   1      34.267 -33.755 -30.412  0.00  0.00    +0.387 C 
ATOM     12  O   UNL A   1      34.118 -33.388 -31.618  0.00  0.00    -0.241 OA
ATOM     13  O   UNL A   1      33.579 -33.330 -29.425  0.00  0.00    -0.241 OA
ENDBRANCH   9  11
ENDBRANCH   3   5
BRANCH   1  14
ATOM     14  C   UNL A   1      40.668 -35.924 -32.607  0.00  0.00    +0.034 C 
BRANCH  14  15
ATOM     15  C   UNL A   1      41.298 -37.076 -31.840  0.00  0.00    +0.057 C 
BRANCH  15  17
ATOM     16  O   UNL A   1      42.871 -35.922 -30.473  0.00  0.00    -0.246 OA
ATOM     17  C   UNL A   1      41.828 -36.637 -30.474  0.00  0.00    +0.356 C 
ATOM     18  O   UNL A   1      41.151 -37.048 -29.488  0.00  0.00    -0.246 OA
ENDBRANCH  15  17
ENDBRANCH  14  15
ENDBRANCH   1  14
TORSDOF 5
ENDMDL
MODEL 3
REMARK VINA RESULT:    -6.377      3.982      5.275
REMARK INTER + INTRA:          -8.739
REMARK INTER:                  -8.561
REMARK INTRA:                  -0.178
REMARK UNBOUND:                -0.498
REMARK  Name = cpd90.pdb
REMARK  5 active torsions:
REMARK  status: ('A' for Active; 'I' for Inactive)
REMARK    1  A    between atoms: C_2  and  C_4
REMARK    2  A    between atoms: C_4  and  C_5
REMARK    3  A    between atoms: C_5  and  C_6
REMARK    4  A    between atoms: N_8  and  C_9
REMARK    5  A    between atoms: C_13  and  C_14
REMARK                            x       y       z     vdW  Elec       q    Type
REMARK                         _______ _______ _______ _____ _____    ______ ____
ROOT
ATOM      1  C   UNL A   1      41.205 -37.662 -29.987  0.00  0.00    +0.218 C 
ATOM      2  O   UNL A   1      41.184 -37.922 -28.791  0.00  0.00    -0.275 OA
ATOM      3  N   UNL A   1      40.157 -37.172 -30.754  0.00  0.00    -0.285 N 
ATOM      4  H   UNL A   1      40.364 -37.026 -31.705  0.00  0.00    +0.000 HD
ENDROOT
BRANCH   3   5
ATOM      5  C   UNL A   1      38.839 -36.852 -30.368  0.00  0.00    +0.034 A 
ATOM      6  C   UNL A   1      38.229 -35.810 -31.085  0.00  0.00    -0.040 A 
ATOM      7  C   UNL A   1      36.929 -35.404 -30.794  0.00  0.00    -0.059 A 
ATOM      8  C   UNL A   1      36.223 -36.039 -29.777  0.00  0.00    -0.048 A 
ATOM      9  C   UNL A   1      36.801 -37.086 -29.038  0.00  0.00    +0.065 A 
ATOM     10  C   UNL A   1      38.122 -37.485 -29.348  0.00  0.00    -0.026 A 
BRANCH   9  11
ATOM     11  C   UNL A   1      35.998 -37.755 -27.933  0.00  0.00    +0.387 C 
ATOM     12  O   UNL A   1      36.419 -37.647 -26.741  0.00  0.00    -0.241 OA
ATOM     13  O   UNL A   1      34.946 -38.384 -28.287  0.00  0.00    -0.241 OA
ENDBRANCH   9  11
ENDBRANCH   3   5
BRANCH   1  14
ATOM     14  C   UNL A   1      42.441 -37.844 -30.860  0.00  0.00    +0.034 C 
BRANCH  14  15
ATOM     15  C   UNL A   1      43.120 -39.199 -30.733  0.00  0.00    +0.057 C 
BRANCH  15  17
ATOM     16  O   UNL A   1      44.112 -40.001 -28.721  0.00  0.00    -0.246 OA
ATOM     17  C   UNL A   1      44.233 -39.190 -29.683  0.00  0.00    +0.356 C 
ATOM     18  O   UNL A   1      45.160 -38.358 -29.904  0.00  0.00    -0.246 OA
ENDBRANCH  15  17
ENDBRANCH  14  15
ENDBRANCH   1  14
TORSDOF 5
ENDMDL
MODEL 4
REMARK VINA RESULT:    -6.203      5.393      9.385
REMARK INTER + INTRA:          -8.515
REMARK INTER:                  -7.937
REMARK INTRA:                  -0.577
REMARK UNBOUND:                -0.498
REMARK  Name = cpd90.pdb
REMARK  5 active torsions:
REMARK  status: ('A' for Active; 'I' for Inactive)
REMARK    1  A    between atoms: C_2  and  C_4
REMARK    2  A    between atoms: C_4  and  C_5
REMARK    3  A    between atoms: C_5  and  C_6
REMARK    4  A    between atoms: N_8  and  C_9
REMARK    5  A    between atoms: C_13  and  C_14
REMARK                            x       y       z     vdW  Elec       q    Type
REMARK                         _______ _______ _______ _____ _____    ______ ____
ROOT
ATOM      1  C   UNL A   1      34.729 -35.932 -30.692  0.00  0.00    +0.218 C 
ATOM      2  O   UNL A   1      34.606 -36.837 -31.505  0.00  0.00    -0.275 OA
ATOM      3  N   UNL A   1      35.882 -35.577 -30.004  0.00  0.00    -0.285 N 
ATOM      4  H   UNL A   1      35.786 -34.818 -29.384  0.00  0.00    +0.000 HD
ENDROOT
BRANCH   3   5
ATOM      5  C   UNL A   1      37.171 -36.147 -30.063  0.00  0.00    +0.034 A 
ATOM      6  C   UNL A   1      37.470 -37.084 -29.063  0.00  0.00    -0.040 A 
ATOM      7  C   UNL A   1      38.713 -37.713 -29.018  0.00  0.00    -0.059 A 
ATOM      8  C   UNL A   1      39.671 -37.408 -29.978  0.00  0.00    -0.048 A 
ATOM      9  C   UNL A   1      39.408 -36.473 -30.995  0.00  0.00    +0.065 A 
ATOM     10  C   UNL A   1      38.140 -35.846 -31.024  0.00  0.00    -0.026 A 
BRANCH   9  11
ATOM     11  C   UNL A   1      40.482 -36.165 -32.025  0.00  0.00    +0.387 C 
ATOM     12  O   UNL A   1      41.533 -36.877 -32.022  0.00  0.00    -0.241 OA
ATOM     13  O   UNL A   1      40.249 -35.202 -32.829  0.00  0.00    -0.241 OA
ENDBRANCH   9  11
ENDBRANCH   3   5
BRANCH   1  14
ATOM     14  C   UNL A   1      33.584 -35.009 -30.287  0.00  0.00    +0.034 C 
BRANCH  14  15
ATOM     15  C   UNL A   1      33.348 -33.835 -31.223  0.00  0.00    +0.057 C 
BRANCH  15  17
ATOM     16  O   UNL A   1      34.660 -32.004 -32.001  0.00  0.00    -0.246 OA
ATOM     17  C   UNL A   1      34.352 -32.703 -30.994  0.00  0.00    +0.356 C 
ATOM     18  O   UNL A   1      34.764 -32.597 -29.802  0.00  0.00    -0.246 OA
ENDBRANCH  15  17
ENDBRANCH  14  15
ENDBRANCH   1  14
TORSDOF 5
ENDMDL
MODEL 5
REMARK VINA RESULT:    -6.126      5.164      9.158
REMARK INTER + INTRA:          -8.415
REMARK INTER:                  -8.082
REMARK INTRA:                  -0.333
REMARK UNBOUND:                -0.498
REMARK  Name = cpd90.pdb
REMARK  5 active torsions:
REMARK  status: ('A' for Active; 'I' for Inactive)
REMARK    1  A    between atoms: C_2  and  C_4
REMARK    2  A    between atoms: C_4  and  C_5
REMARK    3  A    between atoms: C_5  and  C_6
REMARK    4  A    between atoms: N_8  and  C_9
REMARK    5  A    between atoms: C_13  and  C_14
REMARK                            x       y       z     vdW  Elec       q    Type
REMARK                         _______ _______ _______ _____ _____    ______ ____
ROOT
ATOM      1  C   UNL A   1      36.024 -35.776 -30.360  0.00  0.00    +0.218 C 
ATOM      2  O   UNL A   1      36.180 -35.976 -29.163  0.00  0.00    -0.275 OA
ATOM      3  N   UNL A   1      37.017 -35.659 -31.324  0.00  0.00    -0.285 N 
ATOM      4  H   UNL A   1      36.696 -35.494 -32.240  0.00  0.00    +0.000 HD
ENDROOT
BRANCH   3   5
ATOM      5  C   UNL A   1      38.417 -35.741 -31.180  0.00  0.00    +0.034 A 
ATOM      6  C   UNL A   1      39.144 -34.628 -31.631  0.00  0.00    -0.040 A 
ATOM      7  C   UNL A   1      40.534 -34.594 -31.543  0.00  0.00    -0.059 A 
ATOM      8  C   UNL A   1      41.213 -35.680 -31.000  0.00  0.00    -0.048 A 
ATOM      9  C   UNL A   1      40.520 -36.813 -30.539  0.00  0.00    +0.065 A 
ATOM     10  C   UNL A   1      39.109 -36.828 -30.637  0.00  0.00    -0.026 A 
BRANCH   9  11
ATOM     11  C   UNL A   1      41.298 -37.980 -29.954  0.00  0.00    +0.387 C 
ATOM     12  O   UNL A   1      42.019 -38.670 -30.740  0.00  0.00    -0.241 OA
ATOM     13  O   UNL A   1      41.171 -38.187 -28.702  0.00  0.00    -0.241 OA
ENDBRANCH   9  11
ENDBRANCH   3   5
BRANCH   1  14
ATOM     14  C   UNL A   1      34.654 -35.615 -31.010  0.00  0.00    +0.034 C 
BRANCH  14  15
ATOM     15  C   UNL A   1      33.909 -34.347 -30.626  0.00  0.00    +0.057 C 
BRANCH  15  17
ATOM     16  O   UNL A   1      34.535 -32.207 -31.465  0.00  0.00    -0.246 OA
ATOM     17  C   UNL A   1      33.950 -33.295 -31.735  0.00  0.00    +0.356 C 
ATOM     18  O   UNL A   1      33.387 -33.642 -32.813  0.00  0.00    -0.246 OA
ENDBRANCH  15  17
ENDBRANCH  14  15
ENDBRANCH   1  14
TORSDOF 5
ENDMDL
MODEL 6
REMARK VINA RESULT:    -6.124      6.433     10.511
REMARK INTER + INTRA:          -8.412
REMARK INTER:                  -7.858
REMARK INTRA:                  -0.553
REMARK UNBOUND:                -0.498
REMARK  Name = cpd90.pdb
REMARK  5 active torsions:
REMARK  status: ('A' for Active; 'I' for Inactive)
REMARK    1  A    between atoms: C_2  and  C_4
REMARK    2  A    between atoms: C_4  and  C_5
REMARK    3  A    between atoms: C_5  and  C_6
REMARK    4  A    between atoms: N_8  and  C_9
REMARK    5  A    between atoms: C_13  and  C_14
REMARK                            x       y       z     vdW  Elec       q    Type
REMARK                         _______ _______ _______ _____ _____    ______ ____
ROOT
ATOM      1  C   UNL A   1      34.446 -35.354 -32.172  0.00  0.00    +0.218 C 
ATOM      2  O   UNL A   1      34.119 -36.521 -32.344  0.00  0.00    -0.275 OA
ATOM      3  N   UNL A   1      35.639 -34.892 -31.635  0.00  0.00    -0.285 N 
ATOM      4  H   UNL A   1      35.721 -33.913 -31.572  0.00  0.00    +0.000 HD
ENDROOT
BRANCH   3   5
ATOM      5  C   UNL A   1      36.752 -35.621 -31.166  0.00  0.00    +0.034 A 
ATOM      6  C   UNL A   1      37.914 -35.531 -31.949  0.00  0.00    -0.040 A 
ATOM      7  C   UNL A   1      39.077 -36.208 -31.588  0.00  0.00    -0.059 A 
ATOM      8  C   UNL A   1      39.087 -36.986 -30.435  0.00  0.00    -0.048 A 
ATOM      9  C   UNL A   1      37.943 -37.100 -29.626  0.00  0.00    +0.065 A 
ATOM     10  C   UNL A   1      36.772 -36.405 -30.009  0.00  0.00    -0.026 A 
BRANCH   9  11
ATOM     11  C   UNL A   1      37.994 -37.962 -28.374  0.00  0.00    +0.387 C 
ATOM     12  O   UNL A   1      38.732 -38.994 -28.391  0.00  0.00    -0.241 OA
ATOM     13  O   UNL A   1      37.284 -37.581 -27.385  0.00  0.00    -0.241 OA
ENDBRANCH   9  11
ENDBRANCH   3   5
BRANCH   1  14
ATOM     14  C   UNL A   1      33.553 -34.173 -32.536  0.00  0.00    +0.034 C 
BRANCH  14  15
ATOM     15  C   UNL A   1      33.024 -33.382 -31.350  0.00  0.00    +0.057 C 
BRANCH  15  17
ATOM     16  O   UNL A   1      32.717 -31.082 -30.813  0.00  0.00    -0.246 OA
ATOM     17  C   UNL A   1      33.471 -31.920 -31.386  0.00  0.00    +0.356 C 
ATOM     18  O   UNL A   1      34.562 -31.716 -31.993  0.00  0.00    -0.246 OA
ENDBRANCH  15  17
ENDBRANCH  14  15
ENDBRANCH   1  14
TORSDOF 5
ENDMDL
MODEL 7
REMARK VINA RESULT:    -5.988      4.341      6.789
REMARK INTER + INTRA:          -8.237
REMARK INTER:                  -7.848
REMARK INTRA:                  -0.389
REMARK UNBOUND:                -0.498
REMARK  Name = cpd90.pdb
REMARK  5 active torsions:
REMARK  status: ('A' for Active; 'I' for Inactive)
REMARK    1  A    between atoms: C_2  and  C_4
REMARK    2  A    between atoms: C_4  and  C_5
REMARK    3  A    between atoms: C_5  and  C_6
REMARK    4  A    between atoms: N_8  and  C_9
REMARK    5  A    between atoms: C_13  and  C_14
REMARK                            x       y       z     vdW  Elec       q    Type
REMARK                         _______ _______ _______ _____ _____    ______ ____
ROOT
ATOM      1  C   UNL A   1      39.322 -35.964 -32.201  0.00  0.00    +0.218 C 
ATOM      2  O   UNL A   1      38.442 -35.382 -32.821  0.00  0.00    -0.275 OA
ATOM      3  N   UNL A   1      39.166 -36.746 -31.065  0.00  0.00    -0.285 N 
ATOM      4  H   UNL A   1      39.995 -37.133 -30.703  0.00  0.00    +0.000 HD
ENDROOT
BRANCH   3   5
ATOM      5  C   UNL A   1      37.991 -37.066 -30.353  0.00  0.00    +0.034 A 
ATOM      6  C   UNL A   1      37.145 -35.987 -30.055  0.00  0.00    -0.040 A 
ATOM      7  C   UNL A   1      35.955 -36.179 -29.355  0.00  0.00    -0.059 A 
ATOM      8  C   UNL A   1      35.600 -37.460 -28.945  0.00  0.00    -0.048 A 
ATOM      9  C   UNL A   1      36.423 -38.565 -29.225  0.00  0.00    +0.065 A 
ATOM     10  C   UNL A   1      37.626 -38.350 -29.937  0.00  0.00    -0.026 A 
BRANCH   9  11
ATOM     11  C   UNL A   1      36.001 -39.949 -28.759  0.00  0.00    +0.387 C 
ATOM     12  O   UNL A   1      35.259 -40.032 -27.732  0.00  0.00    -0.241 OA
ATOM     13  O   UNL A   1      36.426 -40.940 -29.440  0.00  0.00    -0.241 OA
ENDBRANCH   9  11
ENDBRANCH   3   5
BRANCH   1  14
ATOM     14  C   UNL A   1      40.794 -35.919 -32.597  0.00  0.00    +0.034 C 
BRANCH  14  15
ATOM     15  C   UNL A   1      41.628 -37.083 -32.085  0.00  0.00    +0.057 C 
BRANCH  15  17
ATOM     16  O   UNL A   1      43.869 -36.975 -31.282  0.00  0.00    -0.246 OA
ATOM     17  C   UNL A   1      42.671 -36.637 -31.059  0.00  0.00    +0.356 C 
ATOM     18  O   UNL A   1      42.206 -35.970 -30.090  0.00  0.00    -0.246 OA
ENDBRANCH  15  17
ENDBRANCH  14  15
ENDBRANCH   1  14
TORSDOF 5
ENDMDL
MODEL 8
REMARK VINA RESULT:    -5.774     20.120     21.014
REMARK INTER + INTRA:          -7.960
REMARK INTER:                  -7.367
REMARK INTRA:                  -0.593
REMARK UNBOUND:                -0.498
REMARK  Name = cpd90.pdb
REMARK  5 active torsions:
REMARK  status: ('A' for Active; 'I' for Inactive)
REMARK    1  A    between atoms: C_2  and  C_4
REMARK    2  A    between atoms: C_4  and  C_5
REMARK    3  A    between atoms: C_5  and  C_6
REMARK    4  A    between atoms: N_8  and  C_9
REMARK    5  A    between atoms: C_13  and  C_14
REMARK                            x       y       z     vdW  Elec       q    Type
REMARK                         _______ _______ _______ _____ _____    ______ ____
ROOT
ATOM      1  C   UNL A   1      47.214 -19.015 -37.598  0.00  0.00    +0.218 C 
ATOM      2  O   UNL A   1      47.282 -18.138 -38.448  0.00  0.00    -0.275 OA
ATOM      3  N   UNL A   1      46.817 -20.332 -37.786  0.00  0.00    -0.285 N 
ATOM      4  H   UNL A   1      46.824 -20.893 -36.977  0.00  0.00    +0.000 HD
ENDROOT
BRANCH   3   5
ATOM      5  C   UNL A   1      46.406 -20.983 -38.968  0.00  0.00    +0.034 A 
ATOM      6  C   UNL A   1      45.085 -20.736 -39.372  0.00  0.00    -0.040 A 
ATOM      7  C   UNL A   1      44.564 -21.323 -40.523  0.00  0.00    -0.059 A 
ATOM      8  C   UNL A   1      45.365 -22.168 -41.283  0.00  0.00    -0.048 A 
ATOM      9  C   UNL A   1      46.693 -22.440 -40.910  0.00  0.00    +0.065 A 
ATOM     10  C   UNL A   1      47.204 -21.833 -39.739  0.00  0.00    -0.026 A 
BRANCH   9  11
ATOM     11  C   UNL A   1      47.537 -23.370 -41.767  0.00  0.00    +0.387 C 
ATOM     12  O   UNL A   1      46.945 -24.077 -42.640  0.00  0.00    -0.241 OA
ATOM     13  O   UNL A   1      48.793 -23.375 -41.546  0.00  0.00    -0.241 OA
ENDBRANCH   9  11
ENDBRANCH   3   5
BRANCH   1  14
ATOM     14  C   UNL A   1      47.571 -18.789 -36.133  0.00  0.00    +0.034 C 
BRANCH  14  15
ATOM     15  C   UNL A   1      47.031 -19.839 -35.174  0.00  0.00    +0.057 C 
BRANCH  15  17
ATOM     16  O   UNL A   1      44.682 -20.148 -35.421  0.00  0.00    -0.246 OA
ATOM     17  C   UNL A   1      45.585 -19.556 -34.763  0.00  0.00    +0.356 C 
ATOM     18  O   UNL A   1      45.459 -18.750 -33.797  0.00  0.00    -0.246 OA
ENDBRANCH  15  17
ENDBRANCH  14  15
ENDBRANCH   1  14
TORSDOF 5
ENDMDL
MODEL 9
REMARK VINA RESULT:    -5.743      4.637      7.000
REMARK INTER + INTRA:          -7.920
REMARK INTER:                  -7.519
REMARK INTRA:                  -0.401
REMARK UNBOUND:                -0.498
REMARK  Name = cpd90.pdb
REMARK  5 active torsions:
REMARK  status: ('A' for Active; 'I' for Inactive)
REMARK    1  A    between atoms: C_2  and  C_4
REMARK    2  A    between atoms: C_4  and  C_5
REMARK    3  A    between atoms: C_5  and  C_6
REMARK    4  A    between atoms: N_8  and  C_9
REMARK    5  A    between atoms: C_13  and  C_14
REMARK                            x       y       z     vdW  Elec       q    Type
REMARK                         _______ _______ _______ _____ _____    ______ ____
ROOT
ATOM      1  C   UNL A   1      36.767 -37.413 -29.418  0.00  0.00    +0.218 C 
ATOM      2  O   UNL A   1      37.235 -37.096 -28.333  0.00  0.00    -0.275 OA
ATOM      3  N   UNL A   1      37.300 -37.139 -30.670  0.00  0.00    -0.285 N 
ATOM      4  H   UNL A   1      36.777 -37.475 -31.433  0.00  0.00    +0.000 HD
ENDROOT
BRANCH   3   5
ATOM      5  C   UNL A   1      38.483 -36.448 -31.008  0.00  0.00    +0.034 A 
ATOM      6  C   UNL A   1      38.307 -35.158 -31.532  0.00  0.00    -0.040 A 
ATOM      7  C   UNL A   1      39.401 -34.379 -31.903  0.00  0.00    -0.059 A 
ATOM      8  C   UNL A   1      40.687 -34.888 -31.754  0.00  0.00    -0.048 A 
ATOM      9  C   UNL A   1      40.902 -36.176 -31.233  0.00  0.00    +0.065 A 
ATOM     10  C   UNL A   1      39.779 -36.951 -30.862  0.00  0.00    -0.026 A 
BRANCH   9  11
ATOM     11  C   UNL A   1      42.323 -36.697 -31.087  0.00  0.00    +0.387 C 
ATOM     12  O   UNL A   1      42.586 -37.850 -31.548  0.00  0.00    -0.241 OA
ATOM     13  O   UNL A   1      43.159 -35.930 -30.505  0.00  0.00    -0.241 OA
ENDBRANCH   9  11
ENDBRANCH   3   5
BRANCH   1  14
ATOM     14  C   UNL A   1      35.468 -38.195 -29.572  0.00  0.00    +0.034 C 
BRANCH  14  15
ATOM     15  C   UNL A   1      35.186 -39.192 -28.459  0.00  0.00    +0.057 C 
BRANCH  15  17
ATOM     16  O   UNL A   1      35.733 -41.424 -27.832  0.00  0.00    -0.246 OA
ATOM     17  C   UNL A   1      35.743 -40.581 -28.774  0.00  0.00    +0.356 C 
ATOM     18  O   UNL A   1      36.156 -40.727 -29.961  0.00  0.00    -0.246 OA
ENDBRANCH  15  17
ENDBRANCH  14  15
ENDBRANCH   1  14
TORSDOF 5
ENDMDL
MODEL 10
REMARK VINA RESULT:    -5.668      6.601     10.628
REMARK INTER + INTRA:          -7.823
REMARK INTER:                  -7.450
REMARK INTRA:                  -0.373
REMARK UNBOUND:                -0.498
REMARK  Name = cpd90.pdb
REMARK  5 active torsions:
REMARK  status: ('A' for Active; 'I' for Inactive)
REMARK    1  A    between atoms: C_2  and  C_4
REMARK    2  A    between atoms: C_4  and  C_5
REMARK    3  A    between atoms: C_5  and  C_6
REMARK    4  A    between atoms: N_8  and  C_9
REMARK    5  A    between atoms: C_13  and  C_14
REMARK                            x       y       z     vdW  Elec       q    Type
REMARK                         _______ _______ _______ _____ _____    ______ ____
ROOT
ATOM      1  C   UNL A   1      34.252 -34.711 -31.564  0.00  0.00    +0.218 C 
ATOM      2  O   UNL A   1      33.848 -35.832 -31.841  0.00  0.00    -0.275 OA
ATOM      3  N   UNL A   1      35.515 -34.369 -31.099  0.00  0.00    -0.285 N 
ATOM      4  H   UNL A   1      35.655 -33.410 -30.928  0.00  0.00    +0.000 HD
ENDROOT
BRANCH   3   5
ATOM      5  C   UNL A   1      36.626 -35.196 -30.836  0.00  0.00    +0.034 A 
ATOM      6  C   UNL A   1      36.518 -36.024 -29.708  0.00  0.00    -0.040 A 
ATOM      7  C   UNL A   1      37.552 -36.885 -29.347  0.00  0.00    -0.059 A 
ATOM      8  C   UNL A   1      38.710 -36.925 -30.116  0.00  0.00    -0.048 A 
ATOM      9  C   UNL A   1      38.856 -36.110 -31.252  0.00  0.00    +0.065 A 
ATOM     10  C   UNL A   1      37.794 -35.243 -31.603  0.00  0.00    -0.026 A 
BRANCH   9  11
ATOM     11  C   UNL A   1      40.138 -36.182 -32.065  0.00  0.00    +0.387 C 
ATOM     12  O   UNL A   1      40.372 -35.248 -32.893  0.00  0.00    -0.241 OA
ATOM     13  O   UNL A   1      40.897 -37.185 -31.856  0.00  0.00    -0.241 OA
ENDBRANCH   9  11
ENDBRANCH   3   5
BRANCH   1  14
ATOM     14  C   UNL A   1      33.394 -33.457 -31.691  0.00  0.00    +0.034 C 
BRANCH  14  15
ATOM     15  C   UNL A   1      33.558 -32.452 -30.562  0.00  0.00    +0.057 C 
BRANCH  15  17
ATOM     16  O   UNL A   1      32.169 -30.586 -30.051  0.00  0.00    -0.246 OA
ATOM     17  C   UNL A   1      32.222 -31.846 -30.129  0.00  0.00    +0.356 C 
ATOM     18  O   UNL A   1      31.310 -32.692 -29.897  0.00  0.00    -0.246 OA
ENDBRANCH  15  17
ENDBRANCH  14  15
ENDBRANCH   1  14
TORSDOF 5
ENDMDL
MODEL 11
REMARK VINA RESULT:    -5.609      4.915      6.683
REMARK INTER + INTRA:          -7.747
REMARK INTER:                  -7.866
REMARK INTRA:                   0.119
REMARK UNBOUND:                -0.498
REMARK  Name = cpd90.pdb
REMARK  5 active torsions:
REMARK  status: ('A' for Active; 'I' for Inactive)
REMARK    1  A    between atoms: C_2  and  C_4
REMARK    2  A    between atoms: C_4  and  C_5
REMARK    3  A    between atoms: C_5  and  C_6
REMARK    4  A    between atoms: N_8  and  C_9
REMARK    5  A    between atoms: C_13  and  C_14
REMARK                            x       y       z     vdW  Elec       q    Type
REMARK                         _______ _______ _______ _____ _____    ______ ____
ROOT
ATOM      1  C   UNL A   1      39.863 -36.904 -30.369  0.00  0.00    +0.218 C 
ATOM      2  O   UNL A   1      39.998 -35.905 -31.063  0.00  0.00    -0.275 OA
ATOM      3  N   UNL A   1      38.722 -37.296 -29.682  0.00  0.00    -0.285 N 
ATOM      4  H   UNL A   1      38.805 -38.133 -29.172  0.00  0.00    +0.000 HD
ENDROOT
BRANCH   3   5
ATOM      5  C   UNL A   1      37.461 -36.668 -29.609  0.00  0.00    +0.034 A 
ATOM      6  C   UNL A   1      37.229 -35.653 -30.551  0.00  0.00    -0.040 A 
ATOM      7  C   UNL A   1      36.022 -34.959 -30.576  0.00  0.00    -0.059 A 
ATOM      8  C   UNL A   1      35.030 -35.276 -29.654  0.00  0.00    -0.048 A 
ATOM      9  C   UNL A   1      35.225 -36.286 -28.696  0.00  0.00    +0.065 A 
ATOM     10  C   UNL A   1      36.458 -36.979 -28.686  0.00  0.00    -0.026 A 
BRANCH   9  11
ATOM     11  C   UNL A   1      34.118 -36.602 -27.704  0.00  0.00    +0.387 C 
ATOM     12  O   UNL A   1      34.102 -37.756 -27.175  0.00  0.00    -0.241 OA
ATOM     13  O   UNL A   1      33.273 -35.675 -27.471  0.00  0.00    -0.241 OA
ENDBRANCH   9  11
ENDBRANCH   3   5
BRANCH   1  14
ATOM     14  C   UNL A   1      40.976 -37.920 -30.141  0.00  0.00    +0.034 C 
BRANCH  14  15
ATOM     15  C   UNL A   1      42.050 -37.945 -31.217  0.00  0.00    +0.057 C 
BRANCH  15  17
ATOM     16  O   UNL A   1      43.365 -36.038 -30.657  0.00  0.00    -0.246 OA
ATOM     17  C   UNL A   1      43.354 -37.299 -30.744  0.00  0.00    +0.356 C 
ATOM     18  O   UNL A   1      44.286 -38.117 -30.491  0.00  0.00    -0.246 OA
ENDBRANCH  15  17
ENDBRANCH  14  15
ENDBRANCH   1  14
TORSDOF 5
ENDMDL
MODEL 12
REMARK VINA RESULT:    -5.606      4.893      8.075
REMARK INTER + INTRA:          -7.743
REMARK INTER:                  -7.326
REMARK INTRA:                  -0.417
REMARK UNBOUND:                -0.498
REMARK  Name = cpd90.pdb
REMARK  5 active torsions:
REMARK  status: ('A' for Active; 'I' for Inactive)
REMARK    1  A    between atoms: C_2  and  C_4
REMARK    2  A    between atoms: C_4  and  C_5
REMARK    3  A    between atoms: C_5  and  C_6
REMARK    4  A    between atoms: N_8  and  C_9
REMARK    5  A    between atoms: C_13  and  C_14
REMARK                            x       y       z     vdW  Elec       q    Type
REMARK                         _______ _______ _______ _____ _____    ______ ____
ROOT
ATOM      1  C   UNL A   1      36.234 -35.795 -30.142  0.00  0.00    +0.218 C 
ATOM      2  O   UNL A   1      36.631 -34.821 -30.766  0.00  0.00    -0.275 OA
ATOM      3  N   UNL A   1      36.988 -36.880 -29.717  0.00  0.00    -0.285 N 
ATOM      4  H   UNL A   1      36.490 -37.573 -29.227  0.00  0.00    +0.000 HD
ENDROOT
BRANCH   3   5
ATOM      5  C   UNL A   1      38.366 -37.133 -29.886  0.00  0.00    +0.034 A 
ATOM      6  C   UNL A   1      38.976 -37.888 -28.872  0.00  0.00    -0.040 A 
ATOM      7  C   UNL A   1      40.332 -38.202 -28.928  0.00  0.00    -0.059 A 
ATOM      8  C   UNL A   1      41.094 -37.759 -30.004  0.00  0.00    -0.048 A 
ATOM      9  C   UNL A   1      40.518 -36.999 -31.037  0.00  0.00    +0.065 A 
ATOM     10  C   UNL A   1      39.140 -36.692 -30.963  0.00  0.00    -0.026 A 
BRANCH   9  11
ATOM     11  C   UNL A   1      41.385 -36.532 -32.196  0.00  0.00    +0.387 C 
ATOM     12  O   UNL A   1      40.934 -35.613 -32.945  0.00  0.00    -0.241 OA
ATOM     13  O   UNL A   1      42.517 -37.103 -32.333  0.00  0.00    -0.241 OA
ENDBRANCH   9  11
ENDBRANCH   3   5
BRANCH   1  14
ATOM     14  C   UNL A   1      34.782 -35.978 -29.713  0.00  0.00    +0.034 C 
BRANCH  14  15
ATOM     15  C   UNL A   1      34.574 -36.144 -28.216  0.00  0.00    +0.057 C 
BRANCH  15  17
ATOM     16  O   UNL A   1      34.880 -38.506 -28.169  0.00  0.00    -0.246 OA
ATOM     17  C   UNL A   1      34.110 -37.555 -27.851  0.00  0.00    +0.356 C 
ATOM     18  O   UNL A   1      32.992 -37.607 -27.262  0.00  0.00    -0.246 OA
ENDBRANCH  15  17
ENDBRANCH  14  15
ENDBRANCH   1  14
TORSDOF 5
ENDMDL
MODEL 13
REMARK VINA RESULT:    -5.586      4.746      8.449
REMARK INTER + INTRA:          -7.717
REMARK INTER:                  -7.250
REMARK INTRA:                  -0.467
REMARK UNBOUND:                -0.498
REMARK  Name = cpd90.pdb
REMARK  5 active torsions:
REMARK  status: ('A' for Active; 'I' for Inactive)
REMARK    1  A    between atoms: C_2  and  C_4
REMARK    2  A    between atoms: C_4  and  C_5
REMARK    3  A    between atoms: C_5  and  C_6
REMARK    4  A    between atoms: N_8  and  C_9
REMARK    5  A    between atoms: C_13  and  C_14
REMARK                            x       y       z     vdW  Elec       q    Type
REMARK                         _______ _______ _______ _____ _____    ______ ____
ROOT
ATOM      1  C   UNL A   1      35.858 -37.691 -30.444  0.00  0.00    +0.218 C 
ATOM      2  O   UNL A   1      35.978 -38.822 -30.894  0.00  0.00    -0.275 OA
ATOM      3  N   UNL A   1      36.878 -36.836 -30.048  0.00  0.00    -0.285 N 
ATOM      4  H   UNL A   1      36.585 -35.961 -29.707  0.00  0.00    +0.000 HD
ENDROOT
BRANCH   3   5
ATOM      5  C   UNL A   1      38.273 -37.041 -30.064  0.00  0.00    +0.034 A 
ATOM      6  C   UNL A   1      38.784 -37.843 -29.032  0.00  0.00    -0.040 A 
ATOM      7  C   UNL A   1      40.147 -38.115 -28.941  0.00  0.00    -0.059 A 
ATOM      8  C   UNL A   1      41.017 -37.584 -29.889  0.00  0.00    -0.048 A 
ATOM      9  C   UNL A   1      40.542 -36.776 -30.937  0.00  0.00    +0.065 A 
ATOM     10  C   UNL A   1      39.154 -36.512 -31.012  0.00  0.00    -0.026 A 
BRANCH   9  11
ATOM     11  C   UNL A   1      41.524 -36.213 -31.952  0.00  0.00    +0.387 C 
ATOM     12  O   UNL A   1      41.067 -35.472 -32.876  0.00  0.00    -0.241 OA
ATOM     13  O   UNL A   1      42.750 -36.529 -31.802  0.00  0.00    -0.241 OA
ENDBRANCH   9  11
ENDBRANCH   3   5
BRANCH   1  14
ATOM     14  C   UNL A   1      34.508 -37.012 -30.239  0.00  0.00    +0.034 C 
BRANCH  14  15
ATOM     15  C   UNL A   1      34.090 -36.069 -31.356  0.00  0.00    +0.057 C 
BRANCH  15  17
ATOM     16  O   UNL A   1      34.312 -34.393 -29.678  0.00  0.00    -0.246 OA
ATOM     17  C   UNL A   1      34.022 -34.614 -30.889  0.00  0.00    +0.356 C 
ATOM     18  O   UNL A   1      33.680 -33.788 -31.783  0.00  0.00    -0.246 OA
ENDBRANCH  15  17
ENDBRANCH  14  15
ENDBRANCH   1  14
TORSDOF 5
ENDMDL
MODEL 14
REMARK VINA RESULT:    -5.487      5.939      8.207
REMARK INTER + INTRA:          -7.589
REMARK INTER:                  -7.380
REMARK INTRA:                  -0.209
REMARK UNBOUND:                -0.498
REMARK  Name = cpd90.pdb
REMARK  5 active torsions:
REMARK  status: ('A' for Active; 'I' for Inactive)
REMARK    1  A    between atoms: C_2  and  C_4
REMARK    2  A    between atoms: C_4  and  C_5
REMARK    3  A    between atoms: C_5  and  C_6
REMARK    4  A    between atoms: N_8  and  C_9
REMARK    5  A    between atoms: C_13  and  C_14
REMARK                            x       y       z     vdW  Elec       q    Type
REMARK                         _______ _______ _______ _____ _____    ______ ____
ROOT
ATOM      1  C   UNL A   1      38.333 -35.781 -31.173  0.00  0.00    +0.218 C 
ATOM      2  O   UNL A   1      38.329 -36.475 -30.165  0.00  0.00    -0.275 OA
ATOM      3  N   UNL A   1      37.391 -34.828 -31.535  0.00  0.00    -0.285 N 
ATOM      4  H   UNL A   1      37.563 -34.370 -32.389  0.00  0.00    +0.000 HD
ENDROOT
BRANCH   3   5
ATOM      5  C   UNL A   1      36.224 -34.420 -30.856  0.00  0.00    +0.034 A 
ATOM      6  C   UNL A   1      35.829 -33.090 -31.066  0.00  0.00    -0.040 A 
ATOM      7  C   UNL A   1      34.693 -32.572 -30.448  0.00  0.00    -0.059 A 
ATOM      8  C   UNL A   1      33.937 -33.386 -29.610  0.00  0.00    -0.048 A 
ATOM      9  C   UNL A   1      34.302 -34.723 -29.375  0.00  0.00    +0.065 A 
ATOM     10  C   UNL A   1      35.458 -35.230 -30.012  0.00  0.00    -0.026 A 
BRANCH   9  11
ATOM     11  C   UNL A   1      33.451 -35.580 -28.451  0.00  0.00    +0.387 C 
ATOM     12  O   UNL A   1      32.490 -35.022 -27.838  0.00  0.00    -0.241 OA
ATOM     13  O   UNL A   1      33.767 -36.812 -28.356  0.00  0.00    -0.241 OA
ENDBRANCH   9  11
ENDBRANCH   3   5
BRANCH   1  14
ATOM     14  C   UNL A   1      39.422 -35.859 -32.238  0.00  0.00    +0.034 C 
BRANCH  14  15
ATOM     15  C   UNL A   1      40.754 -35.246 -31.835  0.00  0.00    +0.057 C 
BRANCH  15  17
ATOM     16  O   UNL A   1      42.332 -37.019 -32.048  0.00  0.00    -0.246 OA
ATOM     17  C   UNL A   1      41.706 -36.281 -31.233  0.00  0.00    +0.356 C 
ATOM     18  O   UNL A   1      41.759 -36.277 -29.970  0.00  0.00    -0.246 OA
ENDBRANCH  15  17
ENDBRANCH  14  15
ENDBRANCH   1  14
TORSDOF 5
ENDMDL
MODEL 15
REMARK VINA RESULT:    -5.403     20.654     22.134
REMARK INTER + INTRA:          -7.480
REMARK INTER:                  -6.902
REMARK INTRA:                  -0.578
REMARK UNBOUND:                -0.498
REMARK  Name = cpd90.pdb
REMARK  5 active torsions:
REMARK  status: ('A' for Active; 'I' for Inactive)
REMARK    1  A    between atoms: C_2  and  C_4
REMARK    2  A    between atoms: C_4  and  C_5
REMARK    3  A    between atoms: C_5  and  C_6
REMARK    4  A    between atoms: N_8  and  C_9
REMARK    5  A    between atoms: C_13  and  C_14
REMARK                            x       y       z     vdW  Elec       q    Type
REMARK                         _______ _______ _______ _____ _____    ______ ____
ROOT
ATOM      1  C   UNL A   1      46.111 -19.902 -40.518  0.00  0.00    +0.218 C 
ATOM      2  O   UNL A   1      44.934 -19.889 -40.185  0.00  0.00    -0.275 OA
ATOM      3  N   UNL A   1      47.175 -19.309 -39.851  0.00  0.00    -0.285 N 
ATOM      4  H   UNL A   1      48.055 -19.426 -40.275  0.00  0.00    +0.000 HD
ENDROOT
BRANCH   3   5
ATOM      5  C   UNL A   1      47.177 -18.564 -38.653  0.00  0.00    +0.034 A 
ATOM      6  C   UNL A   1      47.015 -17.178 -38.798  0.00  0.00    -0.040 A 
ATOM      7  C   UNL A   1      47.002 -16.337 -37.687  0.00  0.00    -0.059 A 
ATOM      8  C   UNL A   1      47.151 -16.880 -36.415  0.00  0.00    -0.048 A 
ATOM      9  C   UNL A   1      47.315 -18.264 -36.231  0.00  0.00    +0.065 A 
ATOM     10  C   UNL A   1      47.326 -19.101 -37.371  0.00  0.00    -0.026 A 
BRANCH   9  11
ATOM     11  C   UNL A   1      47.477 -18.818 -34.825  0.00  0.00    +0.387 C 
ATOM     12  O   UNL A   1      47.717 -20.058 -34.696  0.00  0.00    -0.241 OA
ATOM     13  O   UNL A   1      47.360 -17.989 -33.862  0.00  0.00    -0.241 OA
ENDBRANCH   9  11
ENDBRANCH   3   5
BRANCH   1  14
ATOM     14  C   UNL A   1      46.618 -20.604 -41.773  0.00  0.00    +0.034 C 
BRANCH  14  15
ATOM     15  C   UNL A   1      46.589 -22.123 -41.712  0.00  0.00    +0.057 C 
BRANCH  15  17
ATOM     16  O   UNL A   1      48.673 -22.085 -40.558  0.00  0.00    -0.246 OA
ATOM     17  C   UNL A   1      47.964 -22.714 -41.395  0.00  0.00    +0.356 C 
ATOM     18  O   UNL A   1      48.235 -23.782 -42.016  0.00  0.00    -0.246 OA
ENDBRANCH  15  17
ENDBRANCH  14  15
ENDBRANCH   1  14
TORSDOF 5
ENDMDL
MODEL 16
REMARK VINA RESULT:    -5.258     19.736     21.389
REMARK INTER + INTRA:          -7.294
REMARK INTER:                  -6.646
REMARK INTRA:                  -0.648
REMARK UNBOUND:                -0.498
REMARK  Name = cpd90.pdb
REMARK  5 active torsions:
REMARK  status: ('A' for Active; 'I' for Inactive)
REMARK    1  A    between atoms: C_2  and  C_4
REMARK    2  A    between atoms: C_4  and  C_5
REMARK    3  A    between atoms: C_5  and  C_6
REMARK    4  A    between atoms: N_8  and  C_9
REMARK    5  A    between atoms: C_13  and  C_14
REMARK                            x       y       z     vdW  Elec       q    Type
REMARK                         _______ _______ _______ _____ _____    ______ ____
ROOT
ATOM      1  C   UNL A   1      46.397 -19.684 -40.610  0.00  0.00    +0.218 C 
ATOM      2  O   UNL A   1      45.411 -18.971 -40.735  0.00  0.00    -0.275 OA
ATOM      3  N   UNL A   1      47.092 -19.951 -39.438  0.00  0.00    -0.285 N 
ATOM      4  H   UNL A   1      47.867 -20.550 -39.536  0.00  0.00    +0.000 HD
ENDROOT
BRANCH   3   5
ATOM      5  C   UNL A   1      46.849 -19.489 -38.128  0.00  0.00    +0.034 A 
ATOM      6  C   UNL A   1      47.372 -18.224 -37.820  0.00  0.00    -0.040 A 
ATOM      7  C   UNL A   1      47.198 -17.662 -36.558  0.00  0.00    -0.059 A 
ATOM      8  C   UNL A   1      46.494 -18.366 -35.586  0.00  0.00    -0.048 A 
ATOM      9  C   UNL A   1      45.955 -19.636 -35.857  0.00  0.00    +0.065 A 
ATOM     10  C   UNL A   1      46.143 -20.189 -37.145  0.00  0.00    -0.026 A 
BRANCH   9  11
ATOM     11  C   UNL A   1      45.194 -20.374 -34.768  0.00  0.00    +0.387 C 
ATOM     12  O   UNL A   1      45.863 -20.919 -33.837  0.00  0.00    -0.241 OA
ATOM     13  O   UNL A   1      43.922 -20.395 -34.868  0.00  0.00    -0.241 OA
ENDBRANCH   9  11
ENDBRANCH   3   5
BRANCH   1  14
ATOM     14  C   UNL A   1      47.047 -20.423 -41.774  0.00  0.00    +0.034 C 
BRANCH  14  15
ATOM     15  C   UNL A   1      46.783 -21.921 -41.807  0.00  0.00    +0.057 C 
BRANCH  15  17
ATOM     16  O   UNL A   1      48.242 -23.739 -42.297  0.00  0.00    -0.246 OA
ATOM     17  C   UNL A   1      48.053 -22.736 -41.552  0.00  0.00    +0.356 C 
ATOM     18  O   UNL A   1      48.777 -22.302 -40.609  0.00  0.00    -0.246 OA
ENDBRANCH  15  17
ENDBRANCH  14  15
ENDBRANCH   1  14
TORSDOF 5
ENDMDL
MODEL 17
REMARK VINA RESULT:    -5.207     19.995     20.901
REMARK INTER + INTRA:          -7.227
REMARK INTER:                  -6.735
REMARK INTRA:                  -0.492
REMARK UNBOUND:                -0.498
REMARK  Name = cpd90.pdb
REMARK  5 active torsions:
REMARK  status: ('A' for Active; 'I' for Inactive)
REMARK    1  A    between atoms: C_2  and  C_4
REMARK    2  A    between atoms: C_4  and  C_5
REMARK    3  A    between atoms: C_5  and  C_6
REMARK    4  A    between atoms: N_8  and  C_9
REMARK    5  A    between atoms: C_13  and  C_14
REMARK                            x       y       z     vdW  Elec       q    Type
REMARK                         _______ _______ _______ _____ _____    ______ ____
ROOT
ATOM      1  C   UNL A   1      44.260 -20.023 -37.430  0.00  0.00    +0.218 C 
ATOM      2  O   UNL A   1      43.479 -20.952 -37.273  0.00  0.00    -0.275 OA
ATOM      3  N   UNL A   1      45.040 -19.766 -38.550  0.00  0.00    -0.285 N 
ATOM      4  H   UNL A   1      45.612 -18.968 -38.490  0.00  0.00    +0.000 HD
ENDROOT
BRANCH   3   5
ATOM      5  C   UNL A   1      45.130 -20.484 -39.761  0.00  0.00    +0.034 A 
ATOM      6  C   UNL A   1      44.218 -20.112 -40.760  0.00  0.00    -0.040 A 
ATOM      7  C   UNL A   1      44.210 -20.750 -41.999  0.00  0.00    -0.059 A 
ATOM      8  C   UNL A   1      45.120 -21.772 -42.249  0.00  0.00    -0.048 A 
ATOM      9  C   UNL A   1      46.049 -22.172 -41.273  0.00  0.00    +0.065 A 
ATOM     10  C   UNL A   1      46.041 -21.512 -40.022  0.00  0.00    -0.026 A 
BRANCH   9  11
ATOM     11  C   UNL A   1      47.026 -23.294 -41.584  0.00  0.00    +0.387 C 
ATOM     12  O   UNL A   1      46.750 -24.076 -42.545  0.00  0.00    -0.241 OA
ATOM     13  O   UNL A   1      48.066 -23.372 -40.849  0.00  0.00    -0.241 OA
ENDBRANCH   9  11
ENDBRANCH   3   5
BRANCH   1  14
ATOM     14  C   UNL A   1      44.510 -18.953 -36.373  0.00  0.00    +0.034 C 
BRANCH  14  15
ATOM     15  C   UNL A   1      45.942 -18.875 -35.868  0.00  0.00    +0.057 C 
BRANCH  15  17
ATOM     16  O   UNL A   1      45.272 -20.019 -33.889  0.00  0.00    -0.246 OA
ATOM     17  C   UNL A   1      46.205 -19.858 -34.726  0.00  0.00    +0.356 C 
ATOM     18  O   UNL A   1      47.345 -20.406 -34.754  0.00  0.00    -0.246 OA
ENDBRANCH  15  17
ENDBRANCH  14  15
ENDBRANCH   1  14
TORSDOF 5
ENDMDL
MODEL 18
REMARK VINA RESULT:    -5.080     20.403     21.692
REMARK INTER + INTRA:          -7.063
REMARK INTER:                  -6.486
REMARK INTRA:                  -0.577
REMARK UNBOUND:                -0.498
REMARK  Name = cpd90.pdb
REMARK  5 active torsions:
REMARK  status: ('A' for Active; 'I' for Inactive)
REMARK    1  A    between atoms: C_2  and  C_4
REMARK    2  A    between atoms: C_4  and  C_5
REMARK    3  A    between atoms: C_5  and  C_6
REMARK    4  A    between atoms: N_8  and  C_9
REMARK    5  A    between atoms: C_13  and  C_14
REMARK                            x       y       z     vdW  Elec       q    Type
REMARK                         _______ _______ _______ _____ _____    ______ ____
ROOT
ATOM      1  C   UNL A   1      47.024 -20.727 -40.199  0.00  0.00    +0.218 C 
ATOM      2  O   UNL A   1      47.478 -21.800 -39.827  0.00  0.00    -0.275 OA
ATOM      3  N   UNL A   1      46.512 -19.715 -39.399  0.00  0.00    -0.285 N 
ATOM      4  H   UNL A   1      46.187 -18.920 -39.881  0.00  0.00    +0.000 HD
ENDROOT
BRANCH   3   5
ATOM      5  C   UNL A   1      46.389 -19.659 -37.995  0.00  0.00    +0.034 A 
ATOM      6  C   UNL A   1      45.202 -20.187 -37.464  0.00  0.00    -0.040 A 
ATOM      7  C   UNL A   1      44.967 -20.186 -36.091  0.00  0.00    -0.059 A 
ATOM      8  C   UNL A   1      45.923 -19.654 -35.232  0.00  0.00    -0.048 A 
ATOM      9  C   UNL A   1      47.124 -19.116 -35.726  0.00  0.00    +0.065 A 
ATOM     10  C   UNL A   1      47.345 -19.126 -37.123  0.00  0.00    -0.026 A 
BRANCH   9  11
ATOM     11  C   UNL A   1      48.143 -18.543 -34.755  0.00  0.00    +0.387 C 
ATOM     12  O   UNL A   1      47.712 -17.969 -33.708  0.00  0.00    -0.241 OA
ATOM     13  O   UNL A   1      49.373 -18.680 -35.064  0.00  0.00    -0.241 OA
ENDBRANCH   9  11
ENDBRANCH   3   5
BRANCH   1  14
ATOM     14  C   UNL A   1      46.944 -20.315 -41.665  0.00  0.00    +0.034 C 
BRANCH  14  15
ATOM     15  C   UNL A   1      45.541 -20.016 -42.169  0.00  0.00    +0.057 C 
BRANCH  15  17
ATOM     16  O   UNL A   1      44.646 -22.168 -42.660  0.00  0.00    -0.246 OA
ATOM     17  C   UNL A   1      44.572 -21.166 -41.893  0.00  0.00    +0.356 C 
ATOM     18  O   UNL A   1      43.796 -20.978 -40.911  0.00  0.00    -0.246 OA
ENDBRANCH  15  17
ENDBRANCH  14  15
ENDBRANCH   1  14
TORSDOF 5
ENDMDL
MODEL 19
REMARK VINA RESULT:    -5.025     20.302     22.587
REMARK INTER + INTRA:          -6.992
REMARK INTER:                  -6.391
REMARK INTRA:                  -0.601
REMARK UNBOUND:                -0.498
REMARK  Name = cpd90.pdb
REMARK  5 active torsions:
REMARK  status: ('A' for Active; 'I' for Inactive)
REMARK    1  A    between atoms: C_2  and  C_4
REMARK    2  A    between atoms: C_4  and  C_5
REMARK    3  A    between atoms: C_5  and  C_6
REMARK    4  A    between atoms: N_8  and  C_9
REMARK    5  A    between atoms: C_13  and  C_14
REMARK                            x       y       z     vdW  Elec       q    Type
REMARK                         _______ _______ _______ _____ _____    ______ ____
ROOT
ATOM      1  C   UNL A   1      46.117 -17.471 -39.789  0.00  0.00    +0.218 C 
ATOM      2  O   UNL A   1      46.616 -16.959 -40.782  0.00  0.00    -0.275 OA
ATOM      3  N   UNL A   1      45.615 -18.760 -39.676  0.00  0.00    -0.285 N 
ATOM      4  H   UNL A   1      45.248 -18.993 -38.793  0.00  0.00    +0.000 HD
ENDROOT
BRANCH   3   5
ATOM      5  C   UNL A   1      45.556 -19.785 -40.643  0.00  0.00    +0.034 A 
ATOM      6  C   UNL A   1      44.646 -19.582 -41.692  0.00  0.00    -0.040 A 
ATOM      7  C   UNL A   1      44.497 -20.526 -42.706  0.00  0.00    -0.059 A 
ATOM      8  C   UNL A   1      45.262 -21.688 -42.678  0.00  0.00    -0.048 A 
ATOM      9  C   UNL A   1      46.183 -21.927 -41.643  0.00  0.00    +0.065 A 
ATOM     10  C   UNL A   1      46.319 -20.956 -40.623  0.00  0.00    -0.026 A 
BRANCH   9  11
ATOM     11  C   UNL A   1      46.998 -23.210 -41.647  0.00  0.00    +0.387 C 
ATOM     12  O   UNL A   1      47.897 -23.348 -40.761  0.00  0.00    -0.241 OA
ATOM     13  O   UNL A   1      46.719 -24.066 -42.551  0.00  0.00    -0.241 OA
ENDBRANCH   9  11
ENDBRANCH   3   5
BRANCH   1  14
ATOM     14  C   UNL A   1      45.959 -16.739 -38.461  0.00  0.00    +0.034 C 
BRANCH  14  15
ATOM     15  C   UNL A   1      47.017 -17.069 -37.420  0.00  0.00    +0.057 C 
BRANCH  15  17
ATOM     16  O   UNL A   1      47.030 -17.719 -35.128  0.00  0.00    -0.246 OA
ATOM     17  C   UNL A   1      46.439 -17.850 -36.239  0.00  0.00    +0.356 C 
ATOM     18  O   UNL A   1      45.421 -18.547 -36.515  0.00  0.00    -0.246 OA
ENDBRANCH  15  17
ENDBRANCH  14  15
ENDBRANCH   1  14
TORSDOF 5
ENDMDL
MODEL 20
REMARK VINA RESULT:    -4.992     20.435     21.594
REMARK INTER + INTRA:          -6.949
REMARK INTER:                  -6.323
REMARK INTRA:                  -0.626
REMARK UNBOUND:                -0.498
REMARK  Name = cpd90.pdb
REMARK  5 active torsions:
REMARK  status: ('A' for Active; 'I' for Inactive)
REMARK    1  A    between atoms: C_2  and  C_4
REMARK    2  A    between atoms: C_4  and  C_5
REMARK    3  A    between atoms: C_5  and  C_6
REMARK    4  A    between atoms: N_8  and  C_9
REMARK    5  A    between atoms: C_13  and  C_14
REMARK                            x       y       z     vdW  Elec       q    Type
REMARK                         _______ _______ _______ _____ _____    ______ ____
ROOT
ATOM      1  C   UNL A   1      46.374 -19.337 -40.441  0.00  0.00    +0.218 C 
ATOM      2  O   UNL A   1      46.185 -18.129 -40.419  0.00  0.00    -0.275 OA
ATOM      3  N   UNL A   1      46.435 -20.194 -39.351  0.00  0.00    -0.285 N 
ATOM      4  H   UNL A   1      46.598 -21.140 -39.568  0.00  0.00    +0.000 HD
ENDROOT
BRANCH   3   5
ATOM      5  C   UNL A   1      46.295 -19.906 -37.977  0.00  0.00    +0.034 A 
ATOM      6  C   UNL A   1      45.037 -20.180 -37.421  0.00  0.00    -0.040 A 
ATOM      7  C   UNL A   1      44.778 -19.936 -36.074  0.00  0.00    -0.059 A 
ATOM      8  C   UNL A   1      45.783 -19.411 -35.267  0.00  0.00    -0.048 A 
ATOM      9  C   UNL A   1      47.056 -19.123 -35.789  0.00  0.00    +0.065 A 
ATOM     10  C   UNL A   1      47.299 -19.379 -37.159  0.00  0.00    -0.026 A 
BRANCH   9  11
ATOM     11  C   UNL A   1      48.127 -18.549 -34.876  0.00  0.00    +0.387 C 
ATOM     12  O   UNL A   1      49.341 -18.679 -35.225  0.00  0.00    -0.241 OA
ATOM     13  O   UNL A   1      47.726 -17.970 -33.812  0.00  0.00    -0.241 OA
ENDBRANCH   9  11
ENDBRANCH   3   5
BRANCH   1  14
ATOM     14  C   UNL A   1      46.582 -20.127 -41.729  0.00  0.00    +0.034 C 
BRANCH  14  15
ATOM     15  C   UNL A   1      46.067 -21.558 -41.691  0.00  0.00    +0.057 C 
BRANCH  15  17
ATOM     16  O   UNL A   1      48.055 -22.455 -40.731  0.00  0.00    -0.246 OA
ATOM     17  C   UNL A   1      47.205 -22.579 -41.660  0.00  0.00    +0.356 C 
ATOM     18  O   UNL A   1      47.163 -23.445 -42.581  0.00  0.00    -0.246 OA
ENDBRANCH  15  17
ENDBRANCH  14  15
ENDBRANCH   1  14
TORSDOF 5
ENDMDL
