REMARK  Name = cpd90.pdb
REMARK  5 active torsions:
REMARK  status: ('A' for Active; 'I' for Inactive)
REMARK    1  A    between atoms: C_2  and  C_4
REMARK    2  A    between atoms: C_4  and  C_5
REMARK    3  A    between atoms: C_5  and  C_6
REMARK    4  A    between atoms: N_8  and  C_9
REMARK    5  A    between atoms: C_13  and  C_14
REMARK                            x       y       z     vdW  Elec       q    Type
REMARK                         _______ _______ _______ _____ _____    ______ ____
ROOT
ATOM      1  C   UNL A   1      -2.240   0.790   0.010  0.00  0.00    +0.218 C 
ATOM      2  O   UNL A   1      -2.472  -0.411   0.033  0.00  0.00    -0.275 OA
ATOM      3  N   UNL A   1      -0.993   1.400  -0.007  0.00  0.00    -0.285 N 
ATOM      4  H   UNL A   1      -1.006   2.384  -0.022  0.00  0.00    +0.000 HD
ENDROOT
BRANCH   3   5
ATOM      5  C   UNL A   1       0.290   0.814  -0.006  0.00  0.00    +0.034 A 
ATOM      6  C   UNL A   1       1.370   1.710  -0.021  0.00  0.00    -0.040 A 
ATOM      7  C   UNL A   1       2.685   1.250  -0.023  0.00  0.00    -0.059 A 
ATOM      8  C   UNL A   1       2.932  -0.119  -0.010  0.00  0.00    -0.048 A 
ATOM      9  C   UNL A   1       1.876  -1.047   0.005  0.00  0.00    +0.065 A 
ATOM     10  C   UNL A   1       0.548  -0.560   0.007  0.00  0.00    -0.026 A 
BRANCH   9  11
ATOM     11  C   UNL A   1       2.187  -2.535   0.017  0.00  0.00    +0.387 C 
ATOM     12  O   UNL A   1       1.212  -3.348   0.026  0.00  0.00    -0.241 OA
ATOM     13  O   UNL A   1       3.419  -2.865   0.017  0.00  0.00    -0.241 OA
ENDBRANCH   9  11
ENDBRANCH   3   5
BRANCH   1  14
ATOM     14  C   UNL A   1      -3.333   1.853  -0.004  0.00  0.00    +0.034 C 
BRANCH  14  15
ATOM     15  C   UNL A   1      -4.753   1.310   0.017  0.00  0.00    +0.057 C 
BRANCH  15  17
ATOM     16  O   UNL A   1      -5.361   3.613  -0.025  0.00  0.00    -0.246 OA
ATOM     17  C   UNL A   1      -5.798   2.427   0.001  0.00  0.00    +0.356 C 
ATOM     18  O   UNL A   1      -6.998   2.027   0.015  0.00  0.00    -0.246 OA
ENDBRANCH  15  17
ENDBRANCH  14  15
ENDBRANCH   1  14
TORSDOF 5
