MODEL 1
REMARK VINA RESULT:    -8.401      0.000      0.000
REMARK INTER + INTRA:         -10.188
REMARK INTER:                  -9.874
REMARK INTRA:                  -0.314
REMARK UNBOUND:                -0.314
REMARK  Name = cpd273.pdb
REMARK  7 active torsions:
REMARK  status: ('A' for Active; 'I' for Inactive)
REMARK    1  A    between atoms: C_1  and  C_2
REMARK    2  A    between atoms: C_5  and  N_6
REMARK    3  A    between atoms: C_7  and  O_9
REMARK    4  A    between atoms: O_9  and  C_10
REMARK    5  A    between atoms: C_16  and  C_17
REMARK    6  A    between atoms: N_20  and  C_21
REMARK    7  A    between atoms: N_24  and  C_25
REMARK                            x       y       z     vdW  Elec       q    Type
REMARK                         _______ _______ _______ _____ _____    ______ ____
ROOT
ATOM      1  C   UNL A   1      34.281 -36.869 -28.112  0.00  0.00    +0.134 A 
ATOM      2  C   UNL A   1      32.975 -37.123 -27.655  0.00  0.00    -0.017 A 
ATOM      3  C   UNL A   1      31.917 -36.302 -28.057  0.00  0.00    -0.037 A 
ATOM      4  C   UNL A   1      32.199 -35.215 -28.868  0.00  0.00    +0.032 A 
ATOM      5  C   UNL A   1      33.535 -34.971 -29.306  0.00  0.00    -0.017 A 
ATOM      6  C   UNL A   1      34.586 -35.785 -28.934  0.00  0.00    -0.014 A 
ATOM      7  C   UNL A   1      33.504 -33.786 -30.218  0.00  0.00    +0.002 C 
ATOM      8  C   UNL A   1      33.350 -34.331 -31.654  0.00  0.00    -0.055 C 
ATOM      9  C   UNL A   1      34.406 -32.568 -30.201  0.00  0.00    -0.054 C 
ATOM     10  C   UNL A   1      33.441 -31.457 -30.690  0.00  0.00    -0.048 C 
ATOM     11  N   UNL A   1      32.029 -31.830 -30.207  0.00  0.00    +0.433 N 
ATOM     12  C   UNL A   1      31.055 -31.921 -31.337  0.00  0.00    -0.060 C 
ATOM     13  O   UNL A   1      31.571 -30.884 -29.315  0.00  0.00    -0.289 OA
ATOM     14  C   UNL A   1      32.276 -33.149 -29.539  0.00  0.00    +0.039 C 
ATOM     15  N   UNL A   1      31.277 -34.204 -29.350  0.00  0.00    -0.341 N 
ATOM     16  C   UNL A   1      30.189 -33.892 -28.426  0.00  0.00    -0.001 C 
ENDROOT
BRANCH   1  17
ATOM     17  O   UNL A   1      35.374 -37.671 -27.695  0.00  0.00    -0.411 OA
BRANCH  17  19
ATOM     18  N   UNL A   1      37.452 -37.158 -28.633  0.00  0.00    -0.251 N 
ATOM     19  C   UNL A   1      36.449 -38.092 -28.505  0.00  0.00    +0.410 C 
ATOM     20  O   UNL A   1      36.435 -39.223 -28.976  0.00  0.00    -0.226 OA
ATOM     21  H   UNL A   1      37.365 -36.349 -28.079  0.00  0.00    +0.000 HD
BRANCH  18  26
ATOM     22  C   UNL A   1      42.228 -37.479 -31.779  0.00  0.00    -0.040 C 
ATOM     23  C   UNL A   1      40.973 -37.376 -30.965  0.00  0.00    -0.050 A 
ATOM     24  C   UNL A   1      40.866 -38.032 -29.735  0.00  0.00    -0.057 A 
ATOM     25  C   UNL A   1      39.687 -37.950 -28.989  0.00  0.00    -0.040 A 
ATOM     26  C   UNL A   1      38.588 -37.222 -29.462  0.00  0.00    +0.036 A 
ATOM     27  C   UNL A   1      38.688 -36.585 -30.699  0.00  0.00    -0.040 A 
ATOM     28  C   UNL A   1      39.869 -36.665 -31.447  0.00  0.00    -0.057 A 
ENDBRANCH  18  26
ENDBRANCH  17  19
ENDBRANCH   1  17
TORSDOF 3
ENDMDL
MODEL 2
REMARK VINA RESULT:    -8.077      2.293      3.106
REMARK INTER + INTRA:          -9.808
REMARK INTER:                  -9.408
REMARK INTRA:                  -0.400
REMARK UNBOUND:                -0.314
REMARK  Name = cpd273.pdb
REMARK  7 active torsions:
REMARK  status: ('A' for Active; 'I' for Inactive)
REMARK    1  A    between atoms: C_1  and  C_2
REMARK    2  A    between atoms: C_5  and  N_6
REMARK    3  A    between atoms: C_7  and  O_9
REMARK    4  A    between atoms: O_9  and  C_10
REMARK    5  A    between atoms: C_16  and  C_17
REMARK    6  A    between atoms: N_20  and  C_21
REMARK    7  A    between atoms: N_24  and  C_25
REMARK                            x       y       z     vdW  Elec       q    Type
REMARK                         _______ _______ _______ _____ _____    ______ ____
ROOT
ATOM      1  C   UNL A   1      33.464 -35.015 -31.266  0.00  0.00    +0.134 A 
ATOM      2  C   UNL A   1      32.824 -35.963 -30.447  0.00  0.00    -0.017 A 
ATOM      3  C   UNL A   1      31.616 -35.647 -29.817  0.00  0.00    -0.037 A 
ATOM      4  C   UNL A   1      31.102 -34.372 -29.983  0.00  0.00    +0.032 A 
ATOM      5  C   UNL A   1      31.778 -33.424 -30.807  0.00  0.00    -0.017 A 
ATOM      6  C   UNL A   1      32.961 -33.728 -31.451  0.00  0.00    -0.014 A 
ATOM      7  C   UNL A   1      30.946 -32.182 -30.849  0.00  0.00    +0.002 C 
ATOM      8  C   UNL A   1      30.029 -32.297 -32.085  0.00  0.00    -0.055 C 
ATOM      9  C   UNL A   1      31.394 -30.749 -30.645  0.00  0.00    -0.054 C 
ATOM     10  C   UNL A   1      30.143 -30.121 -29.976  0.00  0.00    -0.048 C 
ATOM     11  N   UNL A   1      29.464 -31.225 -29.148  0.00  0.00    +0.433 N 
ATOM     12  C   UNL A   1      28.037 -31.427 -29.546  0.00  0.00    -0.060 C 
ATOM     13  O   UNL A   1      29.499 -30.900 -27.809  0.00  0.00    -0.289 OA
ATOM     14  C   UNL A   1      30.330 -32.409 -29.454  0.00  0.00    +0.039 C 
ATOM     15  N   UNL A   1      29.907 -33.810 -29.380  0.00  0.00    -0.341 N 
ATOM     16  C   UNL A   1      29.614 -34.317 -28.041  0.00  0.00    -0.001 C 
ENDROOT
BRANCH   1  17
ATOM     17  O   UNL A   1      34.705 -35.303 -31.891  0.00  0.00    -0.411 OA
BRANCH  17  19
ATOM     18  N   UNL A   1      37.010 -35.631 -32.095  0.00  0.00    -0.251 N 
ATOM     19  C   UNL A   1      35.977 -35.206 -31.290  0.00  0.00    +0.410 C 
ATOM     20  O   UNL A   1      36.071 -34.730 -30.165  0.00  0.00    -0.226 OA
ATOM     21  H   UNL A   1      36.771 -35.861 -33.022  0.00  0.00    +0.000 HD
BRANCH  18  26
ATOM     22  C   UNL A   1      42.596 -36.047 -30.901  0.00  0.00    -0.040 C 
ATOM     23  C   UNL A   1      41.133 -35.960 -31.213  0.00  0.00    -0.050 A 
ATOM     24  C   UNL A   1      40.613 -34.852 -31.888  0.00  0.00    -0.057 A 
ATOM     25  C   UNL A   1      39.244 -34.765 -32.159  0.00  0.00    -0.040 A 
ATOM     26  C   UNL A   1      38.367 -35.777 -31.749  0.00  0.00    +0.036 A 
ATOM     27  C   UNL A   1      38.883 -36.872 -31.057  0.00  0.00    -0.040 A 
ATOM     28  C   UNL A   1      40.254 -36.961 -30.786  0.00  0.00    -0.057 A 
ENDBRANCH  18  26
ENDBRANCH  17  19
ENDBRANCH   1  17
TORSDOF 3
ENDMDL
MODEL 3
REMARK VINA RESULT:    -8.065      2.312      3.624
REMARK INTER + INTRA:          -9.793
REMARK INTER:                  -9.545
REMARK INTRA:                  -0.248
REMARK UNBOUND:                -0.314
REMARK  Name = cpd273.pdb
REMARK  7 active torsions:
REMARK  status: ('A' for Active; 'I' for Inactive)
REMARK    1  A    between atoms: C_1  and  C_2
REMARK    2  A    between atoms: C_5  and  N_6
REMARK    3  A    between atoms: C_7  and  O_9
REMARK    4  A    between atoms: O_9  and  C_10
REMARK    5  A    between atoms: C_16  and  C_17
REMARK    6  A    between atoms: N_20  and  C_21
REMARK    7  A    between atoms: N_24  and  C_25
REMARK                            x       y       z     vdW  Elec       q    Type
REMARK                         _______ _______ _______ _____ _____    ______ ____
ROOT
ATOM      1  C   UNL A   1      34.375 -34.280 -31.125  0.00  0.00    +0.134 A 
ATOM      2  C   UNL A   1      34.753 -32.984 -30.733  0.00  0.00    -0.017 A 
ATOM      3  C   UNL A   1      33.790 -32.076 -30.279  0.00  0.00    -0.037 A 
ATOM      4  C   UNL A   1      32.463 -32.474 -30.275  0.00  0.00    +0.032 A 
ATOM      5  C   UNL A   1      32.104 -33.790 -30.692  0.00  0.00    -0.017 A 
ATOM      6  C   UNL A   1      33.046 -34.703 -31.123  0.00  0.00    -0.014 A 
ATOM      7  C   UNL A   1      30.628 -33.939 -30.502  0.00  0.00    +0.002 C 
ATOM      8  C   UNL A   1      30.414 -34.545 -29.099  0.00  0.00    -0.055 C 
ATOM      9  C   UNL A   1      29.610 -34.486 -31.483  0.00  0.00    -0.054 C 
ATOM     10  C   UNL A   1      28.354 -33.644 -31.135  0.00  0.00    -0.048 C 
ATOM     11  N   UNL A   1      28.845 -32.266 -30.660  0.00  0.00    +0.433 N 
ATOM     12  C   UNL A   1      28.341 -31.930 -29.293  0.00  0.00    -0.060 C 
ATOM     13  O   UNL A   1      28.418 -31.287 -31.532  0.00  0.00    -0.289 OA
ATOM     14  C   UNL A   1      30.333 -32.440 -30.708  0.00  0.00    +0.039 C 
ATOM     15  N   UNL A   1      31.301 -31.685 -29.909  0.00  0.00    -0.341 N 
ATOM     16  C   UNL A   1      31.416 -30.263 -30.224  0.00  0.00    -0.001 C 
ENDROOT
BRANCH   1  17
ATOM     17  O   UNL A   1      35.330 -35.207 -31.616  0.00  0.00    -0.411 OA
BRANCH  17  19
ATOM     18  N   UNL A   1      37.648 -35.325 -31.886  0.00  0.00    -0.251 N 
ATOM     19  C   UNL A   1      36.581 -35.494 -31.032  0.00  0.00    +0.410 C 
ATOM     20  O   UNL A   1      36.630 -35.813 -29.850  0.00  0.00    -0.226 OA
ATOM     21  H   UNL A   1      37.442 -34.936 -32.766  0.00  0.00    +0.000 HD
BRANCH  18  26
ATOM     22  C   UNL A   1      43.215 -36.439 -31.128  0.00  0.00    -0.040 C 
ATOM     23  C   UNL A   1      41.754 -36.169 -31.327  0.00  0.00    -0.050 A 
ATOM     24  C   UNL A   1      41.323 -34.966 -31.894  0.00  0.00    -0.057 A 
ATOM     25  C   UNL A   1      39.958 -34.710 -32.059  0.00  0.00    -0.040 A 
ATOM     26  C   UNL A   1      38.999 -35.644 -31.649  0.00  0.00    +0.036 A 
ATOM     27  C   UNL A   1      39.429 -36.835 -31.064  0.00  0.00    -0.040 A 
ATOM     28  C   UNL A   1      40.796 -37.093 -30.899  0.00  0.00    -0.057 A 
ENDBRANCH  18  26
ENDBRANCH  17  19
ENDBRANCH   1  17
TORSDOF 3
ENDMDL
MODEL 4
REMARK VINA RESULT:    -7.902      1.741      2.666
REMARK INTER + INTRA:          -9.602
REMARK INTER:                  -9.436
REMARK INTRA:                  -0.166
REMARK UNBOUND:                -0.314
REMARK  Name = cpd273.pdb
REMARK  7 active torsions:
REMARK  status: ('A' for Active; 'I' for Inactive)
REMARK    1  A    between atoms: C_1  and  C_2
REMARK    2  A    between atoms: C_5  and  N_6
REMARK    3  A    between atoms: C_7  and  O_9
REMARK    4  A    between atoms: O_9  and  C_10
REMARK    5  A    between atoms: C_16  and  C_17
REMARK    6  A    between atoms: N_20  and  C_21
REMARK    7  A    between atoms: N_24  and  C_25
REMARK                            x       y       z     vdW  Elec       q    Type
REMARK                         _______ _______ _______ _____ _____    ______ ____
ROOT
ATOM      1  C   UNL A   1      34.512 -36.591 -30.800  0.00  0.00    +0.134 A 
ATOM      2  C   UNL A   1      33.926 -36.631 -32.078  0.00  0.00    -0.017 A 
ATOM      3  C   UNL A   1      32.961 -35.686 -32.441  0.00  0.00    -0.037 A 
ATOM      4  C   UNL A   1      32.570 -34.751 -31.497  0.00  0.00    +0.032 A 
ATOM      5  C   UNL A   1      33.170 -34.740 -30.202  0.00  0.00    -0.017 A 
ATOM      6  C   UNL A   1      34.138 -35.655 -29.837  0.00  0.00    -0.014 A 
ATOM      7  C   UNL A   1      32.601 -33.581 -29.448  0.00  0.00    +0.002 C 
ATOM      8  C   UNL A   1      33.552 -32.388 -29.674  0.00  0.00    -0.055 C 
ATOM      9  C   UNL A   1      32.047 -33.564 -28.037  0.00  0.00    -0.054 C 
ATOM     10  C   UNL A   1      30.933 -32.491 -28.150  0.00  0.00    -0.048 C 
ATOM     11  N   UNL A   1      30.381 -32.553 -29.584  0.00  0.00    +0.433 N 
ATOM     12  C   UNL A   1      30.475 -31.232 -30.279  0.00  0.00    -0.060 C 
ATOM     13  O   UNL A   1      29.058 -32.939 -29.565  0.00  0.00    -0.289 OA
ATOM     14  C   UNL A   1      31.256 -33.601 -30.201  0.00  0.00    +0.039 C 
ATOM     15  N   UNL A   1      31.552 -33.726 -31.631  0.00  0.00    -0.341 N 
ATOM     16  C   UNL A   1      30.427 -34.104 -32.483  0.00  0.00    -0.001 C 
ENDROOT
BRANCH   1  17
ATOM     17  O   UNL A   1      35.471 -37.557 -30.401  0.00  0.00    -0.411 OA
BRANCH  17  19
ATOM     18  N   UNL A   1      37.615 -36.947 -31.102  0.00  0.00    -0.251 N 
ATOM     19  C   UNL A   1      36.809 -37.296 -30.042  0.00  0.00    +0.410 C 
ATOM     20  O   UNL A   1      37.132 -37.351 -28.861  0.00  0.00    -0.226 OA
ATOM     21  H   UNL A   1      37.164 -36.822 -31.968  0.00  0.00    +0.000 HD
BRANCH  18  26
ATOM     22  C   UNL A   1      43.271 -36.081 -31.352  0.00  0.00    -0.040 C 
ATOM     23  C   UNL A   1      41.795 -36.327 -31.276  0.00  0.00    -0.050 A 
ATOM     24  C   UNL A   1      40.929 -35.756 -32.213  0.00  0.00    -0.057 A 
ATOM     25  C   UNL A   1      39.549 -35.970 -32.127  0.00  0.00    -0.040 A 
ATOM     26  C   UNL A   1      39.009 -36.749 -31.096  0.00  0.00    +0.036 A 
ATOM     27  C   UNL A   1      39.872 -37.301 -30.149  0.00  0.00    -0.040 A 
ATOM     28  C   UNL A   1      41.253 -37.087 -30.235  0.00  0.00    -0.057 A 
ENDBRANCH  18  26
ENDBRANCH  17  19
ENDBRANCH   1  17
TORSDOF 3
ENDMDL
MODEL 5
REMARK VINA RESULT:    -7.803      2.546      4.482
REMARK INTER + INTRA:          -9.485
REMARK INTER:                  -9.316
REMARK INTRA:                  -0.169
REMARK UNBOUND:                -0.314
REMARK  Name = cpd273.pdb
REMARK  7 active torsions:
REMARK  status: ('A' for Active; 'I' for Inactive)
REMARK    1  A    between atoms: C_1  and  C_2
REMARK    2  A    between atoms: C_5  and  N_6
REMARK    3  A    between atoms: C_7  and  O_9
REMARK    4  A    between atoms: O_9  and  C_10
REMARK    5  A    between atoms: C_16  and  C_17
REMARK    6  A    between atoms: N_20  and  C_21
REMARK    7  A    between atoms: N_24  and  C_25
REMARK                            x       y       z     vdW  Elec       q    Type
REMARK                         _______ _______ _______ _____ _____    ______ ____
ROOT
ATOM      1  C   UNL A   1      35.262 -34.223 -30.574  0.00  0.00    +0.134 A 
ATOM      2  C   UNL A   1      34.380 -33.233 -30.105  0.00  0.00    -0.017 A 
ATOM      3  C   UNL A   1      33.449 -33.535 -29.106  0.00  0.00    -0.037 A 
ATOM      4  C   UNL A   1      33.390 -34.836 -28.635  0.00  0.00    +0.032 A 
ATOM      5  C   UNL A   1      34.286 -35.826 -29.138  0.00  0.00    -0.017 A 
ATOM      6  C   UNL A   1      35.223 -35.537 -30.110  0.00  0.00    -0.014 A 
ATOM      7  C   UNL A   1      34.029 -37.094 -28.388  0.00  0.00    +0.002 C 
ATOM      8  C   UNL A   1      35.005 -37.112 -27.192  0.00  0.00    -0.055 C 
ATOM      9  C   UNL A   1      33.841 -38.490 -28.947  0.00  0.00    -0.054 C 
ATOM     10  C   UNL A   1      32.839 -39.102 -27.933  0.00  0.00    -0.048 C 
ATOM     11  N   UNL A   1      31.950 -37.956 -27.420  0.00  0.00    +0.433 N 
ATOM     12  C   UNL A   1      31.995 -37.835 -25.930  0.00  0.00    -0.060 C 
ATOM     13  O   UNL A   1      30.642 -38.168 -27.798  0.00  0.00    -0.289 OA
ATOM     14  C   UNL A   1      32.546 -36.773 -28.121  0.00  0.00    +0.039 C 
ATOM     15  N   UNL A   1      32.471 -35.385 -27.655  0.00  0.00    -0.341 N 
ATOM     16  C   UNL A   1      31.141 -34.779 -27.673  0.00  0.00    -0.001 C 
ENDROOT
BRANCH   1  17
ATOM     17  O   UNL A   1      36.194 -33.947 -31.608  0.00  0.00    -0.411 OA
BRANCH  17  19
ATOM     18  N   UNL A   1      37.878 -35.565 -31.677  0.00  0.00    -0.251 N 
ATOM     19  C   UNL A   1      37.575 -34.226 -31.572  0.00  0.00    +0.410 C 
ATOM     20  O   UNL A   1      38.371 -33.297 -31.501  0.00  0.00    -0.226 OA
ATOM     21  H   UNL A   1      37.123 -36.168 -31.861  0.00  0.00    +0.000 HD
BRANCH  18  26
ATOM     22  C   UNL A   1      43.038 -38.041 -31.448  0.00  0.00    -0.040 C 
ATOM     23  C   UNL A   1      41.680 -37.409 -31.494  0.00  0.00    -0.050 A 
ATOM     24  C   UNL A   1      41.291 -36.636 -32.593  0.00  0.00    -0.057 A 
ATOM     25  C   UNL A   1      40.031 -36.030 -32.623  0.00  0.00    -0.040 A 
ATOM     26  C   UNL A   1      39.142 -36.175 -31.551  0.00  0.00    +0.036 A 
ATOM     27  C   UNL A   1      39.538 -36.928 -30.446  0.00  0.00    -0.040 A 
ATOM     28  C   UNL A   1      40.800 -37.536 -30.415  0.00  0.00    -0.057 A 
ENDBRANCH  18  26
ENDBRANCH  17  19
ENDBRANCH   1  17
TORSDOF 3
ENDMDL
MODEL 6
REMARK VINA RESULT:    -7.745      3.090      4.540
REMARK INTER + INTRA:          -9.418
REMARK INTER:                  -9.161
REMARK INTRA:                  -0.256
REMARK UNBOUND:                -0.314
REMARK  Name = cpd273.pdb
REMARK  7 active torsions:
REMARK  status: ('A' for Active; 'I' for Inactive)
REMARK    1  A    between atoms: C_1  and  C_2
REMARK    2  A    between atoms: C_5  and  N_6
REMARK    3  A    between atoms: C_7  and  O_9
REMARK    4  A    between atoms: O_9  and  C_10
REMARK    5  A    between atoms: C_16  and  C_17
REMARK    6  A    between atoms: N_20  and  C_21
REMARK    7  A    between atoms: N_24  and  C_25
REMARK                            x       y       z     vdW  Elec       q    Type
REMARK                         _______ _______ _______ _____ _____    ______ ____
ROOT
ATOM      1  C   UNL A   1      33.066 -32.467 -31.464  0.00  0.00    +0.134 A 
ATOM      2  C   UNL A   1      32.429 -33.627 -31.938  0.00  0.00    -0.017 A 
ATOM      3  C   UNL A   1      31.038 -33.752 -31.850  0.00  0.00    -0.037 A 
ATOM      4  C   UNL A   1      30.324 -32.732 -31.245  0.00  0.00    +0.032 A 
ATOM      5  C   UNL A   1      30.996 -31.571 -30.759  0.00  0.00    -0.017 A 
ATOM      6  C   UNL A   1      32.366 -31.425 -30.858  0.00  0.00    -0.014 A 
ATOM      7  C   UNL A   1      29.958 -30.630 -30.238  0.00  0.00    +0.002 C 
ATOM      8  C   UNL A   1      29.589 -29.681 -31.398  0.00  0.00    -0.055 C 
ATOM      9  C   UNL A   1      29.946 -29.889 -28.916  0.00  0.00    -0.054 C 
ATOM     10  C   UNL A   1      28.429 -29.833 -28.600  0.00  0.00    -0.048 C 
ATOM     11  N   UNL A   1      27.790 -31.099 -29.196  0.00  0.00    +0.433 N 
ATOM     12  C   UNL A   1      26.687 -30.775 -30.151  0.00  0.00    -0.060 C 
ATOM     13  O   UNL A   1      27.274 -31.886 -28.189  0.00  0.00    -0.289 OA
ATOM     14  C   UNL A   1      28.967 -31.748 -29.860  0.00  0.00    +0.039 C 
ATOM     15  N   UNL A   1      28.896 -32.677 -30.991  0.00  0.00    -0.341 N 
ATOM     16  C   UNL A   1      28.284 -33.974 -30.712  0.00  0.00    -0.001 C 
ENDROOT
BRANCH   1  17
ATOM     17  O   UNL A   1      34.478 -32.331 -31.516  0.00  0.00    -0.411 OA
BRANCH  17  19
ATOM     18  N   UNL A   1      36.422 -33.618 -31.674  0.00  0.00    -0.251 N 
ATOM     19  C   UNL A   1      35.413 -33.155 -30.859  0.00  0.00    +0.410 C 
ATOM     20  O   UNL A   1      35.294 -33.353 -29.656  0.00  0.00    -0.226 OA
ATOM     21  H   UNL A   1      36.442 -33.254 -32.589  0.00  0.00    +0.000 HD
BRANCH  18  26
ATOM     22  C   UNL A   1      40.661 -37.318 -30.603  0.00  0.00    -0.040 C 
ATOM     23  C   UNL A   1      39.537 -36.366 -30.881  0.00  0.00    -0.050 A 
ATOM     24  C   UNL A   1      39.758 -35.200 -31.620  0.00  0.00    -0.057 A 
ATOM     25  C   UNL A   1      38.711 -34.304 -31.860  0.00  0.00    -0.040 A 
ATOM     26  C   UNL A   1      37.428 -34.550 -31.356  0.00  0.00    +0.036 A 
ATOM     27  C   UNL A   1      37.214 -35.703 -30.600  0.00  0.00    -0.040 A 
ATOM     28  C   UNL A   1      38.261 -36.601 -30.360  0.00  0.00    -0.057 A 
ENDBRANCH  18  26
ENDBRANCH  17  19
ENDBRANCH   1  17
TORSDOF 3
ENDMDL
MODEL 7
REMARK VINA RESULT:    -7.711     16.163     18.675
REMARK INTER + INTRA:          -9.377
REMARK INTER:                  -9.132
REMARK INTRA:                  -0.245
REMARK UNBOUND:                -0.314
REMARK  Name = cpd273.pdb
REMARK  7 active torsions:
REMARK  status: ('A' for Active; 'I' for Inactive)
REMARK    1  A    between atoms: C_1  and  C_2
REMARK    2  A    between atoms: C_5  and  N_6
REMARK    3  A    between atoms: C_7  and  O_9
REMARK    4  A    between atoms: O_9  and  C_10
REMARK    5  A    between atoms: C_16  and  C_17
REMARK    6  A    between atoms: N_20  and  C_21
REMARK    7  A    between atoms: N_24  and  C_25
REMARK                            x       y       z     vdW  Elec       q    Type
REMARK                         _______ _______ _______ _____ _____    ______ ____
ROOT
ATOM      1  C   UNL A   1      42.248 -19.602 -38.470  0.00  0.00    +0.134 A 
ATOM      2  C   UNL A   1      41.280 -20.391 -39.117  0.00  0.00    -0.017 A 
ATOM      3  C   UNL A   1      40.346 -21.115 -38.367  0.00  0.00    -0.037 A 
ATOM      4  C   UNL A   1      40.436 -21.070 -36.987  0.00  0.00    +0.032 A 
ATOM      5  C   UNL A   1      41.438 -20.274 -36.355  0.00  0.00    -0.017 A 
ATOM      6  C   UNL A   1      42.353 -19.538 -37.082  0.00  0.00    -0.014 A 
ATOM      7  C   UNL A   1      41.229 -20.371 -34.877  0.00  0.00    +0.002 C 
ATOM      8  C   UNL A   1      40.323 -19.188 -34.473  0.00  0.00    -0.055 C 
ATOM      9  C   UNL A   1      42.263 -20.645 -33.803  0.00  0.00    -0.054 C 
ATOM     10  C   UNL A   1      41.429 -21.433 -32.759  0.00  0.00    -0.048 C 
ATOM     11  N   UNL A   1      40.357 -22.222 -33.529  0.00  0.00    +0.433 N 
ATOM     12  C   UNL A   1      38.976 -21.900 -33.058  0.00  0.00    -0.060 C 
ATOM     13  O   UNL A   1      40.564 -23.576 -33.372  0.00  0.00    -0.289 OA
ATOM     14  C   UNL A   1      40.611 -21.781 -34.939  0.00  0.00    +0.039 C 
ATOM     15  N   UNL A   1      39.622 -21.784 -36.020  0.00  0.00    -0.341 N 
ATOM     16  C   UNL A   1      39.171 -23.099 -36.468  0.00  0.00    -0.001 C 
ENDROOT
BRANCH   1  17
ATOM     17  O   UNL A   1      43.223 -18.883 -39.210  0.00  0.00    -0.411 OA
BRANCH  17  19
ATOM     18  N   UNL A   1      44.321 -20.788 -40.003  0.00  0.00    -0.251 N 
ATOM     19  C   UNL A   1      44.124 -19.432 -40.145  0.00  0.00    +0.410 C 
ATOM     20  O   UNL A   1      44.608 -18.707 -41.005  0.00  0.00    -0.226 OA
ATOM     21  H   UNL A   1      43.751 -21.242 -39.342  0.00  0.00    +0.000 HD
BRANCH  18  26
ATOM     22  C   UNL A   1      48.258 -24.037 -42.601  0.00  0.00    -0.040 C 
ATOM     23  C   UNL A   1      47.223 -23.177 -41.940  0.00  0.00    -0.050 A 
ATOM     24  C   UNL A   1      47.298 -22.896 -40.573  0.00  0.00    -0.057 A 
ATOM     25  C   UNL A   1      46.320 -22.110 -39.956  0.00  0.00    -0.040 A 
ATOM     26  C   UNL A   1      45.242 -21.601 -40.691  0.00  0.00    +0.036 A 
ATOM     27  C   UNL A   1      45.156 -21.899 -42.050  0.00  0.00    -0.040 A 
ATOM     28  C   UNL A   1      46.136 -22.685 -42.670  0.00  0.00    -0.057 A 
ENDBRANCH  18  26
ENDBRANCH  17  19
ENDBRANCH   1  17
TORSDOF 3
ENDMDL
MODEL 8
REMARK VINA RESULT:    -7.626      3.914      6.319
REMARK INTER + INTRA:          -9.278
REMARK INTER:                  -9.038
REMARK INTRA:                  -0.240
REMARK UNBOUND:                -0.314
REMARK  Name = cpd273.pdb
REMARK  7 active torsions:
REMARK  status: ('A' for Active; 'I' for Inactive)
REMARK    1  A    between atoms: C_1  and  C_2
REMARK    2  A    between atoms: C_5  and  N_6
REMARK    3  A    between atoms: C_7  and  O_9
REMARK    4  A    between atoms: O_9  and  C_10
REMARK    5  A    between atoms: C_16  and  C_17
REMARK    6  A    between atoms: N_20  and  C_21
REMARK    7  A    between atoms: N_24  and  C_25
REMARK                            x       y       z     vdW  Elec       q    Type
REMARK                         _______ _______ _______ _____ _____    ______ ____
ROOT
ATOM      1  C   UNL A   1      35.253 -37.292 -29.521  0.00  0.00    +0.134 A 
ATOM      2  C   UNL A   1      35.011 -36.835 -28.213  0.00  0.00    -0.017 A 
ATOM      3  C   UNL A   1      34.666 -37.740 -27.204  0.00  0.00    -0.037 A 
ATOM      4  C   UNL A   1      34.523 -39.075 -27.539  0.00  0.00    +0.032 A 
ATOM      5  C   UNL A   1      34.759 -39.512 -28.877  0.00  0.00    -0.017 A 
ATOM      6  C   UNL A   1      35.121 -38.633 -29.879  0.00  0.00    -0.014 A 
ATOM      7  C   UNL A   1      34.602 -40.999 -28.904  0.00  0.00    +0.002 C 
ATOM      8  C   UNL A   1      36.004 -41.603 -28.675  0.00  0.00    -0.055 C 
ATOM      9  C   UNL A   1      33.811 -41.838 -29.888  0.00  0.00    -0.054 C 
ATOM     10  C   UNL A   1      33.335 -43.010 -28.990  0.00  0.00    -0.048 C 
ATOM     11  N   UNL A   1      33.149 -42.451 -27.569  0.00  0.00    +0.433 N 
ATOM     12  C   UNL A   1      33.964 -43.197 -26.561  0.00  0.00    -0.060 C 
ATOM     13  O   UNL A   1      31.823 -42.533 -27.200  0.00  0.00    -0.289 OA
ATOM     14  C   UNL A   1      33.591 -41.030 -27.741  0.00  0.00    +0.039 C 
ATOM     15  N   UNL A   1      34.114 -40.169 -26.677  0.00  0.00    -0.341 N 
ATOM     16  C   UNL A   1      33.160 -39.790 -25.637  0.00  0.00    -0.001 C 
ENDROOT
BRANCH   1  17
ATOM     17  O   UNL A   1      35.576 -36.390 -30.567  0.00  0.00    -0.411 OA
BRANCH  17  19
ATOM     18  N   UNL A   1      37.840 -36.831 -30.942  0.00  0.00    -0.251 N 
ATOM     19  C   UNL A   1      36.857 -35.872 -30.847  0.00  0.00    +0.410 C 
ATOM     20  O   UNL A   1      36.989 -34.667 -31.023  0.00  0.00    -0.226 OA
ATOM     21  H   UNL A   1      37.538 -37.767 -30.905  0.00  0.00    +0.000 HD
BRANCH  18  26
ATOM     22  C   UNL A   1      43.515 -36.125 -31.271  0.00  0.00    -0.040 C 
ATOM     23  C   UNL A   1      42.027 -36.290 -31.193  0.00  0.00    -0.050 A 
ATOM     24  C   UNL A   1      41.458 -37.214 -30.311  0.00  0.00    -0.057 A 
ATOM     25  C   UNL A   1      40.071 -37.379 -30.256  0.00  0.00    -0.040 A 
ATOM     26  C   UNL A   1      39.227 -36.633 -31.088  0.00  0.00    +0.036 A 
ATOM     27  C   UNL A   1      39.796 -35.726 -31.981  0.00  0.00    -0.040 A 
ATOM     28  C   UNL A   1      41.185 -35.559 -32.037  0.00  0.00    -0.057 A 
ENDBRANCH  18  26
ENDBRANCH  17  19
ENDBRANCH   1  17
TORSDOF 3
ENDMDL
MODEL 9
REMARK VINA RESULT:    -7.597     33.950     36.762
REMARK INTER + INTRA:          -9.243
REMARK INTER:                  -8.842
REMARK INTRA:                  -0.401
REMARK UNBOUND:                -0.314
REMARK  Name = cpd273.pdb
REMARK  7 active torsions:
REMARK  status: ('A' for Active; 'I' for Inactive)
REMARK    1  A    between atoms: C_1  and  C_2
REMARK    2  A    between atoms: C_5  and  N_6
REMARK    3  A    between atoms: C_7  and  O_9
REMARK    4  A    between atoms: O_9  and  C_10
REMARK    5  A    between atoms: C_16  and  C_17
REMARK    6  A    between atoms: N_20  and  C_21
REMARK    7  A    between atoms: N_24  and  C_25
REMARK                            x       y       z     vdW  Elec       q    Type
REMARK                         _______ _______ _______ _____ _____    ______ ____
ROOT
ATOM      1  C   UNL A   1      62.331 -19.949  -9.720  0.00  0.00    +0.134 A 
ATOM      2  C   UNL A   1      63.027 -19.375  -8.641  0.00  0.00    -0.017 A 
ATOM      3  C   UNL A   1      63.678 -20.190  -7.710  0.00  0.00    -0.037 A 
ATOM      4  C   UNL A   1      63.575 -21.564  -7.853  0.00  0.00    +0.032 A 
ATOM      5  C   UNL A   1      62.850 -22.121  -8.949  0.00  0.00    -0.017 A 
ATOM      6  C   UNL A   1      62.220 -21.328  -9.887  0.00  0.00    -0.014 A 
ATOM      7  C   UNL A   1      62.986 -23.609  -8.873  0.00  0.00    +0.002 C 
ATOM      8  C   UNL A   1      64.199 -23.994  -9.744  0.00  0.00    -0.055 C 
ATOM      9  C   UNL A   1      61.893 -24.654  -8.983  0.00  0.00    -0.054 C 
ATOM     10  C   UNL A   1      62.424 -25.763  -8.037  0.00  0.00    -0.048 C 
ATOM     11  N   UNL A   1      63.221 -25.069  -6.920  0.00  0.00    +0.433 N 
ATOM     12  C   UNL A   1      64.624 -25.578  -6.832  0.00  0.00    -0.060 C 
ATOM     13  O   UNL A   1      62.607 -25.278  -5.703  0.00  0.00    -0.289 OA
ATOM     14  C   UNL A   1      63.145 -23.632  -7.340  0.00  0.00    +0.039 C 
ATOM     15  N   UNL A   1      64.111 -22.591  -6.979  0.00  0.00    -0.341 N 
ATOM     16  C   UNL A   1      64.149 -22.219  -5.567  0.00  0.00    -0.001 C 
ENDROOT
BRANCH   1  17
ATOM     17  O   UNL A   1      61.639 -19.142 -10.660  0.00  0.00    -0.411 OA
BRANCH  17  19
ATOM     18  N   UNL A   1      59.622 -18.952 -11.826  0.00  0.00    -0.251 N 
ATOM     19  C   UNL A   1      60.269 -18.812 -10.618  0.00  0.00    +0.410 C 
ATOM     20  O   UNL A   1      59.766 -18.485  -9.550  0.00  0.00    -0.226 OA
ATOM     21  H   UNL A   1      60.148 -19.353 -12.555  0.00  0.00    +0.000 HD
BRANCH  18  26
ATOM     22  C   UNL A   1      54.282 -17.229 -12.976  0.00  0.00    -0.040 C 
ATOM     23  C   UNL A   1      55.672 -17.700 -12.668  0.00  0.00    -0.050 A 
ATOM     24  C   UNL A   1      56.692 -16.781 -12.402  0.00  0.00    -0.057 A 
ATOM     25  C   UNL A   1      57.992 -17.223 -12.135  0.00  0.00    -0.040 A 
ATOM     26  C   UNL A   1      58.299 -18.589 -12.141  0.00  0.00    +0.036 A 
ATOM     27  C   UNL A   1      57.286 -19.503 -12.427  0.00  0.00    -0.040 A 
ATOM     28  C   UNL A   1      55.984 -19.062 -12.694  0.00  0.00    -0.057 A 
ENDBRANCH  18  26
ENDBRANCH  17  19
ENDBRANCH   1  17
TORSDOF 3
ENDMDL
MODEL 10
REMARK VINA RESULT:    -7.498      2.769      4.320
REMARK INTER + INTRA:          -9.127
REMARK INTER:                  -9.139
REMARK INTRA:                   0.013
REMARK UNBOUND:                -0.314
REMARK  Name = cpd273.pdb
REMARK  7 active torsions:
REMARK  status: ('A' for Active; 'I' for Inactive)
REMARK    1  A    between atoms: C_1  and  C_2
REMARK    2  A    between atoms: C_5  and  N_6
REMARK    3  A    between atoms: C_7  and  O_9
REMARK    4  A    between atoms: O_9  and  C_10
REMARK    5  A    between atoms: C_16  and  C_17
REMARK    6  A    between atoms: N_20  and  C_21
REMARK    7  A    between atoms: N_24  and  C_25
REMARK                            x       y       z     vdW  Elec       q    Type
REMARK                         _______ _______ _______ _____ _____    ______ ____
ROOT
ATOM      1  C   UNL A   1      33.313 -33.069 -31.276  0.00  0.00    +0.134 A 
ATOM      2  C   UNL A   1      33.430 -31.998 -30.372  0.00  0.00    -0.017 A 
ATOM      3  C   UNL A   1      32.285 -31.350 -29.896  0.00  0.00    -0.037 A 
ATOM      4  C   UNL A   1      31.052 -31.757 -30.377  0.00  0.00    +0.032 A 
ATOM      5  C   UNL A   1      30.961 -32.837 -31.305  0.00  0.00    -0.017 A 
ATOM      6  C   UNL A   1      32.081 -33.499 -31.767  0.00  0.00    -0.014 A 
ATOM      7  C   UNL A   1      29.511 -33.086 -31.571  0.00  0.00    +0.002 C 
ATOM      8  C   UNL A   1      29.053 -34.173 -30.575  0.00  0.00    -0.055 C 
ATOM      9  C   UNL A   1      28.822 -33.261 -32.910  0.00  0.00    -0.054 C 
ATOM     10  C   UNL A   1      27.428 -32.642 -32.628  0.00  0.00    -0.048 C 
ATOM     11  N   UNL A   1      27.624 -31.523 -31.591  0.00  0.00    +0.433 N 
ATOM     12  C   UNL A   1      26.780 -31.730 -30.375  0.00  0.00    -0.060 C 
ATOM     13  O   UNL A   1      27.295 -30.304 -32.145  0.00  0.00    -0.289 OA
ATOM     14  C   UNL A   1      29.092 -31.626 -31.309  0.00  0.00    +0.039 C 
ATOM     15  N   UNL A   1      29.750 -31.192 -30.073  0.00  0.00    -0.341 N 
ATOM     16  C   UNL A   1      29.762 -29.752 -29.830  0.00  0.00    -0.001 C 
ENDROOT
BRANCH   1  17
ATOM     17  O   UNL A   1      34.461 -33.723 -31.794  0.00  0.00    -0.411 OA
BRANCH  17  19
ATOM     18  N   UNL A   1      36.626 -34.592 -31.654  0.00  0.00    -0.251 N 
ATOM     19  C   UNL A   1      35.396 -34.469 -31.047  0.00  0.00    +0.410 C 
ATOM     20  O   UNL A   1      35.076 -34.894 -29.943  0.00  0.00    -0.226 OA
ATOM     21  H   UNL A   1      36.755 -34.075 -32.481  0.00  0.00    +0.000 HD
BRANCH  18  26
ATOM     22  C   UNL A   1      41.215 -37.682 -30.171  0.00  0.00    -0.040 C 
ATOM     23  C   UNL A   1      40.001 -36.891 -30.554  0.00  0.00    -0.050 A 
ATOM     24  C   UNL A   1      40.102 -35.821 -31.449  0.00  0.00    -0.057 A 
ATOM     25  C   UNL A   1      38.970 -35.072 -31.788  0.00  0.00    -0.040 A 
ATOM     26  C   UNL A   1      37.721 -35.370 -31.231  0.00  0.00    +0.036 A 
ATOM     27  C   UNL A   1      37.625 -36.423 -30.322  0.00  0.00    -0.040 A 
ATOM     28  C   UNL A   1      38.757 -37.175 -29.982  0.00  0.00    -0.057 A 
ENDBRANCH  18  26
ENDBRANCH  17  19
ENDBRANCH   1  17
TORSDOF 3
ENDMDL
MODEL 11
REMARK VINA RESULT:    -7.475     16.622     19.875
REMARK INTER + INTRA:          -9.100
REMARK INTER:                  -8.802
REMARK INTRA:                  -0.298
REMARK UNBOUND:                -0.314
REMARK  Name = cpd273.pdb
REMARK  7 active torsions:
REMARK  status: ('A' for Active; 'I' for Inactive)
REMARK    1  A    between atoms: C_1  and  C_2
REMARK    2  A    between atoms: C_5  and  N_6
REMARK    3  A    between atoms: C_7  and  O_9
REMARK    4  A    between atoms: O_9  and  C_10
REMARK    5  A    between atoms: C_16  and  C_17
REMARK    6  A    between atoms: N_20  and  C_21
REMARK    7  A    between atoms: N_24  and  C_25
REMARK                            x       y       z     vdW  Elec       q    Type
REMARK                         _______ _______ _______ _____ _____    ______ ____
ROOT
ATOM      1  C   UNL A   1      42.058 -19.080 -38.061  0.00  0.00    +0.134 A 
ATOM      2  C   UNL A   1      43.110 -18.949 -37.136  0.00  0.00    -0.017 A 
ATOM      3  C   UNL A   1      44.422 -19.250 -37.516  0.00  0.00    -0.037 A 
ATOM      4  C   UNL A   1      44.643 -19.724 -38.798  0.00  0.00    +0.032 A 
ATOM      5  C   UNL A   1      43.556 -19.862 -39.713  0.00  0.00    -0.017 A 
ATOM      6  C   UNL A   1      42.259 -19.548 -39.358  0.00  0.00    -0.014 A 
ATOM      7  C   UNL A   1      44.119 -20.315 -41.022  0.00  0.00    +0.002 C 
ATOM      8  C   UNL A   1      44.393 -19.045 -41.856  0.00  0.00    -0.055 C 
ATOM      9  C   UNL A   1      43.633 -21.444 -41.909  0.00  0.00    -0.054 C 
ATOM     10  C   UNL A   1      44.961 -21.946 -42.533  0.00  0.00    -0.048 C 
ATOM     11  N   UNL A   1      46.071 -21.718 -41.494  0.00  0.00    +0.433 N 
ATOM     12  C   UNL A   1      47.182 -20.878 -42.035  0.00  0.00    -0.060 C 
ATOM     13  O   UNL A   1      46.598 -22.928 -41.093  0.00  0.00    -0.289 OA
ATOM     14  C   UNL A   1      45.317 -21.048 -40.386  0.00  0.00    +0.039 C 
ATOM     15  N   UNL A   1      45.900 -20.154 -39.382  0.00  0.00    -0.341 N 
ATOM     16  C   UNL A   1      46.822 -20.776 -38.434  0.00  0.00    -0.001 C 
ENDROOT
BRANCH   1  17
ATOM     17  O   UNL A   1      40.716 -18.808 -37.689  0.00  0.00    -0.411 OA
BRANCH  17  19
ATOM     18  N   UNL A   1      40.339 -20.810 -36.544  0.00  0.00    -0.251 N 
ATOM     19  C   UNL A   1      39.975 -19.491 -36.704  0.00  0.00    +0.410 C 
ATOM     20  O   UNL A   1      39.132 -18.879 -36.059  0.00  0.00    -0.226 OA
ATOM     21  H   UNL A   1      41.128 -21.107 -37.052  0.00  0.00    +0.000 HD
BRANCH  18  26
ATOM     22  C   UNL A   1      37.678 -24.870 -33.504  0.00  0.00    -0.040 C 
ATOM     23  C   UNL A   1      38.368 -23.792 -34.285  0.00  0.00    -0.050 A 
ATOM     24  C   UNL A   1      38.582 -23.934 -35.659  0.00  0.00    -0.057 A 
ATOM     25  C   UNL A   1      39.245 -22.936 -36.380  0.00  0.00    -0.040 A 
ATOM     26  C   UNL A   1      39.717 -21.784 -35.740  0.00  0.00    +0.036 A 
ATOM     27  C   UNL A   1      39.522 -21.652 -34.365  0.00  0.00    -0.040 A 
ATOM     28  C   UNL A   1      38.858 -22.651 -33.642  0.00  0.00    -0.057 A 
ENDBRANCH  18  26
ENDBRANCH  17  19
ENDBRANCH   1  17
TORSDOF 3
ENDMDL
MODEL 12
REMARK VINA RESULT:    -7.461     17.056     20.102
REMARK INTER + INTRA:          -9.083
REMARK INTER:                  -8.704
REMARK INTRA:                  -0.379
REMARK UNBOUND:                -0.314
REMARK  Name = cpd273.pdb
REMARK  7 active torsions:
REMARK  status: ('A' for Active; 'I' for Inactive)
REMARK    1  A    between atoms: C_1  and  C_2
REMARK    2  A    between atoms: C_5  and  N_6
REMARK    3  A    between atoms: C_7  and  O_9
REMARK    4  A    between atoms: O_9  and  C_10
REMARK    5  A    between atoms: C_16  and  C_17
REMARK    6  A    between atoms: N_20  and  C_21
REMARK    7  A    between atoms: N_24  and  C_25
REMARK                            x       y       z     vdW  Elec       q    Type
REMARK                         _______ _______ _______ _____ _____    ______ ____
ROOT
ATOM      1  C   UNL A   1      45.452 -19.913 -35.901  0.00  0.00    +0.134 A 
ATOM      2  C   UNL A   1      46.789 -19.741 -36.303  0.00  0.00    -0.017 A 
ATOM      3  C   UNL A   1      47.119 -19.720 -37.662  0.00  0.00    -0.037 A 
ATOM      4  C   UNL A   1      46.107 -19.921 -38.586  0.00  0.00    +0.032 A 
ATOM      5  C   UNL A   1      44.761 -20.107 -38.152  0.00  0.00    -0.017 A 
ATOM      6  C   UNL A   1      44.418 -20.110 -36.815  0.00  0.00    -0.014 A 
ATOM      7  C   UNL A   1      43.902 -20.219 -39.372  0.00  0.00    +0.002 C 
ATOM      8  C   UNL A   1      43.388 -18.799 -39.690  0.00  0.00    -0.055 C 
ATOM      9  C   UNL A   1      42.838 -21.254 -39.674  0.00  0.00    -0.054 C 
ATOM     10  C   UNL A   1      42.955 -21.384 -41.215  0.00  0.00    -0.048 C 
ATOM     11  N   UNL A   1      44.425 -21.127 -41.586  0.00  0.00    +0.433 N 
ATOM     12  C   UNL A   1      44.569 -20.012 -42.571  0.00  0.00    -0.060 C 
ATOM     13  O   UNL A   1      44.979 -22.264 -42.135  0.00  0.00    -0.289 OA
ATOM     14  C   UNL A   1      45.024 -20.808 -40.250  0.00  0.00    +0.039 C 
ATOM     15  N   UNL A   1      46.227 -20.001 -40.030  0.00  0.00    -0.341 N 
ATOM     16  C   UNL A   1      47.481 -20.587 -40.499  0.00  0.00    -0.001 C 
ENDROOT
BRANCH   1  17
ATOM     17  O   UNL A   1      45.099 -19.966 -34.528  0.00  0.00    -0.411 OA
BRANCH  17  19
ATOM     18  N   UNL A   1      43.026 -20.884 -33.962  0.00  0.00    -0.251 N 
ATOM     19  C   UNL A   1      43.811 -19.754 -33.996  0.00  0.00    +0.410 C 
ATOM     20  O   UNL A   1      43.514 -18.641 -33.578  0.00  0.00    -0.226 OA
ATOM     21  H   UNL A   1      43.467 -21.727 -34.215  0.00  0.00    +0.000 HD
BRANCH  18  26
ATOM     22  C   UNL A   1      37.441 -21.051 -32.700  0.00  0.00    -0.040 C 
ATOM     23  C   UNL A   1      38.907 -21.008 -33.009  0.00  0.00    -0.050 A 
ATOM     24  C   UNL A   1      39.367 -20.455 -34.208  0.00  0.00    -0.057 A 
ATOM     25  C   UNL A   1      40.734 -20.435 -34.502  0.00  0.00    -0.040 A 
ATOM     26  C   UNL A   1      41.666 -20.978 -33.609  0.00  0.00    +0.036 A 
ATOM     27  C   UNL A   1      41.205 -21.549 -32.423  0.00  0.00    -0.040 A 
ATOM     28  C   UNL A   1      39.837 -21.568 -32.127  0.00  0.00    -0.057 A 
ENDBRANCH  18  26
ENDBRANCH  17  19
ENDBRANCH   1  17
TORSDOF 3
ENDMDL
MODEL 13
REMARK VINA RESULT:    -7.395      4.636      6.354
REMARK INTER + INTRA:          -9.005
REMARK INTER:                  -8.644
REMARK INTRA:                  -0.361
REMARK UNBOUND:                -0.314
REMARK  Name = cpd273.pdb
REMARK  7 active torsions:
REMARK  status: ('A' for Active; 'I' for Inactive)
REMARK    1  A    between atoms: C_1  and  C_2
REMARK    2  A    between atoms: C_5  and  N_6
REMARK    3  A    between atoms: C_7  and  O_9
REMARK    4  A    between atoms: O_9  and  C_10
REMARK    5  A    between atoms: C_16  and  C_17
REMARK    6  A    between atoms: N_20  and  C_21
REMARK    7  A    between atoms: N_24  and  C_25
REMARK                            x       y       z     vdW  Elec       q    Type
REMARK                         _______ _______ _______ _____ _____    ______ ____
ROOT
ATOM      1  C   UNL A   1      33.560 -36.500 -31.405  0.00  0.00    +0.134 A 
ATOM      2  C   UNL A   1      32.579 -36.021 -32.292  0.00  0.00    -0.017 A 
ATOM      3  C   UNL A   1      31.952 -36.894 -33.187  0.00  0.00    -0.037 A 
ATOM      4  C   UNL A   1      32.357 -38.218 -33.206  0.00  0.00    +0.032 A 
ATOM      5  C   UNL A   1      33.365 -38.676 -32.306  0.00  0.00    -0.017 A 
ATOM      6  C   UNL A   1      33.978 -37.830 -31.404  0.00  0.00    -0.014 A 
ATOM      7  C   UNL A   1      33.525 -40.149 -32.516  0.00  0.00    +0.002 C 
ATOM      8  C   UNL A   1      32.592 -40.849 -31.506  0.00  0.00    -0.055 C 
ATOM      9  C   UNL A   1      34.809 -40.934 -32.692  0.00  0.00    -0.054 C 
ATOM     10  C   UNL A   1      34.355 -42.065 -33.652  0.00  0.00    -0.048 C 
ATOM     11  N   UNL A   1      33.246 -41.488 -34.548  0.00  0.00    +0.433 N 
ATOM     12  C   UNL A   1      31.984 -42.285 -34.462  0.00  0.00    -0.060 C 
ATOM     13  O   UNL A   1      33.661 -41.474 -35.863  0.00  0.00    -0.289 OA
ATOM     14  C   UNL A   1      33.101 -40.102 -33.997  0.00  0.00    +0.039 C 
ATOM     15  N   UNL A   1      31.895 -39.275 -34.086  0.00  0.00    -0.341 N 
ATOM     16  C   UNL A   1      31.529 -38.825 -35.427  0.00  0.00    -0.001 C 
ENDROOT
BRANCH   1  17
ATOM     17  O   UNL A   1      34.230 -35.628 -30.509  0.00  0.00    -0.411 OA
BRANCH  17  19
ATOM     18  N   UNL A   1      36.456 -35.414 -31.188  0.00  0.00    -0.251 N 
ATOM     19  C   UNL A   1      35.592 -35.694 -30.152  0.00  0.00    +0.410 C 
ATOM     20  O   UNL A   1      35.895 -35.939 -28.991  0.00  0.00    -0.226 OA
ATOM     21  H   UNL A   1      36.042 -35.106 -32.026  0.00  0.00    +0.000 HD
BRANCH  18  26
ATOM     22  C   UNL A   1      42.174 -35.650 -31.417  0.00  0.00    -0.040 C 
ATOM     23  C   UNL A   1      40.677 -35.610 -31.356  0.00  0.00    -0.050 A 
ATOM     24  C   UNL A   1      39.971 -34.526 -31.887  0.00  0.00    -0.057 A 
ATOM     25  C   UNL A   1      38.576 -34.483 -31.809  0.00  0.00    -0.040 A 
ATOM     26  C   UNL A   1      37.860 -35.515 -31.190  0.00  0.00    +0.036 A 
ATOM     27  C   UNL A   1      38.566 -36.586 -30.641  0.00  0.00    -0.040 A 
ATOM     28  C   UNL A   1      39.964 -36.631 -30.719  0.00  0.00    -0.057 A 
ENDBRANCH  18  26
ENDBRANCH  17  19
ENDBRANCH   1  17
TORSDOF 3
ENDMDL
MODEL 14
REMARK VINA RESULT:    -7.128      2.928      8.488
REMARK INTER + INTRA:          -8.692
REMARK INTER:                  -8.230
REMARK INTRA:                  -0.462
REMARK UNBOUND:                -0.314
REMARK  Name = cpd273.pdb
REMARK  7 active torsions:
REMARK  status: ('A' for Active; 'I' for Inactive)
REMARK    1  A    between atoms: C_1  and  C_2
REMARK    2  A    between atoms: C_5  and  N_6
REMARK    3  A    between atoms: C_7  and  O_9
REMARK    4  A    between atoms: O_9  and  C_10
REMARK    5  A    between atoms: C_16  and  C_17
REMARK    6  A    between atoms: N_20  and  C_21
REMARK    7  A    between atoms: N_24  and  C_25
REMARK                            x       y       z     vdW  Elec       q    Type
REMARK                         _______ _______ _______ _____ _____    ______ ____
ROOT
ATOM      1  C   UNL A   1      34.828 -35.179 -31.525  0.00  0.00    +0.134 A 
ATOM      2  C   UNL A   1      35.969 -34.813 -30.788  0.00  0.00    -0.017 A 
ATOM      3  C   UNL A   1      36.628 -35.757 -29.994  0.00  0.00    -0.037 A 
ATOM      4  C   UNL A   1      36.099 -37.034 -29.917  0.00  0.00    +0.032 A 
ATOM      5  C   UNL A   1      34.932 -37.377 -30.663  0.00  0.00    -0.017 A 
ATOM      6  C   UNL A   1      34.283 -36.461 -31.467  0.00  0.00    -0.014 A 
ATOM      7  C   UNL A   1      34.658 -38.830 -30.434  0.00  0.00    +0.002 C 
ATOM      8  C   UNL A   1      35.361 -39.603 -31.569  0.00  0.00    -0.055 C 
ATOM      9  C   UNL A   1      33.340 -39.487 -30.074  0.00  0.00    -0.054 C 
ATOM     10  C   UNL A   1      33.812 -40.672 -29.191  0.00  0.00    -0.048 C 
ATOM     11  N   UNL A   1      35.090 -40.221 -28.465  0.00  0.00    +0.433 N 
ATOM     12  C   UNL A   1      36.241 -41.137 -28.732  0.00  0.00    -0.060 C 
ATOM     13  O   UNL A   1      34.872 -40.186 -27.104  0.00  0.00    -0.289 OA
ATOM     14  C   UNL A   1      35.292 -38.848 -29.030  0.00  0.00    +0.039 C 
ATOM     15  N   UNL A   1      36.576 -38.146 -29.115  0.00  0.00    -0.341 N 
ATOM     16  C   UNL A   1      37.173 -37.755 -27.840  0.00  0.00    -0.001 C 
ENDROOT
BRANCH   1  17
ATOM     17  O   UNL A   1      34.127 -34.231 -32.314  0.00  0.00    -0.411 OA
BRANCH  17  19
ATOM     18  N   UNL A   1      32.382 -33.124 -31.223  0.00  0.00    -0.251 N 
ATOM     19  C   UNL A   1      33.597 -33.006 -31.860  0.00  0.00    +0.410 C 
ATOM     20  O   UNL A   1      34.247 -31.980 -32.016  0.00  0.00    -0.226 OA
ATOM     21  H   UNL A   1      32.062 -34.042 -31.066  0.00  0.00    +0.000 HD
BRANCH  18  26
ATOM     22  C   UNL A   1      29.047 -28.971 -29.116  0.00  0.00    -0.040 C 
ATOM     23  C   UNL A   1      29.903 -30.065 -29.680  0.00  0.00    -0.050 A 
ATOM     24  C   UNL A   1      31.011 -30.539 -28.971  0.00  0.00    -0.057 A 
ATOM     25  C   UNL A   1      31.819 -31.545 -29.509  0.00  0.00    -0.040 A 
ATOM     26  C   UNL A   1      31.542 -32.088 -30.770  0.00  0.00    +0.036 A 
ATOM     27  C   UNL A   1      30.449 -31.601 -31.486  0.00  0.00    -0.040 A 
ATOM     28  C   UNL A   1      29.639 -30.594 -30.947  0.00  0.00    -0.057 A 
ENDBRANCH  18  26
ENDBRANCH  17  19
ENDBRANCH   1  17
TORSDOF 3
ENDMDL
MODEL 15
REMARK VINA RESULT:    -7.114     16.847     19.372
REMARK INTER + INTRA:          -8.676
REMARK INTER:                  -8.287
REMARK INTRA:                  -0.389
REMARK UNBOUND:                -0.314
REMARK  Name = cpd273.pdb
REMARK  7 active torsions:
REMARK  status: ('A' for Active; 'I' for Inactive)
REMARK    1  A    between atoms: C_1  and  C_2
REMARK    2  A    between atoms: C_5  and  N_6
REMARK    3  A    between atoms: C_7  and  O_9
REMARK    4  A    between atoms: O_9  and  C_10
REMARK    5  A    between atoms: C_16  and  C_17
REMARK    6  A    between atoms: N_20  and  C_21
REMARK    7  A    between atoms: N_24  and  C_25
REMARK                            x       y       z     vdW  Elec       q    Type
REMARK                         _______ _______ _______ _____ _____    ______ ____
ROOT
ATOM      1  C   UNL A   1      43.493 -18.846 -37.996  0.00  0.00    +0.134 A 
ATOM      2  C   UNL A   1      44.335 -18.522 -36.917  0.00  0.00    -0.017 A 
ATOM      3  C   UNL A   1      43.994 -18.912 -35.617  0.00  0.00    -0.037 A 
ATOM      4  C   UNL A   1      42.793 -19.573 -35.423  0.00  0.00    +0.032 A 
ATOM      5  C   UNL A   1      41.949 -19.876 -36.534  0.00  0.00    -0.017 A 
ATOM      6  C   UNL A   1      42.283 -19.516 -37.824  0.00  0.00    -0.014 A 
ATOM      7  C   UNL A   1      40.780 -20.652 -36.017  0.00  0.00    +0.002 C 
ATOM      8  C   UNL A   1      41.142 -22.147 -36.144  0.00  0.00    -0.055 C 
ATOM      9  C   UNL A   1      39.309 -20.430 -36.307  0.00  0.00    -0.054 C 
ATOM     10  C   UNL A   1      38.656 -20.867 -34.969  0.00  0.00    -0.048 C 
ATOM     11  N   UNL A   1      39.653 -20.539 -33.844  0.00  0.00    +0.433 N 
ATOM     12  C   UNL A   1      39.997 -21.744 -33.030  0.00  0.00    -0.060 C 
ATOM     13  O   UNL A   1      39.118 -19.586 -33.004  0.00  0.00    -0.289 OA
ATOM     14  C   UNL A   1      40.819 -20.004 -34.619  0.00  0.00    +0.039 C 
ATOM     15  N   UNL A   1      42.213 -20.011 -34.167  0.00  0.00    -0.341 N 
ATOM     16  C   UNL A   1      42.518 -19.145 -33.030  0.00  0.00    -0.001 C 
ENDROOT
BRANCH   1  17
ATOM     17  O   UNL A   1      43.804 -18.436 -39.319  0.00  0.00    -0.411 OA
BRANCH  17  19
ATOM     18  N   UNL A   1      44.770 -20.458 -39.982  0.00  0.00    -0.251 N 
ATOM     19  C   UNL A   1      44.668 -19.104 -40.210  0.00  0.00    +0.410 C 
ATOM     20  O   UNL A   1      45.205 -18.469 -41.110  0.00  0.00    -0.226 OA
ATOM     21  H   UNL A   1      44.167 -20.829 -39.299  0.00  0.00    +0.000 HD
BRANCH  18  26
ATOM     22  C   UNL A   1      48.077 -24.253 -42.715  0.00  0.00    -0.040 C 
ATOM     23  C   UNL A   1      47.218 -23.269 -41.980  0.00  0.00    -0.050 A 
ATOM     24  C   UNL A   1      46.112 -22.684 -42.605  0.00  0.00    -0.057 A 
ATOM     25  C   UNL A   1      45.325 -21.751 -41.923  0.00  0.00    -0.040 A 
ATOM     26  C   UNL A   1      45.635 -21.375 -40.611  0.00  0.00    +0.036 A 
ATOM     27  C   UNL A   1      46.751 -21.942 -39.996  0.00  0.00    -0.040 A 
ATOM     28  C   UNL A   1      47.540 -22.878 -40.677  0.00  0.00    -0.057 A 
ENDBRANCH  18  26
ENDBRANCH  17  19
ENDBRANCH   1  17
TORSDOF 3
ENDMDL
MODEL 16
REMARK VINA RESULT:    -6.938     17.403     20.292
REMARK INTER + INTRA:          -8.469
REMARK INTER:                  -8.045
REMARK INTRA:                  -0.424
REMARK UNBOUND:                -0.314
REMARK  Name = cpd273.pdb
REMARK  7 active torsions:
REMARK  status: ('A' for Active; 'I' for Inactive)
REMARK    1  A    between atoms: C_1  and  C_2
REMARK    2  A    between atoms: C_5  and  N_6
REMARK    3  A    between atoms: C_7  and  O_9
REMARK    4  A    between atoms: O_9  and  C_10
REMARK    5  A    between atoms: C_16  and  C_17
REMARK    6  A    between atoms: N_20  and  C_21
REMARK    7  A    between atoms: N_24  and  C_25
REMARK                            x       y       z     vdW  Elec       q    Type
REMARK                         _______ _______ _______ _____ _____    ______ ____
ROOT
ATOM      1  C   UNL A   1      44.797 -19.085 -34.383  0.00  0.00    +0.134 A 
ATOM      2  C   UNL A   1      45.705 -20.135 -34.611  0.00  0.00    -0.017 A 
ATOM      3  C   UNL A   1      46.427 -20.192 -35.807  0.00  0.00    -0.037 A 
ATOM      4  C   UNL A   1      46.187 -19.224 -36.767  0.00  0.00    +0.032 A 
ATOM      5  C   UNL A   1      45.250 -18.178 -36.517  0.00  0.00    -0.017 A 
ATOM      6  C   UNL A   1      44.545 -18.097 -35.333  0.00  0.00    -0.014 A 
ATOM      7  C   UNL A   1      45.270 -17.258 -37.696  0.00  0.00    +0.002 C 
ATOM      8  C   UNL A   1      46.290 -16.144 -37.379  0.00  0.00    -0.055 C 
ATOM      9  C   UNL A   1      44.091 -16.701 -38.468  0.00  0.00    -0.054 C 
ATOM     10  C   UNL A   1      44.673 -16.603 -39.903  0.00  0.00    -0.048 C 
ATOM     11  N   UNL A   1      45.697 -17.741 -40.060  0.00  0.00    +0.433 N 
ATOM     12  C   UNL A   1      47.047 -17.231 -40.448  0.00  0.00    -0.060 C 
ATOM     13  O   UNL A   1      45.273 -18.626 -41.029  0.00  0.00    -0.289 OA
ATOM     14  C   UNL A   1      45.674 -18.360 -38.696  0.00  0.00    +0.039 C 
ATOM     15  N   UNL A   1      46.770 -19.124 -38.093  0.00  0.00    -0.341 N 
ATOM     16  C   UNL A   1      47.068 -20.411 -38.718  0.00  0.00    -0.001 C 
ENDROOT
BRANCH   1  17
ATOM     17  O   UNL A   1      44.032 -19.022 -33.189  0.00  0.00    -0.411 OA
BRANCH  17  19
ATOM     18  N   UNL A   1      42.618 -20.861 -33.477  0.00  0.00    -0.251 N 
ATOM     19  C   UNL A   1      42.749 -19.576 -32.998  0.00  0.00    +0.410 C 
ATOM     20  O   UNL A   1      41.898 -18.923 -32.406  0.00  0.00    -0.226 OA
ATOM     21  H   UNL A   1      43.441 -21.287 -33.807  0.00  0.00    +0.000 HD
BRANCH  18  26
ATOM     22  C   UNL A   1      37.976 -24.214 -33.620  0.00  0.00    -0.040 C 
ATOM     23  C   UNL A   1      39.189 -23.334 -33.604  0.00  0.00    -0.050 A 
ATOM     24  C   UNL A   1      40.137 -23.445 -32.582  0.00  0.00    -0.057 A 
ATOM     25  C   UNL A   1      41.257 -22.608 -32.560  0.00  0.00    -0.040 A 
ATOM     26  C   UNL A   1      41.445 -21.637 -33.551  0.00  0.00    +0.036 A 
ATOM     27  C   UNL A   1      40.489 -21.512 -34.558  0.00  0.00    -0.040 A 
ATOM     28  C   UNL A   1      39.367 -22.350 -34.582  0.00  0.00    -0.057 A 
ENDBRANCH  18  26
ENDBRANCH  17  19
ENDBRANCH   1  17
TORSDOF 3
ENDMDL
MODEL 17
REMARK VINA RESULT:    -6.913     33.335     35.351
REMARK INTER + INTRA:          -8.439
REMARK INTER:                  -8.093
REMARK INTRA:                  -0.346
REMARK UNBOUND:                -0.314
REMARK  Name = cpd273.pdb
REMARK  7 active torsions:
REMARK  status: ('A' for Active; 'I' for Inactive)
REMARK    1  A    between atoms: C_1  and  C_2
REMARK    2  A    between atoms: C_5  and  N_6
REMARK    3  A    between atoms: C_7  and  O_9
REMARK    4  A    between atoms: O_9  and  C_10
REMARK    5  A    between atoms: C_16  and  C_17
REMARK    6  A    between atoms: N_20  and  C_21
REMARK    7  A    between atoms: N_24  and  C_25
REMARK                            x       y       z     vdW  Elec       q    Type
REMARK                         _______ _______ _______ _____ _____    ______ ____
ROOT
ATOM      1  C   UNL A   1      61.732 -18.531 -10.621  0.00  0.00    +0.134 A 
ATOM      2  C   UNL A   1      61.886 -17.253 -11.188  0.00  0.00    -0.017 A 
ATOM      3  C   UNL A   1      60.816 -16.644 -11.852  0.00  0.00    -0.037 A 
ATOM      4  C   UNL A   1      59.632 -17.351 -11.975  0.00  0.00    +0.032 A 
ATOM      5  C   UNL A   1      59.506 -18.652 -11.403  0.00  0.00    -0.017 A 
ATOM      6  C   UNL A   1      60.547 -19.257 -10.727  0.00  0.00    -0.014 A 
ATOM      7  C   UNL A   1      58.103 -19.116 -11.634  0.00  0.00    +0.002 C 
ATOM      8  C   UNL A   1      57.286 -18.712 -10.389  0.00  0.00    -0.055 C 
ATOM      9  C   UNL A   1      57.637 -20.455 -12.169  0.00  0.00    -0.054 C 
ATOM     10  C   UNL A   1      56.353 -20.054 -12.943  0.00  0.00    -0.048 C 
ATOM     11  N   UNL A   1      56.570 -18.630 -13.482  0.00  0.00    +0.433 N 
ATOM     12  C   UNL A   1      55.503 -17.688 -13.024  0.00  0.00    -0.060 C 
ATOM     13  O   UNL A   1      56.573 -18.643 -14.861  0.00  0.00    -0.289 OA
ATOM     14  C   UNL A   1      57.922 -18.298 -12.928  0.00  0.00    +0.039 C 
ATOM     15  N   UNL A   1      58.424 -16.945 -12.670  0.00  0.00    -0.341 N 
ATOM     16  C   UNL A   1      58.658 -16.118 -13.851  0.00  0.00    -0.001 C 
ENDROOT
BRANCH   1  17
ATOM     17  O   UNL A   1      62.812 -19.179  -9.968  0.00  0.00    -0.411 OA
BRANCH  17  19
ATOM     18  N   UNL A   1      63.135 -21.402  -9.321  0.00  0.00    -0.251 N 
ATOM     19  C   UNL A   1      62.702 -20.148  -8.950  0.00  0.00    +0.410 C 
ATOM     20  O   UNL A   1      62.293 -19.810  -7.846  0.00  0.00    -0.226 OA
ATOM     21  H   UNL A   1      63.559 -21.470 -10.206  0.00  0.00    +0.000 HD
BRANCH  18  26
ATOM     22  C   UNL A   1      62.533 -26.338  -6.479  0.00  0.00    -0.040 C 
ATOM     23  C   UNL A   1      62.692 -25.036  -7.203  0.00  0.00    -0.050 A 
ATOM     24  C   UNL A   1      62.185 -24.873  -8.496  0.00  0.00    -0.057 A 
ATOM     25  C   UNL A   1      62.354 -23.663  -9.177  0.00  0.00    -0.040 A 
ATOM     26  C   UNL A   1      63.042 -22.598  -8.584  0.00  0.00    +0.036 A 
ATOM     27  C   UNL A   1      63.566 -22.768  -7.302  0.00  0.00    -0.040 A 
ATOM     28  C   UNL A   1      63.398 -23.979  -6.619  0.00  0.00    -0.057 A 
ENDBRANCH  18  26
ENDBRANCH  17  19
ENDBRANCH   1  17
TORSDOF 3
ENDMDL
MODEL 18
REMARK VINA RESULT:    -6.888     17.395     20.437
REMARK INTER + INTRA:          -8.410
REMARK INTER:                  -7.977
REMARK INTRA:                  -0.432
REMARK UNBOUND:                -0.314
REMARK  Name = cpd273.pdb
REMARK  7 active torsions:
REMARK  status: ('A' for Active; 'I' for Inactive)
REMARK    1  A    between atoms: C_1  and  C_2
REMARK    2  A    between atoms: C_5  and  N_6
REMARK    3  A    between atoms: C_7  and  O_9
REMARK    4  A    between atoms: O_9  and  C_10
REMARK    5  A    between atoms: C_16  and  C_17
REMARK    6  A    between atoms: N_20  and  C_21
REMARK    7  A    between atoms: N_24  and  C_25
REMARK                            x       y       z     vdW  Elec       q    Type
REMARK                         _______ _______ _______ _____ _____    ______ ____
ROOT
ATOM      1  C   UNL A   1      44.802 -19.289 -36.055  0.00  0.00    +0.134 A 
ATOM      2  C   UNL A   1      44.952 -17.945 -36.440  0.00  0.00    -0.017 A 
ATOM      3  C   UNL A   1      45.097 -17.611 -37.791  0.00  0.00    -0.037 A 
ATOM      4  C   UNL A   1      45.139 -18.637 -38.720  0.00  0.00    +0.032 A 
ATOM      5  C   UNL A   1      45.000 -19.994 -38.302  0.00  0.00    -0.017 A 
ATOM      6  C   UNL A   1      44.835 -20.337 -36.974  0.00  0.00    -0.014 A 
ATOM      7  C   UNL A   1      45.009 -20.850 -39.529  0.00  0.00    +0.002 C 
ATOM      8  C   UNL A   1      43.537 -21.042 -39.952  0.00  0.00    -0.055 C 
ATOM      9  C   UNL A   1      45.809 -22.112 -39.782  0.00  0.00    -0.054 C 
ATOM     10  C   UNL A   1      46.068 -22.017 -41.309  0.00  0.00    -0.048 C 
ATOM     11  N   UNL A   1      46.161 -20.524 -41.666  0.00  0.00    +0.433 N 
ATOM     12  C   UNL A   1      45.175 -20.136 -42.721  0.00  0.00    -0.060 C 
ATOM     13  O   UNL A   1      47.427 -20.227 -42.125  0.00  0.00    -0.289 OA
ATOM     14  C   UNL A   1      45.885 -19.878 -40.342  0.00  0.00    +0.039 C 
ATOM     15  N   UNL A   1      45.344 -18.530 -40.153  0.00  0.00    -0.341 N 
ATOM     16  C   UNL A   1      46.218 -17.430 -40.554  0.00  0.00    -0.001 C 
ENDROOT
BRANCH   1  17
ATOM     17  O   UNL A   1      44.682 -19.653 -34.689  0.00  0.00    -0.411 OA
BRANCH  17  19
ATOM     18  N   UNL A   1      42.596 -20.654 -34.360  0.00  0.00    -0.251 N 
ATOM     19  C   UNL A   1      43.485 -19.689 -33.944  0.00  0.00    +0.410 C 
ATOM     20  O   UNL A   1      43.349 -18.926 -32.995  0.00  0.00    -0.226 OA
ATOM     21  H   UNL A   1      42.919 -21.271 -35.055  0.00  0.00    +0.000 HD
BRANCH  18  26
ATOM     22  C   UNL A   1      37.302 -21.773 -32.480  0.00  0.00    -0.040 C 
ATOM     23  C   UNL A   1      38.679 -21.470 -32.990  0.00  0.00    -0.050 A 
ATOM     24  C   UNL A   1      39.769 -22.258 -32.608  0.00  0.00    -0.057 A 
ATOM     25  C   UNL A   1      41.055 -21.960 -33.070  0.00  0.00    -0.040 A 
ATOM     26  C   UNL A   1      41.278 -20.862 -33.910  0.00  0.00    +0.036 A 
ATOM     27  C   UNL A   1      40.194 -20.064 -34.273  0.00  0.00    -0.040 A 
ATOM     28  C   UNL A   1      38.905 -20.362 -33.813  0.00  0.00    -0.057 A 
ENDBRANCH  18  26
ENDBRANCH  17  19
ENDBRANCH   1  17
TORSDOF 3
ENDMDL
MODEL 19
REMARK VINA RESULT:    -6.737     16.674     19.013
REMARK INTER + INTRA:          -8.233
REMARK INTER:                  -7.875
REMARK INTRA:                  -0.358
REMARK UNBOUND:                -0.314
REMARK  Name = cpd273.pdb
REMARK  7 active torsions:
REMARK  status: ('A' for Active; 'I' for Inactive)
REMARK    1  A    between atoms: C_1  and  C_2
REMARK    2  A    between atoms: C_5  and  N_6
REMARK    3  A    between atoms: C_7  and  O_9
REMARK    4  A    between atoms: O_9  and  C_10
REMARK    5  A    between atoms: C_16  and  C_17
REMARK    6  A    between atoms: N_20  and  C_21
REMARK    7  A    between atoms: N_24  and  C_25
REMARK                            x       y       z     vdW  Elec       q    Type
REMARK                         _______ _______ _______ _____ _____    ______ ____
ROOT
ATOM      1  C   UNL A   1      44.196 -18.735 -33.567  0.00  0.00    +0.134 A 
ATOM      2  C   UNL A   1      43.519 -17.638 -33.002  0.00  0.00    -0.017 A 
ATOM      3  C   UNL A   1      42.138 -17.696 -32.790  0.00  0.00    -0.037 A 
ATOM      4  C   UNL A   1      41.459 -18.833 -33.194  0.00  0.00    +0.032 A 
ATOM      5  C   UNL A   1      42.166 -19.926 -33.778  0.00  0.00    -0.017 A 
ATOM      6  C   UNL A   1      43.532 -19.891 -33.975  0.00  0.00    -0.014 A 
ATOM      7  C   UNL A   1      41.179 -21.021 -34.033  0.00  0.00    +0.002 C 
ATOM      8  C   UNL A   1      41.196 -21.938 -32.792  0.00  0.00    -0.055 C 
ATOM      9  C   UNL A   1      40.991 -21.834 -35.298  0.00  0.00    -0.054 C 
ATOM     10  C   UNL A   1      39.463 -22.101 -35.276  0.00  0.00    -0.048 C 
ATOM     11  N   UNL A   1      38.798 -20.893 -34.595  0.00  0.00    +0.433 N 
ATOM     12  C   UNL A   1      37.975 -21.297 -33.414  0.00  0.00    -0.060 C 
ATOM     13  O   UNL A   1      37.979 -20.239 -35.490  0.00  0.00    -0.289 OA
ATOM     14  C   UNL A   1      39.987 -20.062 -34.221  0.00  0.00    +0.039 C 
ATOM     15  N   UNL A   1      40.030 -19.084 -33.131  0.00  0.00    -0.341 N 
ATOM     16  C   UNL A   1      39.202 -17.893 -33.310  0.00  0.00    -0.001 C 
ENDROOT
BRANCH   1  17
ATOM     17  O   UNL A   1      45.591 -18.687 -33.817  0.00  0.00    -0.411 OA
BRANCH  17  19
ATOM     18  N   UNL A   1      45.784 -18.782 -36.144  0.00  0.00    -0.251 N 
ATOM     19  C   UNL A   1      46.251 -19.241 -34.933  0.00  0.00    +0.410 C 
ATOM     20  O   UNL A   1      47.180 -20.020 -34.752  0.00  0.00    -0.226 OA
ATOM     21  H   UNL A   1      45.121 -18.057 -36.107  0.00  0.00    +0.000 HD
BRANCH  18  26
ATOM     22  C   UNL A   1      47.184 -20.336 -41.477  0.00  0.00    -0.040 C 
ATOM     23  C   UNL A   1      46.806 -19.947 -40.079  0.00  0.00    -0.050 A 
ATOM     24  C   UNL A   1      46.829 -18.607 -39.682  0.00  0.00    -0.057 A 
ATOM     25  C   UNL A   1      46.495 -18.251 -38.371  0.00  0.00    -0.040 A 
ATOM     26  C   UNL A   1      46.144 -19.227 -37.431  0.00  0.00    +0.036 A 
ATOM     27  C   UNL A   1      46.142 -20.566 -37.823  0.00  0.00    -0.040 A 
ATOM     28  C   UNL A   1      46.475 -20.924 -39.135  0.00  0.00    -0.057 A 
ENDBRANCH  18  26
ENDBRANCH  17  19
ENDBRANCH   1  17
TORSDOF 3
ENDMDL
MODEL 20
REMARK VINA RESULT:    -6.699     16.133     19.221
REMARK INTER + INTRA:          -8.188
REMARK INTER:                  -7.976
REMARK INTRA:                  -0.211
REMARK UNBOUND:                -0.314
REMARK  Name = cpd273.pdb
REMARK  7 active torsions:
REMARK  status: ('A' for Active; 'I' for Inactive)
REMARK    1  A    between atoms: C_1  and  C_2
REMARK    2  A    between atoms: C_5  and  N_6
REMARK    3  A    between atoms: C_7  and  O_9
REMARK    4  A    between atoms: O_9  and  C_10
REMARK    5  A    between atoms: C_16  and  C_17
REMARK    6  A    between atoms: N_20  and  C_21
REMARK    7  A    between atoms: N_24  and  C_25
REMARK                            x       y       z     vdW  Elec       q    Type
REMARK                         _______ _______ _______ _____ _____    ______ ____
ROOT
ATOM      1  C   UNL A   1      43.515 -18.866 -34.030  0.00  0.00    +0.134 A 
ATOM      2  C   UNL A   1      44.826 -18.385 -33.862  0.00  0.00    -0.017 A 
ATOM      3  C   UNL A   1      45.694 -18.311 -34.956  0.00  0.00    -0.037 A 
ATOM      4  C   UNL A   1      45.244 -18.767 -36.184  0.00  0.00    +0.032 A 
ATOM      5  C   UNL A   1      43.914 -19.265 -36.325  0.00  0.00    -0.017 A 
ATOM      6  C   UNL A   1      43.040 -19.325 -35.258  0.00  0.00    -0.014 A 
ATOM      7  C   UNL A   1      43.706 -19.604 -37.767  0.00  0.00    +0.002 C 
ATOM      8  C   UNL A   1      43.093 -18.356 -38.437  0.00  0.00    -0.055 C 
ATOM      9  C   UNL A   1      43.119 -20.872 -38.354  0.00  0.00    -0.054 C 
ATOM     10  C   UNL A   1      43.910 -20.998 -39.682  0.00  0.00    -0.048 C 
ATOM     11  N   UNL A   1      45.307 -20.401 -39.441  0.00  0.00    +0.433 N 
ATOM     12  C   UNL A   1      45.622 -19.303 -40.406  0.00  0.00    -0.060 C 
ATOM     13  O   UNL A   1      46.268 -21.381 -39.571  0.00  0.00    -0.289 OA
ATOM     14  C   UNL A   1      45.192 -19.921 -38.026  0.00  0.00    +0.039 C 
ATOM     15  N   UNL A   1      45.985 -18.843 -37.429  0.00  0.00    -0.341 N 
ATOM     16  C   UNL A   1      47.411 -19.118 -37.264  0.00  0.00    -0.001 C 
ENDROOT
BRANCH   1  17
ATOM     17  O   UNL A   1      42.627 -18.977 -32.929  0.00  0.00    -0.411 OA
BRANCH  17  19
ATOM     18  N   UNL A   1      41.553 -21.025 -33.271  0.00  0.00    -0.251 N 
ATOM     19  C   UNL A   1      41.418 -19.703 -32.911  0.00  0.00    +0.410 C 
ATOM     20  O   UNL A   1      40.390 -19.144 -32.547  0.00  0.00    -0.226 OA
ATOM     21  H   UNL A   1      42.474 -21.346 -33.406  0.00  0.00    +0.000 HD
BRANCH  18  26
ATOM     22  C   UNL A   1      37.555 -25.070 -33.946  0.00  0.00    -0.040 C 
ATOM     23  C   UNL A   1      38.600 -24.007 -33.791  0.00  0.00    -0.050 A 
ATOM     24  C   UNL A   1      39.545 -24.082 -32.763  0.00  0.00    -0.057 A 
ATOM     25  C   UNL A   1      40.505 -23.077 -32.609  0.00  0.00    -0.040 A 
ATOM     26  C   UNL A   1      40.531 -21.973 -33.471  0.00  0.00    +0.036 A 
ATOM     27  C   UNL A   1      39.575 -21.889 -34.482  0.00  0.00    -0.040 A 
ATOM     28  C   UNL A   1      38.613 -22.895 -34.638  0.00  0.00    -0.057 A 
ENDBRANCH  18  26
ENDBRANCH  17  19
ENDBRANCH   1  17
TORSDOF 3
ENDMDL
