@<TRIPOS>MOLECULE
*****
 27 30 0 0 0
SMALL
GASTEIGER

@<TRIPOS>ATOM
      1 C           0.8913   -1.5189    0.0000 C.3     1  UNL1        0.0310
      2 C           0.0072   -1.0168    0.0000 C.ar    1  UNL1       -0.0218
      3 C          -0.8698   -1.5313    0.0000 C.ar    1  UNL1       -0.0029
      4 C          -1.7539   -1.0291    0.0000 C.ar    1  UNL1        0.0164
      5 C          -1.7611   -0.0124    0.0000 C.ar    1  UNL1        0.0767
      6 N          -2.6452    0.4898    0.0000 N.am    1  UNL1       -0.1421
      7 C          -2.6523    1.5066    0.0000 C.2     1  UNL1        0.4300
      8 O          -1.7754    2.0211    0.0000 O.2     1  UNL1       -0.2238
      9 O          -3.5364    2.0087    0.0000 O.3     1  UNL1       -0.4089
     10 C          -4.4134    1.4942    0.0000 C.ar    1  UNL1        0.1499
     11 C          -4.4069    0.5647    0.0000 C.ar    1  UNL1        0.0389
     12 C          -5.2086    0.0942    0.0000 C.ar    1  UNL1        0.0175
     13 C          -6.0168    0.5533    0.0000 C.ar    1  UNL1        0.0484
     14 C          -6.0234    1.4828    0.0000 C.ar    1  UNL1        0.0010
     15 C          -5.2216    1.9533    0.0000 C.ar    1  UNL1        0.0349
     16 C          -6.8376    1.9530    0.0000 C.3     1  UNL1        0.0894
     17 C          -6.3376    2.8190    0.0000 C.3     1  UNL1        0.0123
     18 C          -7.6522    2.4233    0.0000 C.3     1  UNL1        0.0723
     19 C          -8.4728    1.9427    0.0000 C.3     1  UNL1        0.1067
     20 N          -8.4663    1.0131    0.0000 N.3     1  UNL1        0.2728
     21 C          -9.3306    0.5101    0.0000 C.3     1  UNL1        0.1677
     22 O          -9.3323    1.5131    0.0000 O.co2   1  UNL1       -0.7702
     23 C          -7.6518    0.5429    0.0000 C.3     1  UNL1        0.1391
     24 N          -6.8375    0.0727    0.0000 N.pl3   1  UNL1       -0.2662
     25 C          -6.8344   -0.9273    0.0000 C.3     1  UNL1        0.1174
     26 C          -0.8841    0.5022    0.0000 C.ar    1  UNL1        0.0164
     27 C          -0.0000   -0.0000    0.0000 C.ar    1  UNL1       -0.0029
@<TRIPOS>UNITY_ATOM_ATTR
20 1
charge 1
22 1
charge -1
@<TRIPOS>BOND
     1     1     2    1
     2     2     3   ar
     3     3     4   ar
     4     4     5   ar
     5     5     6    1
     6     6     7   am
     7     7     8    2
     8     7     9    1
     9     9    10    1
    10    10    11   ar
    11    11    12   ar
    12    12    13   ar
    13    13    14   ar
    14    14    15   ar
    15    10    15   ar
    16    14    16    1
    17    16    17    1
    18    16    18    1
    19    18    19    1
    20    19    20    1
    21    20    21    1
    22    20    22    1
    23    20    23    1
    24    16    23    1
    25    23    24    1
    26    13    24    1
    27    24    25    1
    28     5    26   ar
    29    26    27   ar
    30     2    27   ar
