MODEL 1
REMARK VINA RESULT:    -8.181      0.000      0.000
REMARK INTER + INTRA:         -11.214
REMARK INTER:                 -10.572
REMARK INTRA:                  -0.642
REMARK UNBOUND:                -0.642
REMARK  Name = cpd327.pdb
REMARK  5 active torsions:
REMARK  status: ('A' for Active; 'I' for Inactive)
REMARK    1  A    between atoms: C_2  and  C_3
REMARK    2  A    between atoms: C_2  and  C_19
REMARK    3  A    between atoms: C_4  and  C_5
REMARK    4  A    between atoms: N_9  and  C_10
REMARK    5  A    between atoms: C_10  and  C_11
REMARK                            x       y       z     vdW  Elec       q    Type
REMARK                         _______ _______ _______ _____ _____    ______ ____
ROOT
ATOM      1  C   UNL A   1      37.391 -35.462 -31.560  0.00  0.00    -0.011 C 
ATOM      2  C   UNL A   1      36.784 -35.882 -30.439  0.00  0.00    -0.049 C 
ENDROOT
BRANCH   2   3
ATOM      3  C   UNL A   1      35.425 -36.441 -30.411  0.00  0.00    -0.009 A 
ATOM      4  C   UNL A   1      35.109 -37.607 -29.712  0.00  0.00    -0.052 A 
ATOM      5  C   UNL A   1      33.801 -38.079 -29.703  0.00  0.00    -0.045 A 
ATOM      6  C   UNL A   1      32.818 -37.374 -30.383  0.00  0.00    +0.005 A 
ATOM      7  N   UNL A   1      33.121 -36.229 -31.040  0.00  0.00    -0.348 N 
ATOM      8  C   UNL A   1      34.393 -35.761 -31.062  0.00  0.00    +0.012 A 
BRANCH   7   9
ATOM      9  C   UNL A   1      32.050 -35.494 -31.760  0.00  0.00    +0.048 C 
BRANCH   9  10
ATOM     10  C   UNL A   1      31.679 -34.221 -31.041  0.00  0.00    -0.028 A 
ATOM     11  C   UNL A   1      31.495 -33.021 -31.747  0.00  0.00    -0.056 A 
ATOM     12  C   UNL A   1      31.158 -31.844 -31.071  0.00  0.00    -0.047 A 
ATOM     13  C   UNL A   1      30.996 -31.861 -29.688  0.00  0.00    +0.018 A 
ATOM     14 BR   UNL A   1      30.541 -30.271 -28.776  0.00  0.00    -0.050 Br
ATOM     15  C   UNL A   1      31.163 -33.045 -28.975  0.00  0.00    -0.047 A 
ATOM     16  C   UNL A   1      31.501 -34.222 -29.648  0.00  0.00    -0.056 A 
ENDBRANCH   9  10
ENDBRANCH   7   9
ENDBRANCH   2   3
BRANCH   1  18
ATOM     17  O   UNL A   1      38.874 -33.731 -31.979  0.00  0.00    -0.284 OA
ATOM     18  C   UNL A   1      38.781 -34.913 -31.646  0.00  0.00    +0.221 C 
BRANCH  18  19
ATOM     19  C   UNL A   1      39.938 -35.729 -31.336  0.00  0.00    +0.176 A 
ATOM     20  C   UNL A   1      40.005 -37.058 -30.955  0.00  0.00    -0.005 A 
ATOM     21  C   UNL A   1      41.377 -37.385 -30.818  0.00  0.00    +0.022 A 
ATOM     22  C   UNL A   1      42.105 -38.536 -30.465  0.00  0.00    -0.037 A 
ATOM     23  C   UNL A   1      43.504 -38.458 -30.455  0.00  0.00    +0.019 A 
ATOM     24 BR   UNL A   1      44.509 -39.991 -29.984  0.00  0.00    -0.050 Br
ATOM     25  C   UNL A   1      44.173 -37.277 -30.785  0.00  0.00    -0.044 A 
ATOM     26  C   UNL A   1      43.462 -36.123 -31.138  0.00  0.00    -0.018 A 
ATOM     27  C   UNL A   1      42.073 -36.226 -31.139  0.00  0.00    +0.136 A 
ATOM     28  O   UNL A   1      41.207 -35.225 -31.453  0.00  0.00    -0.452 OA
ENDBRANCH  18  19
ENDBRANCH   1  18
TORSDOF 5
ENDMDL
MODEL 2
REMARK VINA RESULT:    -8.100      6.474      9.886
REMARK INTER + INTRA:         -11.109
REMARK INTER:                 -10.529
REMARK INTRA:                  -0.579
REMARK UNBOUND:                -0.642
REMARK  Name = cpd327.pdb
REMARK  5 active torsions:
REMARK  status: ('A' for Active; 'I' for Inactive)
REMARK    1  A    between atoms: C_2  and  C_3
REMARK    2  A    between atoms: C_2  and  C_19
REMARK    3  A    between atoms: C_4  and  C_5
REMARK    4  A    between atoms: N_9  and  C_10
REMARK    5  A    between atoms: C_10  and  C_11
REMARK                            x       y       z     vdW  Elec       q    Type
REMARK                         _______ _______ _______ _____ _____    ______ ____
ROOT
ATOM      1  C   UNL A   1      33.571 -36.746 -25.856  0.00  0.00    -0.011 C 
ATOM      2  C   UNL A   1      34.579 -37.604 -26.076  0.00  0.00    -0.049 C 
ENDROOT
BRANCH   2   3
ATOM      3  C   UNL A   1      35.097 -37.925 -27.413  0.00  0.00    -0.009 A 
ATOM      4  C   UNL A   1      35.009 -39.205 -27.963  0.00  0.00    -0.052 A 
ATOM      5  C   UNL A   1      35.498 -39.447 -29.242  0.00  0.00    -0.045 A 
ATOM      6  C   UNL A   1      36.060 -38.404 -29.965  0.00  0.00    +0.005 A 
ATOM      7  N   UNL A   1      36.124 -37.158 -29.439  0.00  0.00    -0.348 N 
ATOM      8  C   UNL A   1      35.656 -36.909 -28.192  0.00  0.00    +0.012 A 
BRANCH   7   9
ATOM      9  C   UNL A   1      36.731 -36.060 -30.234  0.00  0.00    +0.048 C 
BRANCH   9  10
ATOM     10  C   UNL A   1      38.165 -36.368 -30.588  0.00  0.00    -0.028 A 
ATOM     11  C   UNL A   1      38.721 -35.924 -31.799  0.00  0.00    -0.056 A 
ATOM     12  C   UNL A   1      40.048 -36.219 -32.122  0.00  0.00    -0.047 A 
ATOM     13  C   UNL A   1      40.831 -36.954 -31.233  0.00  0.00    +0.018 A 
ATOM     14 BR   UNL A   1      42.624 -37.353 -31.671  0.00  0.00    -0.050 Br
ATOM     15  C   UNL A   1      40.299 -37.391 -30.024  0.00  0.00    -0.047 A 
ATOM     16  C   UNL A   1      38.971 -37.098 -29.700  0.00  0.00    -0.056 A 
ENDBRANCH   9  10
ENDBRANCH   7   9
ENDBRANCH   2   3
BRANCH   1  18
ATOM     17  O   UNL A   1      32.334 -35.345 -24.485  0.00  0.00    -0.284 OA
ATOM     18  C   UNL A   1      33.026 -36.363 -24.515  0.00  0.00    +0.221 C 
BRANCH  18  19
ATOM     19  C   UNL A   1      33.290 -37.162 -23.335  0.00  0.00    +0.176 A 
ATOM     20  C   UNL A   1      32.678 -38.326 -22.900  0.00  0.00    -0.005 A 
ATOM     21  C   UNL A   1      33.341 -38.729 -21.714  0.00  0.00    +0.022 A 
ATOM     22  C   UNL A   1      33.212 -39.794 -20.804  0.00  0.00    -0.037 A 
ATOM     23  C   UNL A   1      34.099 -39.850 -19.720  0.00  0.00    +0.019 A 
ATOM     24 BR   UNL A   1      33.949 -41.271 -18.480  0.00  0.00    -0.050 Br
ATOM     25  C   UNL A   1      35.090 -38.883 -19.536  0.00  0.00    -0.044 A 
ATOM     26  C   UNL A   1      35.230 -37.818 -20.433  0.00  0.00    -0.018 A 
ATOM     27  C   UNL A   1      34.336 -37.783 -21.501  0.00  0.00    +0.136 A 
ATOM     28  O   UNL A   1      34.309 -36.836 -22.478  0.00  0.00    -0.452 OA
ENDBRANCH  18  19
ENDBRANCH   1  18
TORSDOF 5
ENDMDL
MODEL 3
REMARK VINA RESULT:    -8.063      7.213     10.311
REMARK INTER + INTRA:         -11.062
REMARK INTER:                 -10.442
REMARK INTRA:                  -0.620
REMARK UNBOUND:                -0.642
REMARK  Name = cpd327.pdb
REMARK  5 active torsions:
REMARK  status: ('A' for Active; 'I' for Inactive)
REMARK    1  A    between atoms: C_2  and  C_3
REMARK    2  A    between atoms: C_2  and  C_19
REMARK    3  A    between atoms: C_4  and  C_5
REMARK    4  A    between atoms: N_9  and  C_10
REMARK    5  A    between atoms: C_10  and  C_11
REMARK                            x       y       z     vdW  Elec       q    Type
REMARK                         _______ _______ _______ _____ _____    ______ ____
ROOT
ATOM      1  C   UNL A   1      34.467 -41.607 -33.124  0.00  0.00    -0.011 C 
ATOM      2  C   UNL A   1      34.763 -40.410 -32.592  0.00  0.00    -0.049 C 
ENDROOT
BRANCH   2   3
ATOM      3  C   UNL A   1      35.438 -40.239 -31.299  0.00  0.00    -0.009 A 
ATOM      4  C   UNL A   1      35.725 -41.314 -30.456  0.00  0.00    -0.052 A 
ATOM      5  C   UNL A   1      36.385 -41.096 -29.251  0.00  0.00    -0.045 A 
ATOM      6  C   UNL A   1      36.764 -39.807 -28.906  0.00  0.00    +0.005 A 
ATOM      7  N   UNL A   1      36.507 -38.768 -29.736  0.00  0.00    -0.348 N 
ATOM      8  C   UNL A   1      35.860 -38.965 -30.910  0.00  0.00    +0.012 A 
BRANCH   7   9
ATOM      9  C   UNL A   1      36.923 -37.398 -29.342  0.00  0.00    +0.048 C 
BRANCH   9  10
ATOM     10  C   UNL A   1      38.294 -37.065 -29.878  0.00  0.00    -0.028 A 
ATOM     11  C   UNL A   1      38.454 -36.176 -30.953  0.00  0.00    -0.056 A 
ATOM     12  C   UNL A   1      39.727 -35.879 -31.446  0.00  0.00    -0.047 A 
ATOM     13  C   UNL A   1      40.850 -36.462 -30.863  0.00  0.00    +0.018 A 
ATOM     14 BR   UNL A   1      42.570 -36.061 -31.531  0.00  0.00    -0.050 Br
ATOM     15  C   UNL A   1      40.710 -37.336 -29.789  0.00  0.00    -0.047 A 
ATOM     16  C   UNL A   1      39.438 -37.636 -29.296  0.00  0.00    -0.056 A 
ENDBRANCH   9  10
ENDBRANCH   7   9
ENDBRANCH   2   3
BRANCH   1  18
ATOM     17  O   UNL A   1      33.495 -40.823 -35.076  0.00  0.00    -0.284 OA
ATOM     18  C   UNL A   1      33.807 -41.835 -34.448  0.00  0.00    +0.221 C 
BRANCH  18  19
ATOM     19  C   UNL A   1      33.573 -43.171 -34.957  0.00  0.00    +0.176 A 
ATOM     20  C   UNL A   1      34.377 -44.296 -34.890  0.00  0.00    -0.005 A 
ATOM     21  C   UNL A   1      33.664 -45.358 -35.501  0.00  0.00    +0.022 A 
ATOM     22  C   UNL A   1      33.912 -46.719 -35.754  0.00  0.00    -0.037 A 
ATOM     23  C   UNL A   1      32.914 -47.465 -36.396  0.00  0.00    +0.019 A 
ATOM     24 BR   UNL A   1      33.219 -49.299 -36.749  0.00  0.00    -0.050 Br
ATOM     25  C   UNL A   1      31.701 -46.888 -36.780  0.00  0.00    -0.044 A 
ATOM     26  C   UNL A   1      31.441 -45.534 -36.535  0.00  0.00    -0.018 A 
ATOM     27  C   UNL A   1      32.448 -44.814 -35.897  0.00  0.00    +0.136 A 
ATOM     28  O   UNL A   1      32.390 -43.494 -35.570  0.00  0.00    -0.452 OA
ENDBRANCH  18  19
ENDBRANCH   1  18
TORSDOF 5
ENDMDL
MODEL 4
REMARK VINA RESULT:    -8.057     16.333     19.331
REMARK INTER + INTRA:         -11.054
REMARK INTER:                 -10.148
REMARK INTRA:                  -0.906
REMARK UNBOUND:                -0.642
REMARK  Name = cpd327.pdb
REMARK  5 active torsions:
REMARK  status: ('A' for Active; 'I' for Inactive)
REMARK    1  A    between atoms: C_2  and  C_3
REMARK    2  A    between atoms: C_2  and  C_19
REMARK    3  A    between atoms: C_4  and  C_5
REMARK    4  A    between atoms: N_9  and  C_10
REMARK    5  A    between atoms: C_10  and  C_11
REMARK                            x       y       z     vdW  Elec       q    Type
REMARK                         _______ _______ _______ _____ _____    ______ ____
ROOT
ATOM      1  C   UNL A   1      42.146 -22.037 -39.337  0.00  0.00    -0.011 C 
ATOM      2  C   UNL A   1      42.527 -21.655 -40.567  0.00  0.00    -0.049 C 
ENDROOT
BRANCH   2   3
ATOM      3  C   UNL A   1      43.816 -21.013 -40.856  0.00  0.00    -0.009 A 
ATOM      4  C   UNL A   1      44.081 -20.377 -42.069  0.00  0.00    -0.052 A 
ATOM      5  C   UNL A   1      45.313 -19.767 -42.281  0.00  0.00    -0.045 A 
ATOM      6  C   UNL A   1      46.265 -19.787 -41.271  0.00  0.00    +0.005 A 
ATOM      7  N   UNL A   1      45.998 -20.384 -40.085  0.00  0.00    -0.348 N 
ATOM      8  C   UNL A   1      44.804 -20.987 -39.868  0.00  0.00    +0.012 A 
BRANCH   7   9
ATOM      9  C   UNL A   1      47.035 -20.393 -39.023  0.00  0.00    +0.048 C 
BRANCH   9  10
ATOM     10  C   UNL A   1      46.545 -19.708 -37.771  0.00  0.00    -0.028 A 
ATOM     11  C   UNL A   1      46.283 -18.328 -37.758  0.00  0.00    -0.056 A 
ATOM     12  C   UNL A   1      45.835 -17.701 -36.592  0.00  0.00    -0.047 A 
ATOM     13  C   UNL A   1      45.639 -18.450 -35.434  0.00  0.00    +0.018 A 
ATOM     14 BR   UNL A   1      45.035 -17.601 -33.858  0.00  0.00    -0.050 Br
ATOM     15  C   UNL A   1      45.882 -19.820 -35.433  0.00  0.00    -0.047 A 
ATOM     16  C   UNL A   1      46.332 -20.448 -36.597  0.00  0.00    -0.056 A 
ENDBRANCH   9  10
ENDBRANCH   7   9
ENDBRANCH   2   3
BRANCH   1  18
ATOM     17  O   UNL A   1      40.467 -23.566 -39.799  0.00  0.00    -0.284 OA
ATOM     18  C   UNL A   1      40.858 -22.720 -38.995  0.00  0.00    +0.221 C 
BRANCH  18  19
ATOM     19  C   UNL A   1      40.137 -22.408 -37.778  0.00  0.00    +0.176 A 
ATOM     20  C   UNL A   1      39.515 -21.232 -37.395  0.00  0.00    -0.005 A 
ATOM     21  C   UNL A   1      38.915 -21.466 -36.133  0.00  0.00    +0.022 A 
ATOM     22  C   UNL A   1      38.158 -20.705 -35.224  0.00  0.00    -0.037 A 
ATOM     23  C   UNL A   1      37.724 -21.323 -34.043  0.00  0.00    +0.019 A 
ATOM     24 BR   UNL A   1      36.703 -20.325 -32.802  0.00  0.00    -0.050 Br
ATOM     25  C   UNL A   1      38.027 -22.658 -33.762  0.00  0.00    -0.044 A 
ATOM     26  C   UNL A   1      38.781 -23.427 -34.657  0.00  0.00    -0.018 A 
ATOM     27  C   UNL A   1      39.201 -22.790 -35.822  0.00  0.00    +0.136 A 
ATOM     28  O   UNL A   1      39.938 -23.362 -36.814  0.00  0.00    -0.452 OA
ENDBRANCH  18  19
ENDBRANCH   1  18
TORSDOF 5
ENDMDL
MODEL 5
REMARK VINA RESULT:    -7.918      2.812      4.494
REMARK INTER + INTRA:         -10.874
REMARK INTER:                 -10.302
REMARK INTRA:                  -0.571
REMARK UNBOUND:                -0.642
REMARK  Name = cpd327.pdb
REMARK  5 active torsions:
REMARK  status: ('A' for Active; 'I' for Inactive)
REMARK    1  A    between atoms: C_2  and  C_3
REMARK    2  A    between atoms: C_2  and  C_19
REMARK    3  A    between atoms: C_4  and  C_5
REMARK    4  A    between atoms: N_9  and  C_10
REMARK    5  A    between atoms: C_10  and  C_11
REMARK                            x       y       z     vdW  Elec       q    Type
REMARK                         _______ _______ _______ _____ _____    ______ ____
ROOT
ATOM      1  C   UNL A   1      34.456 -35.215 -30.298  0.00  0.00    -0.011 C 
ATOM      2  C   UNL A   1      34.026 -34.328 -29.388  0.00  0.00    -0.049 C 
ENDROOT
BRANCH   2   3
ATOM      3  C   UNL A   1      33.172 -33.177 -29.715  0.00  0.00    -0.009 A 
ATOM      4  C   UNL A   1      33.695 -31.944 -30.107  0.00  0.00    -0.052 A 
ATOM      5  C   UNL A   1      32.839 -30.895 -30.425  0.00  0.00    -0.045 A 
ATOM      6  C   UNL A   1      31.467 -31.093 -30.359  0.00  0.00    +0.005 A 
ATOM      7  N   UNL A   1      30.961 -32.297 -30.002  0.00  0.00    -0.348 N 
ATOM      8  C   UNL A   1      31.783 -33.325 -29.684  0.00  0.00    +0.012 A 
BRANCH   7   9
ATOM      9  C   UNL A   1      29.488 -32.480 -29.939  0.00  0.00    +0.048 C 
BRANCH   9  10
ATOM     10  C   UNL A   1      28.821 -31.326 -29.233  0.00  0.00    -0.028 A 
ATOM     11  C   UNL A   1      28.878 -31.203 -27.835  0.00  0.00    -0.056 A 
ATOM     12  C   UNL A   1      28.250 -30.134 -27.190  0.00  0.00    -0.047 A 
ATOM     13  C   UNL A   1      27.569 -29.176 -27.938  0.00  0.00    +0.018 A 
ATOM     14 BR   UNL A   1      26.721 -27.732 -27.065  0.00  0.00    -0.050 Br
ATOM     15  C   UNL A   1      27.514 -29.276 -29.325  0.00  0.00    -0.047 A 
ATOM     16  C   UNL A   1      28.139 -30.346 -29.972  0.00  0.00    -0.056 A 
ENDBRANCH   9  10
ENDBRANCH   7   9
ENDBRANCH   2   3
BRANCH   1  18
ATOM     17  O   UNL A   1      34.732 -37.358 -29.457  0.00  0.00    -0.284 OA
ATOM     18  C   UNL A   1      35.302 -36.418 -30.013  0.00  0.00    +0.221 C 
BRANCH  18  19
ATOM     19  C   UNL A   1      36.700 -36.467 -30.390  0.00  0.00    +0.176 A 
ATOM     20  C   UNL A   1      37.765 -37.087 -29.759  0.00  0.00    -0.005 A 
ATOM     21  C   UNL A   1      38.912 -36.870 -30.563  0.00  0.00    +0.022 A 
ATOM     22  C   UNL A   1      40.271 -37.223 -30.489  0.00  0.00    -0.037 A 
ATOM     23  C   UNL A   1      41.119 -36.812 -31.527  0.00  0.00    +0.019 A 
ATOM     24 BR   UNL A   1      42.953 -37.273 -31.455  0.00  0.00    -0.050 Br
ATOM     25  C   UNL A   1      40.643 -36.072 -32.612  0.00  0.00    -0.044 A 
ATOM     26  C   UNL A   1      39.292 -35.713 -32.698  0.00  0.00    -0.018 A 
ATOM     27  C   UNL A   1      38.470 -36.132 -31.655  0.00  0.00    +0.136 A 
ATOM     28  O   UNL A   1      37.135 -35.887 -31.553  0.00  0.00    -0.452 OA
ENDBRANCH  18  19
ENDBRANCH   1  18
TORSDOF 5
ENDMDL
MODEL 6
REMARK VINA RESULT:    -7.791      2.922      9.750
REMARK INTER + INTRA:         -10.710
REMARK INTER:                 -10.233
REMARK INTRA:                  -0.477
REMARK UNBOUND:                -0.642
REMARK  Name = cpd327.pdb
REMARK  5 active torsions:
REMARK  status: ('A' for Active; 'I' for Inactive)
REMARK    1  A    between atoms: C_2  and  C_3
REMARK    2  A    between atoms: C_2  and  C_19
REMARK    3  A    between atoms: C_4  and  C_5
REMARK    4  A    between atoms: N_9  and  C_10
REMARK    5  A    between atoms: C_10  and  C_11
REMARK                            x       y       z     vdW  Elec       q    Type
REMARK                         _______ _______ _______ _____ _____    ______ ____
ROOT
ATOM      1  C   UNL A   1      34.745 -34.146 -30.210  0.00  0.00    -0.011 C 
ATOM      2  C   UNL A   1      33.930 -34.704 -29.302  0.00  0.00    -0.049 C 
ENDROOT
BRANCH   2   3
ATOM      3  C   UNL A   1      34.295 -35.873 -28.490  0.00  0.00    -0.009 A 
ATOM      4  C   UNL A   1      33.750 -36.108 -27.227  0.00  0.00    -0.052 A 
ATOM      5  C   UNL A   1      34.116 -37.243 -26.512  0.00  0.00    -0.045 A 
ATOM      6  C   UNL A   1      35.016 -38.139 -27.071  0.00  0.00    +0.005 A 
ATOM      7  N   UNL A   1      35.526 -37.923 -28.307  0.00  0.00    -0.348 N 
ATOM      8  C   UNL A   1      35.182 -36.818 -29.013  0.00  0.00    +0.012 A 
BRANCH   7   9
ATOM      9  C   UNL A   1      36.487 -38.897 -28.882  0.00  0.00    +0.048 C 
BRANCH   9  10
ATOM     10  C   UNL A   1      37.756 -38.217 -29.332  0.00  0.00    -0.028 A 
ATOM     11  C   UNL A   1      37.774 -37.408 -30.480  0.00  0.00    -0.056 A 
ATOM     12  C   UNL A   1      38.956 -36.787 -30.893  0.00  0.00    -0.047 A 
ATOM     13  C   UNL A   1      40.126 -36.964 -30.158  0.00  0.00    +0.018 A 
ATOM     14 BR   UNL A   1      41.723 -36.126 -30.718  0.00  0.00    -0.050 Br
ATOM     15  C   UNL A   1      40.123 -37.753 -29.011  0.00  0.00    -0.047 A 
ATOM     16  C   UNL A   1      38.942 -38.376 -28.598  0.00  0.00    -0.056 A 
ENDBRANCH   9  10
ENDBRANCH   7   9
ENDBRANCH   2   3
BRANCH   1  18
ATOM     17  O   UNL A   1      35.400 -32.362 -31.537  0.00  0.00    -0.284 OA
ATOM     18  C   UNL A   1      34.433 -32.940 -31.040  0.00  0.00    +0.221 C 
BRANCH  18  19
ATOM     19  C   UNL A   1      33.069 -32.500 -31.253  0.00  0.00    +0.176 A 
ATOM     20  C   UNL A   1      32.034 -33.124 -31.930  0.00  0.00    -0.005 A 
ATOM     21  C   UNL A   1      30.892 -32.295 -31.803  0.00  0.00    +0.022 A 
ATOM     22  C   UNL A   1      29.558 -32.349 -32.246  0.00  0.00    -0.037 A 
ATOM     23  C   UNL A   1      28.699 -31.300 -31.892  0.00  0.00    +0.019 A 
ATOM     24 BR   UNL A   1      26.899 -31.346 -32.473  0.00  0.00    -0.050 Br
ATOM     25  C   UNL A   1      29.140 -30.223 -31.119  0.00  0.00    -0.044 A 
ATOM     26  C   UNL A   1      30.465 -30.155 -30.672  0.00  0.00    -0.018 A 
ATOM     27  C   UNL A   1      31.299 -31.209 -31.038  0.00  0.00    +0.136 A 
ATOM     28  O   UNL A   1      32.613 -31.330 -30.704  0.00  0.00    -0.452 OA
ENDBRANCH  18  19
ENDBRANCH   1  18
TORSDOF 5
ENDMDL
MODEL 7
REMARK VINA RESULT:    -7.774     24.340     27.860
REMARK INTER + INTRA:         -10.688
REMARK INTER:                  -9.949
REMARK INTRA:                  -0.739
REMARK UNBOUND:                -0.642
REMARK  Name = cpd327.pdb
REMARK  5 active torsions:
REMARK  status: ('A' for Active; 'I' for Inactive)
REMARK    1  A    between atoms: C_2  and  C_3
REMARK    2  A    between atoms: C_2  and  C_19
REMARK    3  A    between atoms: C_4  and  C_5
REMARK    4  A    between atoms: N_9  and  C_10
REMARK    5  A    between atoms: C_10  and  C_11
REMARK                            x       y       z     vdW  Elec       q    Type
REMARK                         _______ _______ _______ _____ _____    ______ ____
ROOT
ATOM      1  C   UNL A   1      51.068 -31.473 -53.847  0.00  0.00    -0.011 C 
ATOM      2  C   UNL A   1      51.951 -31.332 -52.845  0.00  0.00    -0.049 C 
ENDROOT
BRANCH   2   3
ATOM      3  C   UNL A   1      53.380 -31.649 -52.971  0.00  0.00    -0.009 A 
ATOM      4  C   UNL A   1      54.308 -30.738 -53.477  0.00  0.00    -0.052 A 
ATOM      5  C   UNL A   1      55.652 -31.084 -53.554  0.00  0.00    -0.045 A 
ATOM      6  C   UNL A   1      56.059 -32.335 -53.112  0.00  0.00    +0.005 A 
ATOM      7  N   UNL A   1      55.162 -33.210 -52.598  0.00  0.00    -0.348 N 
ATOM      8  C   UNL A   1      53.848 -32.887 -52.523  0.00  0.00    +0.012 A 
BRANCH   7   9
ATOM      9  C   UNL A   1      55.624 -34.542 -52.133  0.00  0.00    +0.048 C 
BRANCH   9  10
ATOM     10  C   UNL A   1      55.562 -34.651 -50.630  0.00  0.00    -0.028 A 
ATOM     11  C   UNL A   1      56.352 -33.826 -49.812  0.00  0.00    -0.056 A 
ATOM     12  C   UNL A   1      56.293 -33.938 -48.421  0.00  0.00    -0.047 A 
ATOM     13  C   UNL A   1      55.438 -34.870 -47.836  0.00  0.00    +0.018 A 
ATOM     14 BR   UNL A   1      55.359 -35.022 -45.956  0.00  0.00    -0.050 Br
ATOM     15  C   UNL A   1      54.639 -35.688 -48.631  0.00  0.00    -0.047 A 
ATOM     16  C   UNL A   1      54.699 -35.577 -50.023  0.00  0.00    -0.056 A 
ENDBRANCH   9  10
ENDBRANCH   7   9
ENDBRANCH   2   3
BRANCH   1  18
ATOM     17  O   UNL A   1      49.337 -29.941 -53.678  0.00  0.00    -0.284 OA
ATOM     18  C   UNL A   1      49.610 -31.137 -53.779  0.00  0.00    +0.221 C 
BRANCH  18  19
ATOM     19  C   UNL A   1      48.593 -32.167 -53.849  0.00  0.00    +0.176 A 
ATOM     20  C   UNL A   1      48.177 -32.927 -54.929  0.00  0.00    -0.005 A 
ATOM     21  C   UNL A   1      47.187 -33.823 -54.453  0.00  0.00    +0.022 A 
ATOM     22  C   UNL A   1      46.387 -34.829 -55.023  0.00  0.00    -0.037 A 
ATOM     23  C   UNL A   1      45.502 -35.524 -54.188  0.00  0.00    +0.019 A 
ATOM     24 BR   UNL A   1      44.413 -36.885 -54.926  0.00  0.00    -0.050 Br
ATOM     25  C   UNL A   1      45.405 -35.237 -52.824  0.00  0.00    -0.044 A 
ATOM     26  C   UNL A   1      46.195 -34.237 -52.243  0.00  0.00    -0.018 A 
ATOM     27  C   UNL A   1      47.065 -33.560 -53.094  0.00  0.00    +0.136 A 
ATOM     28  O   UNL A   1      47.913 -32.562 -52.726  0.00  0.00    -0.452 OA
ENDBRANCH  18  19
ENDBRANCH   1  18
TORSDOF 5
ENDMDL
MODEL 8
REMARK VINA RESULT:    -7.746      5.855      7.388
REMARK INTER + INTRA:         -10.652
REMARK INTER:                  -9.978
REMARK INTRA:                  -0.673
REMARK UNBOUND:                -0.642
REMARK  Name = cpd327.pdb
REMARK  5 active torsions:
REMARK  status: ('A' for Active; 'I' for Inactive)
REMARK    1  A    between atoms: C_2  and  C_3
REMARK    2  A    between atoms: C_2  and  C_19
REMARK    3  A    between atoms: C_4  and  C_5
REMARK    4  A    between atoms: N_9  and  C_10
REMARK    5  A    between atoms: C_10  and  C_11
REMARK                            x       y       z     vdW  Elec       q    Type
REMARK                         _______ _______ _______ _____ _____    ______ ____
ROOT
ATOM      1  C   UNL A   1      35.053 -38.778 -27.768  0.00  0.00    -0.011 C 
ATOM      2  C   UNL A   1      35.072 -37.867 -26.783  0.00  0.00    -0.049 C 
ENDROOT
BRANCH   2   3
ATOM      3  C   UNL A   1      33.862 -37.256 -26.216  0.00  0.00    -0.009 A 
ATOM      4  C   UNL A   1      32.789 -36.844 -27.008  0.00  0.00    -0.052 A 
ATOM      5  C   UNL A   1      31.660 -36.290 -26.416  0.00  0.00    -0.045 A 
ATOM      6  C   UNL A   1      31.607 -36.165 -25.035  0.00  0.00    +0.005 A 
ATOM      7  N   UNL A   1      32.639 -36.587 -24.265  0.00  0.00    -0.348 N 
ATOM      8  C   UNL A   1      33.748 -37.123 -24.830  0.00  0.00    +0.012 A 
BRANCH   7   9
ATOM      9  C   UNL A   1      32.557 -36.440 -22.790  0.00  0.00    +0.048 C 
BRANCH   9  10
ATOM     10  C   UNL A   1      33.163 -37.629 -22.085  0.00  0.00    -0.028 A 
ATOM     11  C   UNL A   1      34.266 -37.477 -21.230  0.00  0.00    -0.056 A 
ATOM     12  C   UNL A   1      34.824 -38.585 -20.587  0.00  0.00    -0.047 A 
ATOM     13  C   UNL A   1      34.279 -39.851 -20.788  0.00  0.00    +0.018 A 
ATOM     14 BR   UNL A   1      35.034 -41.348 -19.919  0.00  0.00    -0.050 Br
ATOM     15  C   UNL A   1      33.177 -40.018 -21.623  0.00  0.00    -0.047 A 
ATOM     16  C   UNL A   1      32.619 -38.911 -22.268  0.00  0.00    -0.056 A 
ENDBRANCH   9  10
ENDBRANCH   7   9
ENDBRANCH   2   3
BRANCH   1  18
ATOM     17  O   UNL A   1      36.230 -40.682 -28.370  0.00  0.00    -0.284 OA
ATOM     18  C   UNL A   1      36.253 -39.451 -28.359  0.00  0.00    +0.221 C 
BRANCH  18  19
ATOM     19  C   UNL A   1      37.359 -38.686 -28.900  0.00  0.00    +0.176 A 
ATOM     20  C   UNL A   1      38.715 -38.793 -28.646  0.00  0.00    -0.005 A 
ATOM     21  C   UNL A   1      39.371 -37.842 -29.467  0.00  0.00    +0.022 A 
ATOM     22  C   UNL A   1      40.705 -37.452 -29.681  0.00  0.00    -0.037 A 
ATOM     23  C   UNL A   1      40.957 -36.441 -30.620  0.00  0.00    +0.019 A 
ATOM     24 BR   UNL A   1      42.742 -35.895 -30.930  0.00  0.00    -0.050 Br
ATOM     25  C   UNL A   1      39.922 -35.830 -31.331  0.00  0.00    -0.044 A 
ATOM     26  C   UNL A   1      38.589 -36.208 -31.128  0.00  0.00    -0.018 A 
ATOM     27  C   UNL A   1      38.365 -37.213 -30.189  0.00  0.00    +0.136 A 
ATOM     28  O   UNL A   1      37.149 -37.720 -29.850  0.00  0.00    -0.452 OA
ENDBRANCH  18  19
ENDBRANCH   1  18
TORSDOF 5
ENDMDL
MODEL 9
REMARK VINA RESULT:    -7.744      6.732      8.924
REMARK INTER + INTRA:         -10.650
REMARK INTER:                  -9.975
REMARK INTRA:                  -0.675
REMARK UNBOUND:                -0.642
REMARK  Name = cpd327.pdb
REMARK  5 active torsions:
REMARK  status: ('A' for Active; 'I' for Inactive)
REMARK    1  A    between atoms: C_2  and  C_3
REMARK    2  A    between atoms: C_2  and  C_19
REMARK    3  A    between atoms: C_4  and  C_5
REMARK    4  A    between atoms: N_9  and  C_10
REMARK    5  A    between atoms: C_10  and  C_11
REMARK                            x       y       z     vdW  Elec       q    Type
REMARK                         _______ _______ _______ _____ _____    ______ ____
ROOT
ATOM      1  C   UNL A   1      34.873 -37.404 -26.904  0.00  0.00    -0.011 C 
ATOM      2  C   UNL A   1      33.829 -37.883 -26.209  0.00  0.00    -0.049 C 
ENDROOT
BRANCH   2   3
ATOM      3  C   UNL A   1      33.786 -37.935 -24.741  0.00  0.00    -0.009 A 
ATOM      4  C   UNL A   1      33.983 -36.806 -23.945  0.00  0.00    -0.052 A 
ATOM      5  C   UNL A   1      33.910 -36.910 -22.560  0.00  0.00    -0.045 A 
ATOM      6  C   UNL A   1      33.628 -38.140 -21.984  0.00  0.00    +0.005 A 
ATOM      7  N   UNL A   1      33.413 -39.230 -22.758  0.00  0.00    -0.348 N 
ATOM      8  C   UNL A   1      33.487 -39.144 -24.108  0.00  0.00    +0.012 A 
BRANCH   7   9
ATOM      9  C   UNL A   1      33.114 -40.535 -22.115  0.00  0.00    +0.048 C 
BRANCH   9  10
ATOM     10  C   UNL A   1      34.222 -40.955 -21.182  0.00  0.00    -0.028 A 
ATOM     11  C   UNL A   1      34.046 -40.920 -19.789  0.00  0.00    -0.056 A 
ATOM     12  C   UNL A   1      35.081 -41.304 -18.933  0.00  0.00    -0.047 A 
ATOM     13  C   UNL A   1      36.297 -41.733 -19.462  0.00  0.00    +0.018 A 
ATOM     14 BR   UNL A   1      37.695 -42.251 -18.304  0.00  0.00    -0.050 Br
ATOM     15  C   UNL A   1      36.484 -41.785 -20.841  0.00  0.00    -0.047 A 
ATOM     16  C   UNL A   1      35.450 -41.399 -21.698  0.00  0.00    -0.056 A 
ENDBRANCH   9  10
ENDBRANCH   7   9
ENDBRANCH   2   3
BRANCH   1  18
ATOM     17  O   UNL A   1      33.887 -37.397 -29.002  0.00  0.00    -0.284 OA
ATOM     18  C   UNL A   1      34.955 -37.303 -28.396  0.00  0.00    +0.221 C 
BRANCH  18  19
ATOM     19  C   UNL A   1      36.219 -37.088 -29.071  0.00  0.00    +0.176 A 
ATOM     20  C   UNL A   1      37.475 -37.591 -28.778  0.00  0.00    -0.005 A 
ATOM     21  C   UNL A   1      38.361 -37.111 -29.775  0.00  0.00    +0.022 A 
ATOM     22  C   UNL A   1      39.734 -37.247 -30.047  0.00  0.00    -0.037 A 
ATOM     23  C   UNL A   1      40.252 -36.601 -31.178  0.00  0.00    +0.019 A 
ATOM     24 BR   UNL A   1      42.096 -36.767 -31.570  0.00  0.00    -0.050 Br
ATOM     25  C   UNL A   1      39.440 -35.839 -32.021  0.00  0.00    -0.044 A 
ATOM     26  C   UNL A   1      38.072 -35.693 -31.762  0.00  0.00    -0.018 A 
ATOM     27  C   UNL A   1      37.582 -36.344 -30.632  0.00  0.00    +0.136 A 
ATOM     28  O   UNL A   1      36.288 -36.328 -30.210  0.00  0.00    -0.452 OA
ENDBRANCH  18  19
ENDBRANCH   1  18
TORSDOF 5
ENDMDL
MODEL 10
REMARK VINA RESULT:    -7.665      7.578     11.138
REMARK INTER + INTRA:         -10.547
REMARK INTER:                  -9.875
REMARK INTRA:                  -0.672
REMARK UNBOUND:                -0.642
REMARK  Name = cpd327.pdb
REMARK  5 active torsions:
REMARK  status: ('A' for Active; 'I' for Inactive)
REMARK    1  A    between atoms: C_2  and  C_3
REMARK    2  A    between atoms: C_2  and  C_19
REMARK    3  A    between atoms: C_4  and  C_5
REMARK    4  A    between atoms: N_9  and  C_10
REMARK    5  A    between atoms: C_10  and  C_11
REMARK                            x       y       z     vdW  Elec       q    Type
REMARK                         _______ _______ _______ _____ _____    ______ ____
ROOT
ATOM      1  C   UNL A   1      34.450 -42.929 -28.151  0.00  0.00    -0.011 C 
ATOM      2  C   UNL A   1      35.221 -41.844 -27.981  0.00  0.00    -0.049 C 
ENDROOT
BRANCH   2   3
ATOM      3  C   UNL A   1      35.527 -40.887 -29.053  0.00  0.00    -0.009 A 
ATOM      4  C   UNL A   1      35.188 -41.122 -30.386  0.00  0.00    -0.052 A 
ATOM      5  C   UNL A   1      35.483 -40.171 -31.357  0.00  0.00    -0.045 A 
ATOM      6  C   UNL A   1      36.104 -38.988 -30.984  0.00  0.00    +0.005 A 
ATOM      7  N   UNL A   1      36.411 -38.750 -29.686  0.00  0.00    -0.348 N 
ATOM      8  C   UNL A   1      36.135 -39.670 -28.731  0.00  0.00    +0.012 A 
BRANCH   7   9
ATOM      9  C   UNL A   1      37.077 -37.476 -29.315  0.00  0.00    +0.048 C 
BRANCH   9  10
ATOM     10  C   UNL A   1      38.518 -37.459 -29.759  0.00  0.00    -0.028 A 
ATOM     11  C   UNL A   1      38.906 -36.790 -30.931  0.00  0.00    -0.056 A 
ATOM     12  C   UNL A   1      40.243 -36.786 -31.338  0.00  0.00    -0.047 A 
ATOM     13  C   UNL A   1      41.203 -37.443 -30.572  0.00  0.00    +0.018 A 
ATOM     14 BR   UNL A   1      43.009 -37.438 -31.123  0.00  0.00    -0.050 Br
ATOM     15  C   UNL A   1      40.838 -38.101 -29.400  0.00  0.00    -0.047 A 
ATOM     16  C   UNL A   1      39.501 -38.107 -28.993  0.00  0.00    -0.056 A 
ENDBRANCH   9  10
ENDBRANCH   7   9
ENDBRANCH   2   3
BRANCH   1  18
ATOM     17  O   UNL A   1      34.108 -43.496 -25.930  0.00  0.00    -0.284 OA
ATOM     18  C   UNL A   1      34.085 -43.917 -27.086  0.00  0.00    +0.221 C 
BRANCH  18  19
ATOM     19  C   UNL A   1      33.712 -45.278 -27.414  0.00  0.00    +0.176 A 
ATOM     20  C   UNL A   1      33.701 -45.922 -28.639  0.00  0.00    -0.005 A 
ATOM     21  C   UNL A   1      33.298 -47.260 -28.405  0.00  0.00    +0.022 A 
ATOM     22  C   UNL A   1      33.089 -48.400 -29.203  0.00  0.00    -0.037 A 
ATOM     23  C   UNL A   1      32.686 -49.585 -28.572  0.00  0.00    +0.019 A 
ATOM     24 BR   UNL A   1      32.398 -51.134 -29.620  0.00  0.00    -0.050 Br
ATOM     25  C   UNL A   1      32.493 -49.649 -27.190  0.00  0.00    -0.044 A 
ATOM     26  C   UNL A   1      32.696 -48.522 -26.384  0.00  0.00    -0.018 A 
ATOM     27  C   UNL A   1      33.095 -47.357 -27.034  0.00  0.00    +0.136 A 
ATOM     28  O   UNL A   1      33.345 -46.162 -26.432  0.00  0.00    -0.452 OA
ENDBRANCH  18  19
ENDBRANCH   1  18
TORSDOF 5
ENDMDL
MODEL 11
REMARK VINA RESULT:    -7.599      2.483      3.712
REMARK INTER + INTRA:         -10.462
REMARK INTER:                 -10.081
REMARK INTRA:                  -0.381
REMARK UNBOUND:                -0.642
REMARK  Name = cpd327.pdb
REMARK  5 active torsions:
REMARK  status: ('A' for Active; 'I' for Inactive)
REMARK    1  A    between atoms: C_2  and  C_3
REMARK    2  A    between atoms: C_2  and  C_19
REMARK    3  A    between atoms: C_4  and  C_5
REMARK    4  A    between atoms: N_9  and  C_10
REMARK    5  A    between atoms: C_10  and  C_11
REMARK                            x       y       z     vdW  Elec       q    Type
REMARK                         _______ _______ _______ _____ _____    ______ ____
ROOT
ATOM      1  C   UNL A   1      34.976 -37.172 -29.264  0.00  0.00    -0.011 C 
ATOM      2  C   UNL A   1      34.882 -35.836 -29.174  0.00  0.00    -0.049 C 
ENDROOT
BRANCH   2   3
ATOM      3  C   UNL A   1      33.642 -35.090 -29.426  0.00  0.00    -0.009 A 
ATOM      4  C   UNL A   1      32.387 -35.700 -29.426  0.00  0.00    -0.052 A 
ATOM      5  C   UNL A   1      31.244 -34.941 -29.651  0.00  0.00    -0.045 A 
ATOM      6  C   UNL A   1      31.365 -33.574 -29.861  0.00  0.00    +0.005 A 
ATOM      7  N   UNL A   1      32.581 -32.979 -29.836  0.00  0.00    -0.348 N 
ATOM      8  C   UNL A   1      33.703 -33.708 -29.625  0.00  0.00    +0.012 A 
BRANCH   7   9
ATOM      9  C   UNL A   1      32.682 -31.515 -30.065  0.00  0.00    +0.048 C 
BRANCH   9  10
ATOM     10  C   UNL A   1      31.336 -30.846 -29.941  0.00  0.00    -0.028 A 
ATOM     11  C   UNL A   1      30.813 -30.502 -28.684  0.00  0.00    -0.056 A 
ATOM     12  C   UNL A   1      29.562 -29.888 -28.579  0.00  0.00    -0.047 A 
ATOM     13  C   UNL A   1      28.828 -29.607 -29.730  0.00  0.00    +0.018 A 
ATOM     14 BR   UNL A   1      27.138 -28.778 -29.587  0.00  0.00    -0.050 Br
ATOM     15  C   UNL A   1      29.338 -29.930 -30.984  0.00  0.00    -0.047 A 
ATOM     16  C   UNL A   1      30.588 -30.546 -31.091  0.00  0.00    -0.056 A 
ENDBRANCH   9  10
ENDBRANCH   7   9
ENDBRANCH   2   3
BRANCH   1  18
ATOM     17  O   UNL A   1      36.042 -39.002 -28.322  0.00  0.00    -0.284 OA
ATOM     18  C   UNL A   1      36.207 -37.981 -28.990  0.00  0.00    +0.221 C 
BRANCH  18  19
ATOM     19  C   UNL A   1      37.503 -37.584 -29.502  0.00  0.00    +0.176 A 
ATOM     20  C   UNL A   1      38.762 -37.759 -28.953  0.00  0.00    -0.005 A 
ATOM     21  C   UNL A   1      39.698 -37.230 -29.876  0.00  0.00    +0.022 A 
ATOM     22  C   UNL A   1      41.097 -37.098 -29.922  0.00  0.00    -0.037 A 
ATOM     23  C   UNL A   1      41.670 -36.505 -31.057  0.00  0.00    +0.019 A 
ATOM     24 BR   UNL A   1      43.550 -36.315 -31.147  0.00  0.00    -0.050 Br
ATOM     25  C   UNL A   1      40.885 -36.054 -32.121  0.00  0.00    -0.044 A 
ATOM     26  C   UNL A   1      39.491 -36.179 -32.088  0.00  0.00    -0.018 A 
ATOM     27  C   UNL A   1      38.946 -36.769 -30.950  0.00  0.00    +0.136 A 
ATOM     28  O   UNL A   1      37.621 -36.982 -30.728  0.00  0.00    -0.452 OA
ENDBRANCH  18  19
ENDBRANCH   1  18
TORSDOF 5
ENDMDL
MODEL 12
REMARK VINA RESULT:    -7.521      3.089      4.785
REMARK INTER + INTRA:         -10.361
REMARK INTER:                  -9.792
REMARK INTRA:                  -0.569
REMARK UNBOUND:                -0.642
REMARK  Name = cpd327.pdb
REMARK  5 active torsions:
REMARK  status: ('A' for Active; 'I' for Inactive)
REMARK    1  A    between atoms: C_2  and  C_3
REMARK    2  A    between atoms: C_2  and  C_19
REMARK    3  A    between atoms: C_4  and  C_5
REMARK    4  A    between atoms: N_9  and  C_10
REMARK    5  A    between atoms: C_10  and  C_11
REMARK                            x       y       z     vdW  Elec       q    Type
REMARK                         _______ _______ _______ _____ _____    ______ ____
ROOT
ATOM      1  C   UNL A   1      34.436 -34.859 -29.340  0.00  0.00    -0.011 C 
ATOM      2  C   UNL A   1      33.291 -34.601 -29.992  0.00  0.00    -0.049 C 
ENDROOT
BRANCH   2   3
ATOM      3  C   UNL A   1      32.669 -33.271 -30.048  0.00  0.00    -0.009 A 
ATOM      4  C   UNL A   1      33.419 -32.095 -30.106  0.00  0.00    -0.052 A 
ATOM      5  C   UNL A   1      32.778 -30.864 -30.180  0.00  0.00    -0.045 A 
ATOM      6  C   UNL A   1      31.391 -30.819 -30.207  0.00  0.00    +0.005 A 
ATOM      7  N   UNL A   1      30.664 -31.962 -30.175  0.00  0.00    -0.348 N 
ATOM      8  C   UNL A   1      31.277 -33.168 -30.097  0.00  0.00    +0.012 A 
BRANCH   7   9
ATOM      9  C   UNL A   1      29.182 -31.886 -30.204  0.00  0.00    +0.048 C 
BRANCH   9  10
ATOM     10  C   UNL A   1      28.701 -30.961 -31.294  0.00  0.00    -0.028 A 
ATOM     11  C   UNL A   1      28.304 -29.646 -31.004  0.00  0.00    -0.056 A 
ATOM     12  C   UNL A   1      27.854 -28.798 -32.020  0.00  0.00    -0.047 A 
ATOM     13  C   UNL A   1      27.805 -29.257 -33.334  0.00  0.00    +0.018 A 
ATOM     14 BR   UNL A   1      27.195 -28.112 -34.706  0.00  0.00    -0.050 Br
ATOM     15  C   UNL A   1      28.206 -30.554 -33.642  0.00  0.00    -0.047 A 
ATOM     16  C   UNL A   1      28.654 -31.403 -32.627  0.00  0.00    -0.056 A 
ENDBRANCH   9  10
ENDBRANCH   7   9
ENDBRANCH   2   3
BRANCH   1  18
ATOM     17  O   UNL A   1      34.447 -37.125 -28.854  0.00  0.00    -0.284 OA
ATOM     18  C   UNL A   1      35.124 -36.187 -29.276  0.00  0.00    +0.221 C 
BRANCH  18  19
ATOM     19  C   UNL A   1      36.498 -36.348 -29.706  0.00  0.00    +0.176 A 
ATOM     20  C   UNL A   1      37.548 -37.003 -29.085  0.00  0.00    -0.005 A 
ATOM     21  C   UNL A   1      38.670 -36.906 -29.946  0.00  0.00    +0.022 A 
ATOM     22  C   UNL A   1      40.006 -37.344 -29.907  0.00  0.00    -0.037 A 
ATOM     23  C   UNL A   1      40.833 -37.046 -30.999  0.00  0.00    +0.019 A 
ATOM     24 BR   UNL A   1      42.635 -37.623 -30.975  0.00  0.00    -0.050 Br
ATOM     25  C   UNL A   1      40.358 -36.335 -32.104  0.00  0.00    -0.044 A 
ATOM     26  C   UNL A   1      39.030 -35.892 -32.156  0.00  0.00    -0.018 A 
ATOM     27  C   UNL A   1      38.230 -36.199 -31.058  0.00  0.00    +0.136 A 
ATOM     28  O   UNL A   1      36.919 -35.862 -30.917  0.00  0.00    -0.452 OA
ENDBRANCH  18  19
ENDBRANCH   1  18
TORSDOF 5
ENDMDL
MODEL 13
REMARK VINA RESULT:    -7.472      2.872      4.215
REMARK INTER + INTRA:         -10.298
REMARK INTER:                  -9.592
REMARK INTRA:                  -0.706
REMARK UNBOUND:                -0.642
REMARK  Name = cpd327.pdb
REMARK  5 active torsions:
REMARK  status: ('A' for Active; 'I' for Inactive)
REMARK    1  A    between atoms: C_2  and  C_3
REMARK    2  A    between atoms: C_2  and  C_19
REMARK    3  A    between atoms: C_4  and  C_5
REMARK    4  A    between atoms: N_9  and  C_10
REMARK    5  A    between atoms: C_10  and  C_11
REMARK                            x       y       z     vdW  Elec       q    Type
REMARK                         _______ _______ _______ _____ _____    ______ ____
ROOT
ATOM      1  C   UNL A   1      34.743 -35.564 -30.645  0.00  0.00    -0.011 C 
ATOM      2  C   UNL A   1      34.810 -34.526 -29.797  0.00  0.00    -0.049 C 
ENDROOT
BRANCH   2   3
ATOM      3  C   UNL A   1      33.904 -33.371 -29.852  0.00  0.00    -0.009 A 
ATOM      4  C   UNL A   1      34.193 -32.227 -30.596  0.00  0.00    -0.052 A 
ATOM      5  C   UNL A   1      33.289 -31.171 -30.629  0.00  0.00    -0.045 A 
ATOM      6  C   UNL A   1      32.096 -31.275 -29.927  0.00  0.00    +0.005 A 
ATOM      7  N   UNL A   1      31.805 -32.396 -29.225  0.00  0.00    -0.348 N 
ATOM      8  C   UNL A   1      32.680 -33.429 -29.180  0.00  0.00    +0.012 A 
BRANCH   7   9
ATOM      9  C   UNL A   1      30.522 -32.480 -28.482  0.00  0.00    +0.048 C 
BRANCH   9  10
ATOM     10  C   UNL A   1      29.876 -33.832 -28.655  0.00  0.00    -0.028 A 
ATOM     11  C   UNL A   1      29.174 -34.154 -29.828  0.00  0.00    -0.056 A 
ATOM     12  C   UNL A   1      28.573 -35.407 -29.975  0.00  0.00    -0.047 A 
ATOM     13  C   UNL A   1      28.676 -36.350 -28.955  0.00  0.00    +0.018 A 
ATOM     14 BR   UNL A   1      27.862 -38.042 -29.155  0.00  0.00    -0.050 Br
ATOM     15  C   UNL A   1      29.378 -36.052 -27.791  0.00  0.00    -0.047 A 
ATOM     16  C   UNL A   1      29.978 -34.799 -27.641  0.00  0.00    -0.056 A 
ENDBRANCH   9  10
ENDBRANCH   7   9
ENDBRANCH   2   3
BRANCH   1  18
ATOM     17  O   UNL A   1      35.052 -37.851 -30.422  0.00  0.00    -0.284 OA
ATOM     18  C   UNL A   1      35.623 -36.776 -30.613  0.00  0.00    +0.221 C 
BRANCH  18  19
ATOM     19  C   UNL A   1      37.054 -36.678 -30.815  0.00  0.00    +0.176 A 
ATOM     20  C   UNL A   1      38.090 -37.242 -30.090  0.00  0.00    -0.005 A 
ATOM     21  C   UNL A   1      39.299 -36.873 -30.732  0.00  0.00    +0.022 A 
ATOM     22  C   UNL A   1      40.667 -37.110 -30.508  0.00  0.00    -0.037 A 
ATOM     23  C   UNL A   1      41.590 -36.560 -31.408  0.00  0.00    +0.019 A 
ATOM     24 BR   UNL A   1      43.438 -36.862 -31.132  0.00  0.00    -0.050 Br
ATOM     25  C   UNL A   1      41.179 -35.796 -32.502  0.00  0.00    -0.044 A 
ATOM     26  C   UNL A   1      39.820 -35.551 -32.737  0.00  0.00    -0.018 A 
ATOM     27  C   UNL A   1      38.923 -36.107 -31.829  0.00  0.00    +0.136 A 
ATOM     28  O   UNL A   1      37.568 -35.988 -31.882  0.00  0.00    -0.452 OA
ENDBRANCH  18  19
ENDBRANCH   1  18
TORSDOF 5
ENDMDL
MODEL 14
REMARK VINA RESULT:    -7.288      5.303     10.436
REMARK INTER + INTRA:         -10.061
REMARK INTER:                  -9.316
REMARK INTRA:                  -0.745
REMARK UNBOUND:                -0.642
REMARK  Name = cpd327.pdb
REMARK  5 active torsions:
REMARK  status: ('A' for Active; 'I' for Inactive)
REMARK    1  A    between atoms: C_2  and  C_3
REMARK    2  A    between atoms: C_2  and  C_19
REMARK    3  A    between atoms: C_4  and  C_5
REMARK    4  A    between atoms: N_9  and  C_10
REMARK    5  A    between atoms: C_10  and  C_11
REMARK                            x       y       z     vdW  Elec       q    Type
REMARK                         _______ _______ _______ _____ _____    ______ ____
ROOT
ATOM      1  C   UNL A   1      34.026 -41.033 -33.177  0.00  0.00    -0.011 C 
ATOM      2  C   UNL A   1      34.594 -39.983 -32.564  0.00  0.00    -0.049 C 
ENDROOT
BRANCH   2   3
ATOM      3  C   UNL A   1      35.271 -40.069 -31.263  0.00  0.00    -0.009 A 
ATOM      4  C   UNL A   1      35.387 -41.267 -30.557  0.00  0.00    -0.052 A 
ATOM      5  C   UNL A   1      36.057 -41.294 -29.339  0.00  0.00    -0.045 A 
ATOM      6  C   UNL A   1      36.616 -40.124 -28.844  0.00  0.00    +0.005 A 
ATOM      7  N   UNL A   1      36.524 -38.967 -29.541  0.00  0.00    -0.348 N 
ATOM      8  C   UNL A   1      35.868 -38.926 -30.726  0.00  0.00    +0.012 A 
BRANCH   7   9
ATOM      9  C   UNL A   1      37.130 -37.730 -28.987  0.00  0.00    +0.048 C 
BRANCH   9  10
ATOM     10  C   UNL A   1      38.483 -37.461 -29.598  0.00  0.00    -0.028 A 
ATOM     11  C   UNL A   1      38.624 -36.586 -30.687  0.00  0.00    -0.056 A 
ATOM     12  C   UNL A   1      39.881 -36.348 -31.249  0.00  0.00    -0.047 A 
ATOM     13  C   UNL A   1      41.007 -36.977 -30.723  0.00  0.00    +0.018 A 
ATOM     14 BR   UNL A   1      42.704 -36.656 -31.484  0.00  0.00    -0.050 Br
ATOM     15  C   UNL A   1      40.887 -37.838 -29.635  0.00  0.00    -0.047 A 
ATOM     16  C   UNL A   1      39.630 -38.078 -29.073  0.00  0.00    -0.056 A 
ENDBRANCH   9  10
ENDBRANCH   7   9
ENDBRANCH   2   3
BRANCH   1  18
ATOM     17  O   UNL A   1      33.931 -41.597 -35.424  0.00  0.00    -0.284 OA
ATOM     18  C   UNL A   1      33.351 -41.005 -34.514  0.00  0.00    +0.221 C 
BRANCH  18  19
ATOM     19  C   UNL A   1      32.081 -40.333 -34.705  0.00  0.00    +0.176 A 
ATOM     20  C   UNL A   1      30.937 -40.365 -33.926  0.00  0.00    -0.005 A 
ATOM     21  C   UNL A   1      29.994 -39.496 -34.530  0.00  0.00    +0.022 A 
ATOM     22  C   UNL A   1      28.677 -39.093 -34.249  0.00  0.00    -0.037 A 
ATOM     23  C   UNL A   1      28.066 -38.175 -35.114  0.00  0.00    +0.019 A 
ATOM     24 BR   UNL A   1      26.294 -37.613 -34.761  0.00  0.00    -0.050 Br
ATOM     25  C   UNL A   1      28.735 -37.664 -36.229  0.00  0.00    -0.044 A 
ATOM     26  C   UNL A   1      30.047 -38.057 -36.522  0.00  0.00    -0.018 A 
ATOM     27  C   UNL A   1      30.631 -38.971 -35.648  0.00  0.00    +0.136 A 
ATOM     28  O   UNL A   1      31.891 -39.474 -35.756  0.00  0.00    -0.452 OA
ENDBRANCH  18  19
ENDBRANCH   1  18
TORSDOF 5
ENDMDL
MODEL 15
REMARK VINA RESULT:    -7.231      4.543      6.549
REMARK INTER + INTRA:          -9.986
REMARK INTER:                  -9.276
REMARK INTRA:                  -0.710
REMARK UNBOUND:                -0.642
REMARK  Name = cpd327.pdb
REMARK  5 active torsions:
REMARK  status: ('A' for Active; 'I' for Inactive)
REMARK    1  A    between atoms: C_2  and  C_3
REMARK    2  A    between atoms: C_2  and  C_19
REMARK    3  A    between atoms: C_4  and  C_5
REMARK    4  A    between atoms: N_9  and  C_10
REMARK    5  A    between atoms: C_10  and  C_11
REMARK                            x       y       z     vdW  Elec       q    Type
REMARK                         _______ _______ _______ _____ _____    ______ ____
ROOT
ATOM      1  C   UNL A   1      35.441 -38.131 -30.466  0.00  0.00    -0.011 C 
ATOM      2  C   UNL A   1      35.492 -38.944 -29.399  0.00  0.00    -0.049 C 
ENDROOT
BRANCH   2   3
ATOM      3  C   UNL A   1      34.897 -40.287 -29.372  0.00  0.00    -0.009 A 
ATOM      4  C   UNL A   1      35.366 -41.297 -28.530  0.00  0.00    -0.052 A 
ATOM      5  C   UNL A   1      34.752 -42.545 -28.531  0.00  0.00    -0.045 A 
ATOM      6  C   UNL A   1      33.665 -42.767 -29.365  0.00  0.00    +0.005 A 
ATOM      7  N   UNL A   1      33.195 -41.779 -30.164  0.00  0.00    -0.348 N 
ATOM      8  C   UNL A   1      33.789 -40.561 -30.177  0.00  0.00    +0.012 A 
BRANCH   7   9
ATOM      9  C   UNL A   1      32.032 -42.044 -31.047  0.00  0.00    +0.048 C 
BRANCH   9  10
ATOM     10  C   UNL A   1      32.463 -42.246 -32.478  0.00  0.00    -0.028 A 
ATOM     11  C   UNL A   1      32.606 -41.154 -33.351  0.00  0.00    -0.056 A 
ATOM     12  C   UNL A   1      33.000 -41.352 -34.677  0.00  0.00    -0.047 A 
ATOM     13  C   UNL A   1      33.261 -42.640 -35.138  0.00  0.00    +0.018 A 
ATOM     14 BR   UNL A   1      33.792 -42.906 -36.931  0.00  0.00    -0.050 Br
ATOM     15  C   UNL A   1      33.136 -43.732 -34.284  0.00  0.00    -0.047 A 
ATOM     16  C   UNL A   1      32.740 -43.536 -32.958  0.00  0.00    -0.056 A 
ENDBRANCH   9  10
ENDBRANCH   7   9
ENDBRANCH   2   3
BRANCH   1  18
ATOM     17  O   UNL A   1      35.276 -35.819 -30.453  0.00  0.00    -0.284 OA
ATOM     18  C   UNL A   1      36.055 -36.767 -30.554  0.00  0.00    +0.221 C 
BRANCH  18  19
ATOM     19  C   UNL A   1      37.482 -36.590 -30.730  0.00  0.00    +0.176 A 
ATOM     20  C   UNL A   1      38.532 -37.039 -29.947  0.00  0.00    -0.005 A 
ATOM     21  C   UNL A   1      39.732 -36.635 -30.584  0.00  0.00    +0.022 A 
ATOM     22  C   UNL A   1      41.106 -36.768 -30.315  0.00  0.00    -0.037 A 
ATOM     23  C   UNL A   1      42.016 -36.219 -31.228  0.00  0.00    +0.019 A 
ATOM     24 BR   UNL A   1      43.871 -36.383 -30.892  0.00  0.00    -0.050 Br
ATOM     25  C   UNL A   1      41.587 -35.555 -32.379  0.00  0.00    -0.044 A 
ATOM     26  C   UNL A   1      40.222 -35.414 -32.660  0.00  0.00    -0.018 A 
ATOM     27  C   UNL A   1      39.338 -35.967 -31.737  0.00  0.00    +0.136 A 
ATOM     28  O   UNL A   1      37.980 -35.939 -31.829  0.00  0.00    -0.452 OA
ENDBRANCH  18  19
ENDBRANCH   1  18
TORSDOF 5
ENDMDL
MODEL 16
REMARK VINA RESULT:    -7.216      6.252      8.704
REMARK INTER + INTRA:          -9.967
REMARK INTER:                  -9.122
REMARK INTRA:                  -0.846
REMARK UNBOUND:                -0.642
REMARK  Name = cpd327.pdb
REMARK  5 active torsions:
REMARK  status: ('A' for Active; 'I' for Inactive)
REMARK    1  A    between atoms: C_2  and  C_3
REMARK    2  A    between atoms: C_2  and  C_19
REMARK    3  A    between atoms: C_4  and  C_5
REMARK    4  A    between atoms: N_9  and  C_10
REMARK    5  A    between atoms: C_10  and  C_11
REMARK                            x       y       z     vdW  Elec       q    Type
REMARK                         _______ _______ _______ _____ _____    ______ ____
ROOT
ATOM      1  C   UNL A   1      33.949 -39.778 -32.423  0.00  0.00    -0.011 C 
ATOM      2  C   UNL A   1      34.979 -40.521 -31.987  0.00  0.00    -0.049 C 
ENDROOT
BRANCH   2   3
ATOM      3  C   UNL A   1      35.792 -40.175 -30.814  0.00  0.00    -0.009 A 
ATOM      4  C   UNL A   1      36.047 -41.082 -29.784  0.00  0.00    -0.052 A 
ATOM      5  C   UNL A   1      36.841 -40.707 -28.706  0.00  0.00    -0.045 A 
ATOM      6  C   UNL A   1      37.384 -39.430 -28.673  0.00  0.00    +0.005 A 
ATOM      7  N   UNL A   1      37.156 -38.558 -29.685  0.00  0.00    -0.348 N 
ATOM      8  C   UNL A   1      36.380 -38.909 -30.738  0.00  0.00    +0.012 A 
BRANCH   7   9
ATOM      9  C   UNL A   1      37.749 -37.198 -29.624  0.00  0.00    +0.048 C 
BRANCH   9  10
ATOM     10  C   UNL A   1      36.695 -36.132 -29.787  0.00  0.00    -0.028 A 
ATOM     11  C   UNL A   1      35.578 -36.084 -28.938  0.00  0.00    -0.056 A 
ATOM     12  C   UNL A   1      34.603 -35.096 -29.102  0.00  0.00    -0.047 A 
ATOM     13  C   UNL A   1      34.742 -34.144 -30.110  0.00  0.00    +0.018 A 
ATOM     14 BR   UNL A   1      33.424 -32.810 -30.331  0.00  0.00    -0.050 Br
ATOM     15  C   UNL A   1      35.850 -34.170 -30.953  0.00  0.00    -0.047 A 
ATOM     16  C   UNL A   1      36.825 -35.158 -30.791  0.00  0.00    -0.056 A 
ENDBRANCH   9  10
ENDBRANCH   7   9
ENDBRANCH   2   3
BRANCH   1  18
ATOM     17  O   UNL A   1      32.433 -39.161 -34.063  0.00  0.00    -0.284 OA
ATOM     18  C   UNL A   1      33.073 -40.102 -33.593  0.00  0.00    +0.221 C 
BRANCH  18  19
ATOM     19  C   UNL A   1      33.007 -41.441 -34.142  0.00  0.00    +0.176 A 
ATOM     20  C   UNL A   1      33.510 -41.935 -35.333  0.00  0.00    -0.005 A 
ATOM     21  C   UNL A   1      33.215 -43.320 -35.371  0.00  0.00    +0.022 A 
ATOM     22  C   UNL A   1      33.442 -44.371 -36.278  0.00  0.00    -0.037 A 
ATOM     23  C   UNL A   1      32.987 -45.652 -35.935  0.00  0.00    +0.019 A 
ATOM     24 BR   UNL A   1      33.279 -47.085 -37.135  0.00  0.00    -0.050 Br
ATOM     25  C   UNL A   1      32.325 -45.894 -34.729  0.00  0.00    -0.044 A 
ATOM     26  C   UNL A   1      32.091 -44.858 -33.817  0.00  0.00    -0.018 A 
ATOM     27  C   UNL A   1      32.552 -43.595 -34.181  0.00  0.00    +0.136 A 
ATOM     28  O   UNL A   1      32.425 -42.462 -33.436  0.00  0.00    -0.452 OA
ENDBRANCH  18  19
ENDBRANCH   1  18
TORSDOF 5
ENDMDL
MODEL 17
REMARK VINA RESULT:    -7.118     16.972     20.058
REMARK INTER + INTRA:          -9.841
REMARK INTER:                  -9.097
REMARK INTRA:                  -0.744
REMARK UNBOUND:                -0.642
REMARK  Name = cpd327.pdb
REMARK  5 active torsions:
REMARK  status: ('A' for Active; 'I' for Inactive)
REMARK    1  A    between atoms: C_2  and  C_3
REMARK    2  A    between atoms: C_2  and  C_19
REMARK    3  A    between atoms: C_4  and  C_5
REMARK    4  A    between atoms: N_9  and  C_10
REMARK    5  A    between atoms: C_10  and  C_11
REMARK                            x       y       z     vdW  Elec       q    Type
REMARK                         _______ _______ _______ _____ _____    ______ ____
ROOT
ATOM      1  C   UNL A   1      42.974 -18.786 -35.037  0.00  0.00    -0.011 C 
ATOM      2  C   UNL A   1      43.623 -17.794 -35.667  0.00  0.00    -0.049 C 
ENDROOT
BRANCH   2   3
ATOM      3  C   UNL A   1      44.869 -17.987 -36.420  0.00  0.00    -0.009 A 
ATOM      4  C   UNL A   1      46.101 -18.180 -35.794  0.00  0.00    -0.052 A 
ATOM      5  C   UNL A   1      47.246 -18.378 -36.557  0.00  0.00    -0.045 A 
ATOM      6  C   UNL A   1      47.147 -18.394 -37.941  0.00  0.00    +0.005 A 
ATOM      7  N   UNL A   1      45.947 -18.230 -38.548  0.00  0.00    -0.348 N 
ATOM      8  C   UNL A   1      44.825 -18.030 -37.816  0.00  0.00    +0.012 A 
BRANCH   7   9
ATOM      9  C   UNL A   1      45.870 -18.251 -40.031  0.00  0.00    +0.048 C 
BRANCH   9  10
ATOM     10  C   UNL A   1      46.256 -19.601 -40.582  0.00  0.00    -0.028 A 
ATOM     11  C   UNL A   1      45.515 -20.750 -40.263  0.00  0.00    -0.056 A 
ATOM     12  C   UNL A   1      45.884 -21.998 -40.774  0.00  0.00    -0.047 A 
ATOM     13  C   UNL A   1      46.991 -22.103 -41.613  0.00  0.00    +0.018 A 
ATOM     14 BR   UNL A   1      47.490 -23.789 -42.302  0.00  0.00    -0.050 Br
ATOM     15  C   UNL A   1      47.729 -20.972 -41.950  0.00  0.00    -0.047 A 
ATOM     16  C   UNL A   1      47.362 -19.724 -41.438  0.00  0.00    -0.056 A 
ENDBRANCH   9  10
ENDBRANCH   7   9
ENDBRANCH   2   3
BRANCH   1  18
ATOM     17  O   UNL A   1      41.455 -17.532 -33.815  0.00  0.00    -0.284 OA
ATOM     18  C   UNL A   1      41.689 -18.647 -34.282  0.00  0.00    +0.221 C 
BRANCH  18  19
ATOM     19  C   UNL A   1      40.775 -19.762 -34.133  0.00  0.00    +0.176 A 
ATOM     20  C   UNL A   1      40.946 -21.096 -34.460  0.00  0.00    -0.005 A 
ATOM     21  C   UNL A   1      39.767 -21.778 -34.070  0.00  0.00    +0.022 A 
ATOM     22  C   UNL A   1      39.312 -23.108 -34.123  0.00  0.00    -0.037 A 
ATOM     23  C   UNL A   1      38.041 -23.394 -33.605  0.00  0.00    +0.019 A 
ATOM     24 BR   UNL A   1      37.403 -25.175 -33.662  0.00  0.00    -0.050 Br
ATOM     25  C   UNL A   1      37.237 -22.398 -33.048  0.00  0.00    -0.044 A 
ATOM     26  C   UNL A   1      37.676 -21.069 -32.989  0.00  0.00    -0.018 A 
ATOM     27  C   UNL A   1      38.941 -20.810 -33.511  0.00  0.00    +0.136 A 
ATOM     28  O   UNL A   1      39.547 -19.592 -33.547  0.00  0.00    -0.452 OA
ENDBRANCH  18  19
ENDBRANCH   1  18
TORSDOF 5
ENDMDL
MODEL 18
REMARK VINA RESULT:    -7.108      6.138      8.355
REMARK INTER + INTRA:          -9.827
REMARK INTER:                  -8.939
REMARK INTRA:                  -0.888
REMARK UNBOUND:                -0.642
REMARK  Name = cpd327.pdb
REMARK  5 active torsions:
REMARK  status: ('A' for Active; 'I' for Inactive)
REMARK    1  A    between atoms: C_2  and  C_3
REMARK    2  A    between atoms: C_2  and  C_19
REMARK    3  A    between atoms: C_4  and  C_5
REMARK    4  A    between atoms: N_9  and  C_10
REMARK    5  A    between atoms: C_10  and  C_11
REMARK                            x       y       z     vdW  Elec       q    Type
REMARK                         _______ _______ _______ _____ _____    ______ ____
ROOT
ATOM      1  C   UNL A   1      33.317 -37.007 -26.379  0.00  0.00    -0.011 C 
ATOM      2  C   UNL A   1      34.604 -37.375 -26.489  0.00  0.00    -0.049 C 
ENDROOT
BRANCH   2   3
ATOM      3  C   UNL A   1      35.424 -37.116 -27.680  0.00  0.00    -0.009 A 
ATOM      4  C   UNL A   1      36.786 -37.418 -27.731  0.00  0.00    -0.052 A 
ATOM      5  C   UNL A   1      37.509 -37.171 -28.893  0.00  0.00    -0.045 A 
ATOM      6  C   UNL A   1      36.862 -36.636 -29.998  0.00  0.00    +0.005 A 
ATOM      7  N   UNL A   1      35.535 -36.366 -29.955  0.00  0.00    -0.348 N 
ATOM      8  C   UNL A   1      34.820 -36.596 -28.827  0.00  0.00    +0.012 A 
BRANCH   7   9
ATOM      9  C   UNL A   1      34.867 -35.793 -31.151  0.00  0.00    +0.048 C 
BRANCH   9  10
ATOM     10  C   UNL A   1      34.108 -34.536 -30.806  0.00  0.00    -0.028 A 
ATOM     11  C   UNL A   1      34.773 -33.403 -30.309  0.00  0.00    -0.056 A 
ATOM     12  C   UNL A   1      34.060 -32.245 -29.987  0.00  0.00    -0.047 A 
ATOM     13  C   UNL A   1      32.679 -32.209 -30.167  0.00  0.00    +0.018 A 
ATOM     14 BR   UNL A   1      31.717 -30.644 -29.730  0.00  0.00    -0.050 Br
ATOM     15  C   UNL A   1      32.006 -33.318 -30.670  0.00  0.00    -0.047 A 
ATOM     16  C   UNL A   1      32.717 -34.478 -30.991  0.00  0.00    -0.056 A 
ENDBRANCH   9  10
ENDBRANCH   7   9
ENDBRANCH   2   3
BRANCH   1  18
ATOM     17  O   UNL A   1      31.320 -36.728 -25.236  0.00  0.00    -0.284 OA
ATOM     18  C   UNL A   1      32.448 -37.220 -25.179  0.00  0.00    +0.221 C 
BRANCH  18  19
ATOM     19  C   UNL A   1      32.911 -37.978 -24.034  0.00  0.00    +0.176 A 
ATOM     20  C   UNL A   1      32.957 -39.348 -23.840  0.00  0.00    -0.005 A 
ATOM     21  C   UNL A   1      33.539 -39.572 -22.568  0.00  0.00    +0.022 A 
ATOM     22  C   UNL A   1      33.859 -40.702 -21.795  0.00  0.00    -0.037 A 
ATOM     23  C   UNL A   1      34.458 -40.501 -20.544  0.00  0.00    +0.019 A 
ATOM     24 BR   UNL A   1      34.901 -42.004 -19.481  0.00  0.00    -0.050 Br
ATOM     25  C   UNL A   1      34.737 -39.219 -20.064  0.00  0.00    -0.044 A 
ATOM     26  C   UNL A   1      34.424 -38.085 -20.822  0.00  0.00    -0.018 A 
ATOM     27  C   UNL A   1      33.828 -38.311 -22.060  0.00  0.00    +0.136 A 
ATOM     28  O   UNL A   1      33.450 -37.346 -22.944  0.00  0.00    -0.452 OA
ENDBRANCH  18  19
ENDBRANCH   1  18
TORSDOF 5
ENDMDL
MODEL 19
REMARK VINA RESULT:    -7.040     31.655     34.457
REMARK INTER + INTRA:          -9.739
REMARK INTER:                  -9.002
REMARK INTRA:                  -0.738
REMARK UNBOUND:                -0.642
REMARK  Name = cpd327.pdb
REMARK  5 active torsions:
REMARK  status: ('A' for Active; 'I' for Inactive)
REMARK    1  A    between atoms: C_2  and  C_3
REMARK    2  A    between atoms: C_2  and  C_19
REMARK    3  A    between atoms: C_4  and  C_5
REMARK    4  A    between atoms: N_9  and  C_10
REMARK    5  A    between atoms: C_10  and  C_11
REMARK                            x       y       z     vdW  Elec       q    Type
REMARK                         _______ _______ _______ _____ _____    ______ ____
ROOT
ATOM      1  C   UNL A   1      61.165 -18.777  -9.959  0.00  0.00    -0.011 C 
ATOM      2  C   UNL A   1      60.165 -19.162 -10.767  0.00  0.00    -0.049 C 
ENDROOT
BRANCH   2   3
ATOM      3  C   UNL A   1      58.781 -18.686 -10.631  0.00  0.00    -0.009 A 
ATOM      4  C   UNL A   1      58.354 -17.926  -9.541  0.00  0.00    -0.052 A 
ATOM      5  C   UNL A   1      57.037 -17.484  -9.475  0.00  0.00    -0.045 A 
ATOM      6  C   UNL A   1      56.162 -17.796 -10.506  0.00  0.00    +0.005 A 
ATOM      7  N   UNL A   1      56.584 -18.513 -11.575  0.00  0.00    -0.348 N 
ATOM      8  C   UNL A   1      57.863 -18.955 -11.649  0.00  0.00    +0.012 A 
BRANCH   7   9
ATOM      9  C   UNL A   1      55.627 -18.833 -12.664  0.00  0.00    +0.048 C 
BRANCH   9  10
ATOM     10  C   UNL A   1      55.362 -17.629 -13.534  0.00  0.00    -0.028 A 
ATOM     11  C   UNL A   1      56.345 -17.141 -14.411  0.00  0.00    -0.056 A 
ATOM     12  C   UNL A   1      56.093 -16.021 -15.208  0.00  0.00    -0.047 A 
ATOM     13  C   UNL A   1      54.855 -15.386 -15.140  0.00  0.00    +0.018 A 
ATOM     14 BR   UNL A   1      54.515 -13.873 -16.217  0.00  0.00    -0.050 Br
ATOM     15  C   UNL A   1      53.865 -15.864 -14.286  0.00  0.00    -0.047 A 
ATOM     16  C   UNL A   1      54.116 -16.983 -13.486  0.00  0.00    -0.056 A 
ENDBRANCH   9  10
ENDBRANCH   7   9
ENDBRANCH   2   3
BRANCH   1  18
ATOM     17  O   UNL A   1      63.357 -18.412 -10.619  0.00  0.00    -0.284 OA
ATOM     18  C   UNL A   1      62.595 -19.210 -10.072  0.00  0.00    +0.221 C 
BRANCH  18  19
ATOM     19  C   UNL A   1      63.043 -20.484  -9.549  0.00  0.00    +0.176 A 
ATOM     20  C   UNL A   1      63.240 -20.882  -8.238  0.00  0.00    -0.005 A 
ATOM     21  C   UNL A   1      63.639 -22.241  -8.268  0.00  0.00    +0.022 A 
ATOM     22  C   UNL A   1      63.985 -23.208  -7.306  0.00  0.00    -0.037 A 
ATOM     23  C   UNL A   1      64.324 -24.493  -7.751  0.00  0.00    +0.019 A 
ATOM     24 BR   UNL A   1      64.793 -25.814  -6.480  0.00  0.00    -0.050 Br
ATOM     25  C   UNL A   1      64.323 -24.821  -9.108  0.00  0.00    -0.044 A 
ATOM     26  C   UNL A   1      63.982 -23.869 -10.077  0.00  0.00    -0.018 A 
ATOM     27  C   UNL A   1      63.650 -22.600  -9.610  0.00  0.00    +0.136 A 
ATOM     28  O   UNL A   1      63.290 -21.541 -10.387  0.00  0.00    -0.452 OA
ENDBRANCH  18  19
ENDBRANCH   1  18
TORSDOF 5
ENDMDL
MODEL 20
REMARK VINA RESULT:    -6.893     17.934     20.957
REMARK INTER + INTRA:          -9.549
REMARK INTER:                  -8.731
REMARK INTRA:                  -0.818
REMARK UNBOUND:                -0.642
REMARK  Name = cpd327.pdb
REMARK  5 active torsions:
REMARK  status: ('A' for Active; 'I' for Inactive)
REMARK    1  A    between atoms: C_2  and  C_3
REMARK    2  A    between atoms: C_2  and  C_19
REMARK    3  A    between atoms: C_4  and  C_5
REMARK    4  A    between atoms: N_9  and  C_10
REMARK    5  A    between atoms: C_10  and  C_11
REMARK                            x       y       z     vdW  Elec       q    Type
REMARK                         _______ _______ _______ _____ _____    ______ ____
ROOT
ATOM      1  C   UNL A   1      44.982 -19.332 -35.738  0.00  0.00    -0.011 C 
ATOM      2  C   UNL A   1      45.415 -18.068 -35.869  0.00  0.00    -0.049 C 
ENDROOT
BRANCH   2   3
ATOM      3  C   UNL A   1      45.884 -17.496 -37.138  0.00  0.00    -0.009 A 
ATOM      4  C   UNL A   1      46.892 -16.532 -37.199  0.00  0.00    -0.052 A 
ATOM      5  C   UNL A   1      47.311 -16.041 -38.430  0.00  0.00    -0.045 A 
ATOM      6  C   UNL A   1      46.728 -16.527 -39.592  0.00  0.00    +0.005 A 
ATOM      7  N   UNL A   1      45.767 -17.480 -39.533  0.00  0.00    -0.348 N 
ATOM      8  C   UNL A   1      45.345 -17.963 -38.340  0.00  0.00    +0.012 A 
BRANCH   7   9
ATOM      9  C   UNL A   1      45.159 -17.982 -40.791  0.00  0.00    +0.048 C 
BRANCH   9  10
ATOM     10  C   UNL A   1      45.687 -19.349 -41.149  0.00  0.00    -0.028 A 
ATOM     11  C   UNL A   1      47.041 -19.541 -41.466  0.00  0.00    -0.056 A 
ATOM     12  C   UNL A   1      47.520 -20.810 -41.802  0.00  0.00    -0.047 A 
ATOM     13  C   UNL A   1      46.649 -21.898 -41.817  0.00  0.00    +0.018 A 
ATOM     14 BR   UNL A   1      47.296 -23.612 -42.272  0.00  0.00    -0.050 Br
ATOM     15  C   UNL A   1      45.306 -21.728 -41.493  0.00  0.00    -0.047 A 
ATOM     16  C   UNL A   1      44.826 -20.459 -41.158  0.00  0.00    -0.056 A 
ENDBRANCH   9  10
ENDBRANCH   7   9
ENDBRANCH   2   3
BRANCH   1  18
ATOM     17  O   UNL A   1      45.301 -20.540 -33.787  0.00  0.00    -0.284 OA
ATOM     18  C   UNL A   1      44.468 -19.953 -34.477  0.00  0.00    +0.221 C 
BRANCH  18  19
ATOM     19  C   UNL A   1      43.075 -19.845 -34.094  0.00  0.00    +0.176 A 
ATOM     20  C   UNL A   1      42.234 -18.745 -34.117  0.00  0.00    -0.005 A 
ATOM     21  C   UNL A   1      40.957 -19.185 -33.685  0.00  0.00    +0.022 A 
ATOM     22  C   UNL A   1      39.702 -18.582 -33.487  0.00  0.00    -0.037 A 
ATOM     23  C   UNL A   1      38.644 -19.387 -33.044  0.00  0.00    +0.019 A 
ATOM     24 BR   UNL A   1      36.943 -18.604 -32.770  0.00  0.00    -0.050 Br
ATOM     25  C   UNL A   1      38.815 -20.752 -32.801  0.00  0.00    -0.044 A 
ATOM     26  C   UNL A   1      40.059 -21.365 -32.992  0.00  0.00    -0.018 A 
ATOM     27  C   UNL A   1      41.095 -20.544 -33.432  0.00  0.00    +0.136 A 
ATOM     28  O   UNL A   1      42.371 -20.946 -33.679  0.00  0.00    -0.452 OA
ENDBRANCH  18  19
ENDBRANCH   1  18
TORSDOF 5
ENDMDL
