@<TRIPOS>MOLECULE
*****
 25 28 0 0 0
SMALL
GASTEIGER

@<TRIPOS>ATOM
      1 C          -1.1002    4.0129    0.0000 C.3     1  UNL1        0.2526
      2 O          -0.2507    3.6187    0.0000 O.3     1  UNL1       -0.4684
      3 C          -0.2653    2.6823    0.0000 C.ar    1  UNL1        0.1721
      4 C          -1.0835    2.2267    0.0000 C.ar    1  UNL1        0.0397
      5 C          -1.0980    1.2897    0.0000 C.ar    1  UNL1        0.0001
      6 C          -0.2944    0.8089    0.0000 C.ar    1  UNL1       -0.0066
      7 C           0.5243    1.2645    0.0000 C.ar    1  UNL1        0.0187
      8 C           0.5388    2.2015    0.0000 C.ar    1  UNL1        0.1682
      9 O           1.3570    2.6571    0.0000 O.3     1  UNL1       -0.4757
     10 C           2.1611    2.1763    0.0000 C.3     1  UNL1        0.1762
     11 C           2.9798    2.6319    0.0000 C.3     1  UNL1        0.0816
     12 C           3.7834    2.1510    0.0000 C.3     1  UNL1        0.1773
     13 O           4.6192    2.6164    0.0000 O.3     1  UNL1       -0.2182
     14 C           3.7688    1.2141    0.0000 C.2     1  UNL1        0.0021
     15 C           2.9506    0.7585    0.0000 C.2     1  UNL1       -0.0211
     16 C           2.1465    1.2393    0.0000 C.3     1  UNL1        0.0780
     17 C           2.1465    0.3785    0.0000 C.3     1  UNL1        0.0290
     18 C           1.5932   -0.2809    0.0000 C.3     1  UNL1        0.0734
     19 N           0.7455   -0.4304    0.0000 N.3     1  UNL1       -0.2652
     20 C           0.5749   -1.3980    0.0000 C.3     1  UNL1        0.0985
     21 C           1.3275   -2.0296    0.0000 C.2     1  UNL1       -0.0172
     22 C           1.1569   -2.9971    0.0000 C.2     1  UNL1       -0.0465
     23 C           0.2336   -3.3332    0.0000 C.3     1  UNL1        0.0261
     24 C           1.9096   -3.6287    0.0000 C.3     1  UNL1        0.0261
     25 C           0.0000   -0.0000    0.0000 C.3     1  UNL1        0.0992
@<TRIPOS>BOND
     1     1     2    1
     2     2     3    1
     3     3     4   ar
     4     4     5   ar
     5     5     6   ar
     6     6     7   ar
     7     7     8   ar
     8     3     8   ar
     9     8     9    1
    10     9    10    1
    11    10    11    1
    12    11    12    1
    13    12    13    1
    14    12    14    1
    15    14    15    2
    16    15    16    1
    17     7    16    1
    18    10    16    1
    19    16    17    1
    20    17    18    1
    21    18    19    1
    22    19    20    1
    23    20    21    1
    24    21    22    2
    25    22    23    1
    26    22    24    1
    27    19    25    1
    28     6    25    1
