MODEL 1
REMARK VINA RESULT:    -7.723      0.000      0.000
REMARK INTER + INTRA:          -9.726
REMARK INTER:                  -9.304
REMARK INTRA:                  -0.422
REMARK UNBOUND:                -0.422
REMARK  Name = cpd309.pdb
REMARK  7 active torsions:
REMARK  status: ('A' for Active; 'I' for Inactive)
REMARK    1  A    between atoms: C_1  and  O_2
REMARK    2  A    between atoms: O_2  and  C_3
REMARK    3  A    between atoms: C_12  and  O_13
REMARK    4  A    between atoms: N_19  and  C_20
REMARK    5  A    between atoms: C_20  and  C_21
REMARK    6  A    between atoms: C_22  and  C_23
REMARK    7  A    between atoms: C_22  and  C_24
REMARK                            x       y       z     vdW  Elec       q    Type
REMARK                         _______ _______ _______ _____ _____    ______ ____
ROOT
ATOM      1  C   UNL     1      32.977 -36.789 -27.384  0.00  0.00    +0.162 A 
ATOM      2  C   UNL     1      34.158 -37.373 -26.930  0.00  0.00    -0.016 A 
ATOM      3  C   UNL     1      35.376 -37.124 -27.588  0.00  0.00    -0.053 A 
ATOM      4  C   UNL     1      35.452 -36.264 -28.700  0.00  0.00    -0.026 A 
ATOM      5  C   UNL     1      34.285 -35.597 -29.066  0.00  0.00    +0.016 A 
ATOM      6  C   UNL     1      33.073 -35.916 -28.462  0.00  0.00    +0.167 A 
ATOM      7  O   UNL     1      31.982 -35.360 -29.084  0.00  0.00    -0.484 OA
ATOM      8  C   UNL     1      32.534 -34.361 -29.981  0.00  0.00    +0.116 C 
ATOM      9  C   UNL     1      32.189 -33.008 -29.336  0.00  0.00    +0.015 C 
ATOM     10  C   UNL     1      32.912 -31.851 -29.999  0.00  0.00    +0.077 C 
ATOM     11  C   UNL     1      34.371 -32.126 -30.100  0.00  0.00    -0.059 C 
ATOM     12  C   UNL     1      34.886 -33.365 -30.131  0.00  0.00    -0.071 C 
ATOM     13  C   UNL     1      34.061 -34.644 -30.199  0.00  0.00    +0.056 C 
ATOM     14  C   UNL     1      34.308 -35.395 -31.534  0.00  0.00    -0.023 C 
ATOM     15  C   UNL     1      35.590 -36.258 -31.619  0.00  0.00    +0.001 C 
ATOM     16  N   UNL     1      36.711 -35.692 -30.860  0.00  0.00    -0.294 N 
ATOM     17  C   UNL     1      36.760 -36.177 -29.461  0.00  0.00    +0.025 C 
ATOM     18  H   UNL     1      36.536 -34.687 -30.849  0.00  0.00    +0.000 HD
ENDROOT
BRANCH   1  20
ATOM     19  C   UNL     1      31.433 -36.393 -25.623  0.00  0.00    +0.079 C 
ATOM     20  O   UNL     1      31.728 -36.998 -26.873  0.00  0.00    -0.491 OA
ENDBRANCH   1  20
BRANCH  10  21
ATOM     21  O   UNL     1      32.423 -31.635 -31.314  0.00  0.00    -0.388 OA
ATOM     22  H   UNL     1      32.320 -32.487 -31.765  0.00  0.00    +0.000 HD
ENDBRANCH  10  21
BRANCH  16  23
ATOM     23  C   UNL     1      38.013 -35.934 -31.503  0.00  0.00    +0.018 C 
BRANCH  23  24
ATOM     24  C   UNL     1      38.930 -36.733 -30.618  0.00  0.00    -0.071 C 
ATOM     25  C   UNL     1      40.214 -37.071 -30.856  0.00  0.00    -0.078 C 
ATOM     26  C   UNL     1      40.974 -36.740 -32.110  0.00  0.00    -0.044 C 
ATOM     27  C   UNL     1      41.002 -37.858 -29.843  0.00  0.00    -0.044 C 
ENDBRANCH  23  24
ENDBRANCH  16  23
TORSDOF 4
ENDMDL
MODEL 2
REMARK VINA RESULT:    -7.601      2.736      6.754
REMARK INTER + INTRA:          -9.578
REMARK INTER:                  -8.880
REMARK INTRA:                  -0.698
REMARK UNBOUND:                -0.422
REMARK  Name = cpd309.pdb
REMARK  7 active torsions:
REMARK  status: ('A' for Active; 'I' for Inactive)
REMARK    1  A    between atoms: C_1  and  O_2
REMARK    2  A    between atoms: O_2  and  C_3
REMARK    3  A    between atoms: C_12  and  O_13
REMARK    4  A    between atoms: N_19  and  C_20
REMARK    5  A    between atoms: C_20  and  C_21
REMARK    6  A    between atoms: C_22  and  C_23
REMARK    7  A    between atoms: C_22  and  C_24
REMARK                            x       y       z     vdW  Elec       q    Type
REMARK                         _______ _______ _______ _____ _____    ______ ____
ROOT
ATOM      1  C   UNL     1      39.240 -35.916 -31.483  0.00  0.00    +0.162 A 
ATOM      2  C   UNL     1      39.178 -34.569 -31.836  0.00  0.00    -0.016 A 
ATOM      3  C   UNL     1      37.984 -33.843 -31.674  0.00  0.00    -0.053 A 
ATOM      4  C   UNL     1      36.828 -34.435 -31.130  0.00  0.00    -0.026 A 
ATOM      5  C   UNL     1      36.943 -35.746 -30.673  0.00  0.00    +0.016 A 
ATOM      6  C   UNL     1      38.101 -36.477 -30.916  0.00  0.00    +0.167 A 
ATOM      7  O   UNL     1      37.981 -37.815 -30.627  0.00  0.00    -0.484 OA
ATOM      8  C   UNL     1      36.755 -37.921 -29.857  0.00  0.00    +0.116 C 
ATOM      9  C   UNL     1      37.210 -38.193 -28.414  0.00  0.00    +0.015 C 
ATOM     10  C   UNL     1      36.073 -38.076 -27.417  0.00  0.00    +0.077 C 
ATOM     11  C   UNL     1      35.342 -36.791 -27.596  0.00  0.00    -0.059 C 
ATOM     12  C   UNL     1      35.311 -36.118 -28.757  0.00  0.00    -0.071 C 
ATOM     13  C   UNL     1      35.894 -36.628 -30.069  0.00  0.00    +0.056 C 
ATOM     14  C   UNL     1      34.778 -36.862 -31.121  0.00  0.00    -0.023 C 
ATOM     15  C   UNL     1      34.260 -35.614 -31.875  0.00  0.00    +0.001 C 
ATOM     16  N   UNL     1      34.265 -34.402 -31.046  0.00  0.00    -0.294 N 
ATOM     17  C   UNL     1      35.535 -33.645 -31.145  0.00  0.00    +0.025 C 
ATOM     18  H   UNL     1      34.163 -34.742 -30.090  0.00  0.00    +0.000 HD
ENDROOT
BRANCH   1  20
ATOM     19  C   UNL     1      41.340 -36.668 -30.667  0.00  0.00    +0.079 C 
ATOM     20  O   UNL     1      40.315 -36.741 -31.647  0.00  0.00    -0.491 OA
ENDBRANCH   1  20
BRANCH  10  21
ATOM     21  O   UNL     1      35.138 -39.129 -27.589  0.00  0.00    -0.388 OA
ATOM     22  H   UNL     1      35.566 -39.870 -28.047  0.00  0.00    +0.000 HD
ENDBRANCH  10  21
BRANCH  16  23
ATOM     23  C   UNL     1      33.140 -33.503 -31.347  0.00  0.00    +0.018 C 
BRANCH  23  24
ATOM     24  C   UNL     1      32.474 -33.006 -30.093  0.00  0.00    -0.071 C 
ATOM     25  C   UNL     1      31.831 -33.735 -29.158  0.00  0.00    -0.078 C 
ATOM     26  C   UNL     1      31.615 -35.222 -29.222  0.00  0.00    -0.044 C 
ATOM     27  C   UNL     1      31.240 -33.074 -27.941  0.00  0.00    -0.044 C 
ENDBRANCH  23  24
ENDBRANCH  16  23
TORSDOF 4
ENDMDL
MODEL 3
REMARK VINA RESULT:    -7.054     18.856     22.005
REMARK INTER + INTRA:          -8.920
REMARK INTER:                  -8.506
REMARK INTRA:                  -0.413
REMARK UNBOUND:                -0.422
REMARK  Name = cpd309.pdb
REMARK  7 active torsions:
REMARK  status: ('A' for Active; 'I' for Inactive)
REMARK    1  A    between atoms: C_1  and  O_2
REMARK    2  A    between atoms: O_2  and  C_3
REMARK    3  A    between atoms: C_12  and  O_13
REMARK    4  A    between atoms: N_19  and  C_20
REMARK    5  A    between atoms: C_20  and  C_21
REMARK    6  A    between atoms: C_22  and  C_23
REMARK    7  A    between atoms: C_22  and  C_24
REMARK                            x       y       z     vdW  Elec       q    Type
REMARK                         _______ _______ _______ _____ _____    ______ ____
ROOT
ATOM      1  C   UNL     1      46.634 -17.591 -39.908  0.00  0.00    +0.162 A 
ATOM      2  C   UNL     1      45.824 -17.427 -38.785  0.00  0.00    -0.016 A 
ATOM      3  C   UNL     1      44.916 -18.433 -38.409  0.00  0.00    -0.053 A 
ATOM      4  C   UNL     1      44.810 -19.640 -39.127  0.00  0.00    -0.026 A 
ATOM      5  C   UNL     1      45.709 -19.835 -40.172  0.00  0.00    +0.016 A 
ATOM      6  C   UNL     1      46.542 -18.801 -40.586  0.00  0.00    +0.167 A 
ATOM      7  O   UNL     1      47.193 -19.055 -41.769  0.00  0.00    -0.484 OA
ATOM      8  C   UNL     1      47.009 -20.477 -41.998  0.00  0.00    +0.116 C 
ATOM      9  C   UNL     1      48.382 -21.110 -41.721  0.00  0.00    +0.015 C 
ATOM     10  C   UNL     1      48.319 -22.624 -41.656  0.00  0.00    +0.077 C 
ATOM     11  C   UNL     1      47.242 -23.070 -40.730  0.00  0.00    -0.059 C 
ATOM     12  C   UNL     1      46.164 -22.324 -40.442  0.00  0.00    -0.071 C 
ATOM     13  C   UNL     1      45.826 -20.997 -41.110  0.00  0.00    +0.056 C 
ATOM     14  C   UNL     1      44.513 -21.106 -41.930  0.00  0.00    -0.023 C 
ATOM     15  C   UNL     1      43.187 -21.005 -41.137  0.00  0.00    +0.001 C 
ATOM     16  N   UNL     1      43.280 -21.588 -39.793  0.00  0.00    -0.294 N 
ATOM     17  C   UNL     1      43.695 -20.602 -38.768  0.00  0.00    +0.025 C 
ATOM     18  H   UNL     1      44.006 -22.301 -39.869  0.00  0.00    +0.000 HD
ENDROOT
BRANCH   1  20
ATOM     19  C   UNL     1      47.579 -15.418 -39.743  0.00  0.00    +0.079 C 
ATOM     20  O   UNL     1      47.507 -16.669 -40.410  0.00  0.00    -0.491 OA
ENDBRANCH   1  20
BRANCH  10  21
ATOM     21  O   UNL     1      48.042 -23.174 -42.934  0.00  0.00    -0.388 OA
ATOM     22  H   UNL     1      48.374 -24.085 -42.973  0.00  0.00    +0.000 HD
ENDBRANCH  10  21
BRANCH  16  23
ATOM     23  C   UNL     1      42.030 -22.234 -39.366  0.00  0.00    +0.018 C 
BRANCH  23  24
ATOM     24  C   UNL     1      40.965 -21.224 -39.038  0.00  0.00    -0.071 C 
ATOM     25  C   UNL     1      40.019 -21.307 -38.079  0.00  0.00    -0.078 C 
ATOM     26  C   UNL     1      39.821 -22.483 -37.163  0.00  0.00    -0.044 C 
ATOM     27  C   UNL     1      39.039 -20.183 -37.867  0.00  0.00    -0.044 C 
ENDBRANCH  23  24
ENDBRANCH  16  23
TORSDOF 4
ENDMDL
MODEL 4
REMARK VINA RESULT:    -6.868      2.461      6.100
REMARK INTER + INTRA:          -8.695
REMARK INTER:                  -8.139
REMARK INTRA:                  -0.557
REMARK UNBOUND:                -0.422
REMARK  Name = cpd309.pdb
REMARK  7 active torsions:
REMARK  status: ('A' for Active; 'I' for Inactive)
REMARK    1  A    between atoms: C_1  and  O_2
REMARK    2  A    between atoms: O_2  and  C_3
REMARK    3  A    between atoms: C_12  and  O_13
REMARK    4  A    between atoms: N_19  and  C_20
REMARK    5  A    between atoms: C_20  and  C_21
REMARK    6  A    between atoms: C_22  and  C_23
REMARK    7  A    between atoms: C_22  and  C_24
REMARK                            x       y       z     vdW  Elec       q    Type
REMARK                         _______ _______ _______ _____ _____    ______ ____
ROOT
ATOM      1  C   UNL     1      38.594 -37.568 -29.417  0.00  0.00    +0.162 A 
ATOM      2  C   UNL     1      38.959 -36.628 -30.380  0.00  0.00    -0.016 A 
ATOM      3  C   UNL     1      37.976 -35.897 -31.071  0.00  0.00    -0.053 A 
ATOM      4  C   UNL     1      36.605 -36.064 -30.801  0.00  0.00    -0.026 A 
ATOM      5  C   UNL     1      36.264 -36.919 -29.755  0.00  0.00    +0.016 A 
ATOM      6  C   UNL     1      37.239 -37.697 -29.138  0.00  0.00    +0.167 A 
ATOM      7  O   UNL     1      36.728 -38.659 -28.300  0.00  0.00    -0.484 OA
ATOM      8  C   UNL     1      35.335 -38.294 -28.119  0.00  0.00    +0.116 C 
ATOM      9  C   UNL     1      35.245 -37.751 -26.684  0.00  0.00    +0.015 C 
ATOM     10  C   UNL     1      33.915 -37.079 -26.402  0.00  0.00    +0.077 C 
ATOM     11  C   UNL     1      33.595 -36.077 -27.456  0.00  0.00    -0.059 C 
ATOM     12  C   UNL     1      34.081 -36.142 -28.705  0.00  0.00    -0.071 C 
ATOM     13  C   UNL     1      34.906 -37.300 -29.253  0.00  0.00    +0.056 C 
ATOM     14  C   UNL     1      34.147 -38.036 -30.389  0.00  0.00    -0.023 C 
ATOM     15  C   UNL     1      34.193 -37.384 -31.792  0.00  0.00    +0.001 C 
ATOM     16  N   UNL     1      34.222 -35.917 -31.740  0.00  0.00    -0.294 N 
ATOM     17  C   UNL     1      35.599 -35.372 -31.700  0.00  0.00    +0.025 C 
ATOM     18  H   UNL     1      33.753 -35.679 -30.865  0.00  0.00    +0.000 HD
ENDROOT
BRANCH   1  20
ATOM     19  C   UNL     1      40.820 -38.325 -29.076  0.00  0.00    +0.079 C 
ATOM     20  O   UNL     1      39.445 -38.380 -28.725  0.00  0.00    -0.491 OA
ENDBRANCH   1  20
BRANCH  10  21
ATOM     21  O   UNL     1      32.861 -38.029 -26.378  0.00  0.00    -0.388 OA
ATOM     22  H   UNL     1      33.151 -38.843 -26.818  0.00  0.00    +0.000 HD
ENDBRANCH  10  21
BRANCH  16  23
ATOM     23  C   UNL     1      33.486 -35.294 -32.851  0.00  0.00    +0.018 C 
BRANCH  23  24
ATOM     24  C   UNL     1      32.252 -34.580 -32.370  0.00  0.00    -0.071 C 
ATOM     25  C   UNL     1      32.177 -33.360 -31.799  0.00  0.00    -0.078 C 
ATOM     26  C   UNL     1      33.356 -32.481 -31.486  0.00  0.00    -0.044 C 
ATOM     27  C   UNL     1      30.846 -32.780 -31.398  0.00  0.00    -0.044 C 
ENDBRANCH  23  24
ENDBRANCH  16  23
TORSDOF 4
ENDMDL
MODEL 5
REMARK VINA RESULT:    -6.817     15.536     17.875
REMARK INTER + INTRA:          -8.634
REMARK INTER:                  -8.237
REMARK INTRA:                  -0.397
REMARK UNBOUND:                -0.422
REMARK  Name = cpd309.pdb
REMARK  7 active torsions:
REMARK  status: ('A' for Active; 'I' for Inactive)
REMARK    1  A    between atoms: C_1  and  O_2
REMARK    2  A    between atoms: O_2  and  C_3
REMARK    3  A    between atoms: C_12  and  O_13
REMARK    4  A    between atoms: N_19  and  C_20
REMARK    5  A    between atoms: C_20  and  C_21
REMARK    6  A    between atoms: C_22  and  C_23
REMARK    7  A    between atoms: C_22  and  C_24
REMARK                            x       y       z     vdW  Elec       q    Type
REMARK                         _______ _______ _______ _____ _____    ______ ____
ROOT
ATOM      1  C   UNL     1      40.326 -22.705 -33.710  0.00  0.00    +0.162 A 
ATOM      2  C   UNL     1      40.552 -21.853 -32.630  0.00  0.00    -0.016 A 
ATOM      3  C   UNL     1      41.276 -20.660 -32.803  0.00  0.00    -0.053 A 
ATOM      4  C   UNL     1      41.772 -20.273 -34.063  0.00  0.00    -0.026 A 
ATOM      5  C   UNL     1      41.436 -21.075 -35.150  0.00  0.00    +0.016 A 
ATOM      6  C   UNL     1      40.792 -22.293 -34.953  0.00  0.00    +0.167 A 
ATOM      7  O   UNL     1      40.743 -23.080 -36.078  0.00  0.00    -0.484 OA
ATOM      8  C   UNL     1      41.112 -22.195 -37.169  0.00  0.00    +0.116 C 
ATOM      9  C   UNL     1      39.805 -21.937 -37.936  0.00  0.00    +0.015 C 
ATOM     10  C   UNL     1      39.945 -20.825 -38.958  0.00  0.00    +0.077 C 
ATOM     11  C   UNL     1      40.541 -19.609 -38.340  0.00  0.00    -0.059 C 
ATOM     12  C   UNL     1      41.328 -19.647 -37.253  0.00  0.00    -0.071 C 
ATOM     13  C   UNL     1      41.825 -20.925 -36.588  0.00  0.00    +0.056 C 
ATOM     14  C   UNL     1      43.368 -21.046 -36.700  0.00  0.00    -0.023 C 
ATOM     15  C   UNL     1      44.204 -20.232 -35.683  0.00  0.00    +0.001 C 
ATOM     16  N   UNL     1      43.578 -18.955 -35.320  0.00  0.00    -0.294 N 
ATOM     17  C   UNL     1      42.687 -19.067 -34.142  0.00  0.00    +0.025 C 
ATOM     18  H   UNL     1      43.013 -18.704 -36.132  0.00  0.00    +0.000 HD
ENDROOT
BRANCH   1  20
ATOM     19  C   UNL     1      38.274 -23.903 -33.698  0.00  0.00    +0.079 C 
ATOM     20  O   UNL     1      39.694 -23.914 -33.661  0.00  0.00    -0.491 OA
ENDBRANCH   1  20
BRANCH  10  21
ATOM     21  O   UNL     1      40.791 -21.222 -40.027  0.00  0.00    -0.388 OA
ATOM     22  H   UNL     1      40.390 -21.971 -40.495  0.00  0.00    +0.000 HD
ENDBRANCH  10  21
BRANCH  16  23
ATOM     23  C   UNL     1      44.562 -17.886 -35.085  0.00  0.00    +0.018 C 
BRANCH  23  24
ATOM     24  C   UNL     1      45.911 -18.442 -34.719  0.00  0.00    -0.071 C 
ATOM     25  C   UNL     1      47.100 -18.159 -35.291  0.00  0.00    -0.078 C 
ATOM     26  C   UNL     1      47.295 -17.242 -36.466  0.00  0.00    -0.044 C 
ATOM     27  C   UNL     1      48.368 -18.791 -34.779  0.00  0.00    -0.044 C 
ENDBRANCH  23  24
ENDBRANCH  16  23
TORSDOF 4
ENDMDL
MODEL 6
REMARK VINA RESULT:    -6.771     18.136     21.204
REMARK INTER + INTRA:          -8.579
REMARK INTER:                  -8.154
REMARK INTRA:                  -0.426
REMARK UNBOUND:                -0.422
REMARK  Name = cpd309.pdb
REMARK  7 active torsions:
REMARK  status: ('A' for Active; 'I' for Inactive)
REMARK    1  A    between atoms: C_1  and  O_2
REMARK    2  A    between atoms: O_2  and  C_3
REMARK    3  A    between atoms: C_12  and  O_13
REMARK    4  A    between atoms: N_19  and  C_20
REMARK    5  A    between atoms: C_20  and  C_21
REMARK    6  A    between atoms: C_22  and  C_23
REMARK    7  A    between atoms: C_22  and  C_24
REMARK                            x       y       z     vdW  Elec       q    Type
REMARK                         _______ _______ _______ _____ _____    ______ ____
ROOT
ATOM      1  C   UNL     1      44.225 -17.002 -40.239  0.00  0.00    +0.162 A 
ATOM      2  C   UNL     1      43.616 -16.857 -38.993  0.00  0.00    -0.016 A 
ATOM      3  C   UNL     1      43.130 -17.982 -38.302  0.00  0.00    -0.053 A 
ATOM      4  C   UNL     1      43.262 -19.283 -38.824  0.00  0.00    -0.026 A 
ATOM      5  C   UNL     1      43.978 -19.421 -40.010  0.00  0.00    +0.016 A 
ATOM      6  C   UNL     1      44.379 -18.295 -40.724  0.00  0.00    +0.167 A 
ATOM      7  O   UNL     1      44.855 -18.579 -41.981  0.00  0.00    -0.484 OA
ATOM      8  C   UNL     1      45.065 -20.016 -41.985  0.00  0.00    +0.116 C 
ATOM      9  C   UNL     1      46.590 -20.199 -41.943  0.00  0.00    +0.015 C 
ATOM     10  C   UNL     1      46.993 -21.638 -41.679  0.00  0.00    +0.077 C 
ATOM     11  C   UNL     1      46.279 -22.177 -40.489  0.00  0.00    -0.059 C 
ATOM     12  C   UNL     1      45.097 -21.705 -40.063  0.00  0.00    -0.071 C 
ATOM     13  C   UNL     1      44.267 -20.661 -40.799  0.00  0.00    +0.056 C 
ATOM     14  C   UNL     1      42.922 -21.261 -41.287  0.00  0.00    -0.023 C 
ATOM     15  C   UNL     1      41.789 -21.374 -40.238  0.00  0.00    +0.001 C 
ATOM     16  N   UNL     1      42.288 -21.655 -38.886  0.00  0.00    -0.294 N 
ATOM     17  C   UNL     1      42.565 -20.424 -38.110  0.00  0.00    +0.025 C 
ATOM     18  H   UNL     1      43.167 -22.152 -39.033  0.00  0.00    +0.000 HD
ENDROOT
BRANCH   1  20
ATOM     19  C   UNL     1      43.706 -15.222 -41.724  0.00  0.00    +0.079 C 
ATOM     20  O   UNL     1      44.681 -15.989 -41.032  0.00  0.00    -0.491 OA
ENDBRANCH   1  20
BRANCH  10  21
ATOM     21  O   UNL     1      46.670 -22.466 -42.785  0.00  0.00    -0.388 OA
ATOM     22  H   UNL     1      47.157 -22.163 -43.568  0.00  0.00    +0.000 HD
ENDBRANCH  10  21
BRANCH  16  23
ATOM     23  C   UNL     1      41.382 -22.521 -38.116  0.00  0.00    +0.018 C 
BRANCH  23  24
ATOM     24  C   UNL     1      41.268 -22.074 -36.684  0.00  0.00    -0.071 C 
ATOM     25  C   UNL     1      40.280 -22.356 -35.810  0.00  0.00    -0.078 C 
ATOM     26  C   UNL     1      39.049 -23.157 -36.130  0.00  0.00    -0.044 C 
ATOM     27  C   UNL     1      40.337 -21.844 -34.395  0.00  0.00    -0.044 C 
ENDBRANCH  23  24
ENDBRANCH  16  23
TORSDOF 4
ENDMDL
MODEL 7
REMARK VINA RESULT:    -6.696      1.765      4.028
REMARK INTER + INTRA:          -8.488
REMARK INTER:                  -8.070
REMARK INTRA:                  -0.419
REMARK UNBOUND:                -0.422
REMARK  Name = cpd309.pdb
REMARK  7 active torsions:
REMARK  status: ('A' for Active; 'I' for Inactive)
REMARK    1  A    between atoms: C_1  and  O_2
REMARK    2  A    between atoms: O_2  and  C_3
REMARK    3  A    between atoms: C_12  and  O_13
REMARK    4  A    between atoms: N_19  and  C_20
REMARK    5  A    between atoms: C_20  and  C_21
REMARK    6  A    between atoms: C_22  and  C_23
REMARK    7  A    between atoms: C_22  and  C_24
REMARK                            x       y       z     vdW  Elec       q    Type
REMARK                         _______ _______ _______ _____ _____    ______ ____
ROOT
ATOM      1  C   UNL     1      33.035 -32.652 -30.095  0.00  0.00    +0.162 A 
ATOM      2  C   UNL     1      34.252 -32.066 -30.439  0.00  0.00    -0.016 A 
ATOM      3  C   UNL     1      35.370 -32.866 -30.736  0.00  0.00    -0.053 A 
ATOM      4  C   UNL     1      35.297 -34.272 -30.722  0.00  0.00    -0.026 A 
ATOM      5  C   UNL     1      34.046 -34.839 -30.494  0.00  0.00    +0.016 A 
ATOM      6  C   UNL     1      32.969 -34.040 -30.120  0.00  0.00    +0.167 A 
ATOM      7  O   UNL     1      31.874 -34.753 -29.695  0.00  0.00    -0.484 OA
ATOM      8  C   UNL     1      32.139 -36.121 -30.102  0.00  0.00    +0.116 C 
ATOM      9  C   UNL     1      31.187 -36.381 -31.281  0.00  0.00    +0.015 C 
ATOM     10  C   UNL     1      31.504 -37.675 -32.005  0.00  0.00    +0.077 C 
ATOM     11  C   UNL     1      32.948 -37.745 -32.358  0.00  0.00    -0.059 C 
ATOM     12  C   UNL     1      33.903 -37.082 -31.686  0.00  0.00    -0.071 C 
ATOM     13  C   UNL     1      33.667 -36.286 -30.409  0.00  0.00    +0.056 C 
ATOM     14  C   UNL     1      34.416 -36.924 -29.209  0.00  0.00    -0.023 C 
ATOM     15  C   UNL     1      35.927 -36.610 -29.086  0.00  0.00    +0.001 C 
ATOM     16  N   UNL     1      36.588 -36.463 -30.388  0.00  0.00    -0.294 N 
ATOM     17  C   UNL     1      36.578 -35.066 -30.882  0.00  0.00    +0.025 C 
ATOM     18  H   UNL     1      36.035 -37.037 -31.026  0.00  0.00    +0.000 HD
ENDROOT
BRANCH   1  20
ATOM     19  C   UNL     1      31.272 -31.187 -30.719  0.00  0.00    +0.079 C 
ATOM     20  O   UNL     1      31.899 -31.989 -29.729  0.00  0.00    -0.491 OA
ENDBRANCH   1  20
BRANCH  10  21
ATOM     21  O   UNL     1      31.206 -38.798 -31.190  0.00  0.00    -0.388 OA
ATOM     22  H   UNL     1      31.876 -38.878 -30.493  0.00  0.00    +0.000 HD
ENDBRANCH  10  21
BRANCH  16  23
ATOM     23  C   UNL     1      37.971 -36.966 -30.383  0.00  0.00    +0.018 C 
BRANCH  23  24
ATOM     24  C   UNL     1      38.912 -36.013 -31.068  0.00  0.00    -0.071 C 
ATOM     25  C   UNL     1      40.256 -36.095 -31.142  0.00  0.00    -0.078 C 
ATOM     26  C   UNL     1      41.092 -37.164 -30.494  0.00  0.00    -0.044 C 
ATOM     27  C   UNL     1      41.049 -35.060 -31.897  0.00  0.00    -0.044 C 
ENDBRANCH  23  24
ENDBRANCH  16  23
TORSDOF 4
ENDMDL
MODEL 8
REMARK VINA RESULT:    -6.627     18.777     21.358
REMARK INTER + INTRA:          -8.406
REMARK INTER:                  -7.910
REMARK INTRA:                  -0.495
REMARK UNBOUND:                -0.422
REMARK  Name = cpd309.pdb
REMARK  7 active torsions:
REMARK  status: ('A' for Active; 'I' for Inactive)
REMARK    1  A    between atoms: C_1  and  O_2
REMARK    2  A    between atoms: O_2  and  C_3
REMARK    3  A    between atoms: C_12  and  O_13
REMARK    4  A    between atoms: N_19  and  C_20
REMARK    5  A    between atoms: C_20  and  C_21
REMARK    6  A    between atoms: C_22  and  C_23
REMARK    7  A    between atoms: C_22  and  C_24
REMARK                            x       y       z     vdW  Elec       q    Type
REMARK                         _______ _______ _______ _____ _____    ______ ____
ROOT
ATOM      1  C   UNL     1      46.384 -22.268 -41.401  0.00  0.00    +0.162 A 
ATOM      2  C   UNL     1      47.588 -22.101 -40.718  0.00  0.00    -0.016 A 
ATOM      3  C   UNL     1      47.696 -21.151 -39.686  0.00  0.00    -0.053 A 
ATOM      4  C   UNL     1      46.600 -20.362 -39.290  0.00  0.00    -0.026 A 
ATOM      5  C   UNL     1      45.376 -20.625 -39.901  0.00  0.00    +0.016 A 
ATOM      6  C   UNL     1      45.302 -21.506 -40.976  0.00  0.00    +0.167 A 
ATOM      7  O   UNL     1      44.092 -21.483 -41.627  0.00  0.00    -0.484 OA
ATOM      8  C   UNL     1      43.204 -20.757 -40.737  0.00  0.00    +0.116 C 
ATOM      9  C   UNL     1      42.267 -21.823 -40.147  0.00  0.00    +0.015 C 
ATOM     10  C   UNL     1      41.436 -21.290 -38.996  0.00  0.00    +0.077 C 
ATOM     11  C   UNL     1      42.299 -20.612 -37.990  0.00  0.00    -0.059 C 
ATOM     12  C   UNL     1      43.488 -20.067 -38.289  0.00  0.00    -0.071 C 
ATOM     13  C   UNL     1      44.056 -19.948 -39.698  0.00  0.00    +0.056 C 
ATOM     14  C   UNL     1      44.192 -18.461 -40.120  0.00  0.00    -0.023 C 
ATOM     15  C   UNL     1      45.432 -17.699 -39.592  0.00  0.00    +0.001 C 
ATOM     16  N   UNL     1      45.846 -18.139 -38.255  0.00  0.00    -0.294 N 
ATOM     17  C   UNL     1      46.833 -19.243 -38.294  0.00  0.00    +0.025 C 
ATOM     18  H   UNL     1      44.991 -18.484 -37.818  0.00  0.00    +0.000 HD
ENDROOT
BRANCH   1  20
ATOM     19  C   UNL     1      47.142 -24.115 -42.687  0.00  0.00    +0.079 C 
ATOM     20  O   UNL     1      46.169 -23.108 -42.455  0.00  0.00    -0.491 OA
ENDBRANCH   1  20
BRANCH  10  21
ATOM     21  O   UNL     1      40.483 -20.343 -39.454  0.00  0.00    -0.388 OA
ATOM     22  H   UNL     1      40.805 -19.930 -40.270  0.00  0.00    +0.000 HD
ENDBRANCH  10  21
BRANCH  16  23
ATOM     23  C   UNL     1      46.381 -17.040 -37.435  0.00  0.00    +0.018 C 
BRANCH  23  24
ATOM     24  C   UNL     1      45.843 -17.080 -36.031  0.00  0.00    -0.071 C 
ATOM     25  C   UNL     1      46.483 -17.490 -34.917  0.00  0.00    -0.078 C 
ATOM     26  C   UNL     1      47.880 -18.044 -34.879  0.00  0.00    -0.044 C 
ATOM     27  C   UNL     1      45.799 -17.438 -33.576  0.00  0.00    -0.044 C 
ENDBRANCH  23  24
ENDBRANCH  16  23
TORSDOF 4
ENDMDL
MODEL 9
REMARK VINA RESULT:    -6.547     15.124     17.761
REMARK INTER + INTRA:          -8.309
REMARK INTER:                  -7.880
REMARK INTRA:                  -0.429
REMARK UNBOUND:                -0.422
REMARK  Name = cpd309.pdb
REMARK  7 active torsions:
REMARK  status: ('A' for Active; 'I' for Inactive)
REMARK    1  A    between atoms: C_1  and  O_2
REMARK    2  A    between atoms: O_2  and  C_3
REMARK    3  A    between atoms: C_12  and  O_13
REMARK    4  A    between atoms: N_19  and  C_20
REMARK    5  A    between atoms: C_20  and  C_21
REMARK    6  A    between atoms: C_22  and  C_23
REMARK    7  A    between atoms: C_22  and  C_24
REMARK                            x       y       z     vdW  Elec       q    Type
REMARK                         _______ _______ _______ _____ _____    ______ ____
ROOT
ATOM      1  C   UNL     1      39.994 -23.027 -33.689  0.00  0.00    +0.162 A 
ATOM      2  C   UNL     1      40.244 -22.335 -32.505  0.00  0.00    -0.016 A 
ATOM      3  C   UNL     1      40.984 -21.139 -32.522  0.00  0.00    -0.053 A 
ATOM      4  C   UNL     1      41.471 -20.588 -33.722  0.00  0.00    -0.026 A 
ATOM      5  C   UNL     1      41.111 -21.228 -34.905  0.00  0.00    +0.016 A 
ATOM      6  C   UNL     1      40.452 -22.453 -34.869  0.00  0.00    +0.167 A 
ATOM      7  O   UNL     1      40.377 -23.077 -36.091  0.00  0.00    -0.484 OA
ATOM      8  C   UNL     1      40.747 -22.055 -37.054  0.00  0.00    +0.116 C 
ATOM      9  C   UNL     1      39.436 -21.676 -37.762  0.00  0.00    +0.015 C 
ATOM     10  C   UNL     1      39.580 -20.436 -38.622  0.00  0.00    +0.077 C 
ATOM     11  C   UNL     1      40.201 -19.325 -37.850  0.00  0.00    -0.059 C 
ATOM     12  C   UNL     1      41.000 -19.522 -36.790  0.00  0.00    -0.071 C 
ATOM     13  C   UNL     1      41.485 -20.886 -36.314  0.00  0.00    +0.056 C 
ATOM     14  C   UNL     1      43.025 -21.011 -36.462  0.00  0.00    -0.023 C 
ATOM     15  C   UNL     1      43.885 -20.356 -35.354  0.00  0.00    +0.001 C 
ATOM     16  N   UNL     1      43.282 -19.133 -34.810  0.00  0.00    -0.294 N 
ATOM     17  C   UNL     1      42.404 -19.395 -33.647  0.00  0.00    +0.025 C 
ATOM     18  H   UNL     1      42.711 -18.765 -35.572  0.00  0.00    +0.000 HD
ENDROOT
BRANCH   1  20
ATOM     19  C   UNL     1      37.950 -24.227 -33.530  0.00  0.00    +0.079 C 
ATOM     20  O   UNL     1      39.344 -24.223 -33.798  0.00  0.00    -0.491 OA
ENDBRANCH   1  20
BRANCH  10  21
ATOM     21  O   UNL     1      40.407 -20.692 -39.746  0.00  0.00    -0.388 OA
ATOM     22  H   UNL     1      40.391 -19.926 -40.341  0.00  0.00    +0.000 HD
ENDBRANCH  10  21
BRANCH  16  23
ATOM     23  C   UNL     1      44.284 -18.121 -34.443  0.00  0.00    +0.018 C 
BRANCH  23  24
ATOM     24  C   UNL     1      43.645 -16.891 -33.858  0.00  0.00    -0.071 C 
ATOM     25  C   UNL     1      43.981 -16.252 -32.719  0.00  0.00    -0.078 C 
ATOM     26  C   UNL     1      45.061 -16.691 -31.770  0.00  0.00    -0.044 C 
ATOM     27  C   UNL     1      43.246 -15.009 -32.291  0.00  0.00    -0.044 C 
ENDBRANCH  23  24
ENDBRANCH  16  23
TORSDOF 4
ENDMDL
MODEL 10
REMARK VINA RESULT:    -6.453      1.823      2.397
REMARK INTER + INTRA:          -8.196
REMARK INTER:                  -7.660
REMARK INTRA:                  -0.536
REMARK UNBOUND:                -0.422
REMARK  Name = cpd309.pdb
REMARK  7 active torsions:
REMARK  status: ('A' for Active; 'I' for Inactive)
REMARK    1  A    between atoms: C_1  and  O_2
REMARK    2  A    between atoms: O_2  and  C_3
REMARK    3  A    between atoms: C_12  and  O_13
REMARK    4  A    between atoms: N_19  and  C_20
REMARK    5  A    between atoms: C_20  and  C_21
REMARK    6  A    between atoms: C_22  and  C_23
REMARK    7  A    between atoms: C_22  and  C_24
REMARK                            x       y       z     vdW  Elec       q    Type
REMARK                         _______ _______ _______ _____ _____    ______ ____
ROOT
ATOM      1  C   UNL     1      30.684 -35.446 -27.936  0.00  0.00    +0.162 A 
ATOM      2  C   UNL     1      31.151 -36.534 -27.200  0.00  0.00    -0.016 A 
ATOM      3  C   UNL     1      32.350 -37.176 -27.559  0.00  0.00    -0.053 A 
ATOM      4  C   UNL     1      33.128 -36.733 -28.645  0.00  0.00    -0.026 A 
ATOM      5  C   UNL     1      32.709 -35.575 -29.294  0.00  0.00    +0.016 A 
ATOM      6  C   UNL     1      31.480 -35.000 -28.984  0.00  0.00    +0.167 A 
ATOM      7  O   UNL     1      31.093 -34.016 -29.861  0.00  0.00    -0.484 OA
ATOM      8  C   UNL     1      32.287 -33.712 -30.630  0.00  0.00    +0.116 C 
ATOM      9  C   UNL     1      32.752 -32.338 -30.123  0.00  0.00    +0.015 C 
ATOM     10  C   UNL     1      34.135 -31.973 -30.628  0.00  0.00    +0.077 C 
ATOM     11  C   UNL     1      35.100 -33.077 -30.375  0.00  0.00    -0.059 C 
ATOM     12  C   UNL     1      34.732 -34.361 -30.248  0.00  0.00    -0.071 C 
ATOM     13  C   UNL     1      33.318 -34.883 -30.474  0.00  0.00    +0.056 C 
ATOM     14  C   UNL     1      33.267 -35.843 -31.692  0.00  0.00    -0.023 C 
ATOM     15  C   UNL     1      33.729 -37.300 -31.448  0.00  0.00    +0.001 C 
ATOM     16  N   UNL     1      34.812 -37.399 -30.462  0.00  0.00    -0.294 N 
ATOM     17  C   UNL     1      34.313 -37.574 -29.078  0.00  0.00    +0.025 C 
ATOM     18  H   UNL     1      35.299 -36.504 -30.521  0.00  0.00    +0.000 HD
ENDROOT
BRANCH   1  20
ATOM     19  C   UNL     1      28.391 -35.553 -27.325  0.00  0.00    +0.079 C 
ATOM     20  O   UNL     1      29.511 -34.779 -27.728  0.00  0.00    -0.491 OA
ENDBRANCH   1  20
BRANCH  10  21
ATOM     21  O   UNL     1      34.116 -31.731 -32.026  0.00  0.00    -0.388 OA
ATOM     22  H   UNL     1      33.385 -31.129 -32.241  0.00  0.00    +0.000 HD
ENDBRANCH  10  21
BRANCH  16  23
ATOM     23  C   UNL     1      35.767 -38.474 -30.772  0.00  0.00    +0.018 C 
BRANCH  23  24
ATOM     24  C   UNL     1      36.782 -38.651 -29.676  0.00  0.00    -0.071 C 
ATOM     25  C   UNL     1      37.872 -37.895 -29.433  0.00  0.00    -0.078 C 
ATOM     26  C   UNL     1      38.313 -36.725 -30.268  0.00  0.00    -0.044 C 
ATOM     27  C   UNL     1      38.774 -38.200 -28.267  0.00  0.00    -0.044 C 
ENDBRANCH  23  24
ENDBRANCH  16  23
TORSDOF 4
ENDMDL
MODEL 11
REMARK VINA RESULT:    -6.450     17.203     19.609
REMARK INTER + INTRA:          -8.192
REMARK INTER:                  -7.650
REMARK INTRA:                  -0.541
REMARK UNBOUND:                -0.422
REMARK  Name = cpd309.pdb
REMARK  7 active torsions:
REMARK  status: ('A' for Active; 'I' for Inactive)
REMARK    1  A    between atoms: C_1  and  O_2
REMARK    2  A    between atoms: O_2  and  C_3
REMARK    3  A    between atoms: C_12  and  O_13
REMARK    4  A    between atoms: N_19  and  C_20
REMARK    5  A    between atoms: C_20  and  C_21
REMARK    6  A    between atoms: C_22  and  C_23
REMARK    7  A    between atoms: C_22  and  C_24
REMARK                            x       y       z     vdW  Elec       q    Type
REMARK                         _______ _______ _______ _____ _____    ______ ____
ROOT
ATOM      1  C   UNL     1      41.142 -21.299 -36.249  0.00  0.00    +0.162 A 
ATOM      2  C   UNL     1      40.784 -22.063 -37.358  0.00  0.00    -0.016 A 
ATOM      3  C   UNL     1      41.564 -22.029 -38.528  0.00  0.00    -0.053 A 
ATOM      4  C   UNL     1      42.735 -21.252 -38.614  0.00  0.00    -0.026 A 
ATOM      5  C   UNL     1      43.141 -20.589 -37.458  0.00  0.00    +0.016 A 
ATOM      6  C   UNL     1      42.318 -20.564 -36.336  0.00  0.00    +0.167 A 
ATOM      7  O   UNL     1      42.731 -19.680 -35.368  0.00  0.00    -0.484 OA
ATOM      8  C   UNL     1      44.085 -19.318 -35.747  0.00  0.00    +0.116 C 
ATOM      9  C   UNL     1      44.991 -20.033 -34.732  0.00  0.00    +0.015 C 
ATOM     10  C   UNL     1      46.455 -19.982 -35.127  0.00  0.00    +0.077 C 
ATOM     11  C   UNL     1      46.640 -20.431 -36.534  0.00  0.00    -0.059 C 
ATOM     12  C   UNL     1      45.674 -20.356 -37.463  0.00  0.00    -0.071 C 
ATOM     13  C   UNL     1      44.320 -19.690 -37.253  0.00  0.00    +0.056 C 
ATOM     14  C   UNL     1      44.162 -18.448 -38.169  0.00  0.00    -0.023 C 
ATOM     15  C   UNL     1      43.763 -18.717 -39.641  0.00  0.00    +0.001 C 
ATOM     16  N   UNL     1      44.323 -19.968 -40.165  0.00  0.00    -0.294 N 
ATOM     17  C   UNL     1      43.427 -21.129 -39.957  0.00  0.00    +0.025 C 
ATOM     18  H   UNL     1      45.177 -20.116 -39.627  0.00  0.00    +0.000 HD
ENDROOT
BRANCH   1  20
ATOM     19  C   UNL     1      39.726 -22.350 -34.657  0.00  0.00    +0.079 C 
ATOM     20  O   UNL     1      40.440 -21.198 -35.082  0.00  0.00    -0.491 OA
ENDBRANCH   1  20
BRANCH  10  21
ATOM     21  O   UNL     1      46.961 -18.660 -35.028  0.00  0.00    -0.388 OA
ATOM     22  H   UNL     1      46.298 -18.091 -34.606  0.00  0.00    +0.000 HD
ENDBRANCH  10  21
BRANCH  16  23
ATOM     23  C   UNL     1      44.677 -19.879 -41.591  0.00  0.00    +0.018 C 
BRANCH  23  24
ATOM     24  C   UNL     1      45.167 -21.196 -42.126  0.00  0.00    -0.071 C 
ATOM     25  C   UNL     1      46.384 -21.752 -41.957  0.00  0.00    -0.078 C 
ATOM     26  C   UNL     1      47.527 -21.115 -41.216  0.00  0.00    -0.044 C 
ATOM     27  C   UNL     1      46.701 -23.102 -42.545  0.00  0.00    -0.044 C 
ENDBRANCH  23  24
ENDBRANCH  16  23
TORSDOF 4
ENDMDL
MODEL 12
REMARK VINA RESULT:    -6.393     18.001     21.007
REMARK INTER + INTRA:          -8.124
REMARK INTER:                  -7.739
REMARK INTRA:                  -0.384
REMARK UNBOUND:                -0.422
REMARK  Name = cpd309.pdb
REMARK  7 active torsions:
REMARK  status: ('A' for Active; 'I' for Inactive)
REMARK    1  A    between atoms: C_1  and  O_2
REMARK    2  A    between atoms: O_2  and  C_3
REMARK    3  A    between atoms: C_12  and  O_13
REMARK    4  A    between atoms: N_19  and  C_20
REMARK    5  A    between atoms: C_20  and  C_21
REMARK    6  A    between atoms: C_22  and  C_23
REMARK    7  A    between atoms: C_22  and  C_24
REMARK                            x       y       z     vdW  Elec       q    Type
REMARK                         _______ _______ _______ _____ _____    ______ ____
ROOT
ATOM      1  C   UNL     1      46.312 -21.550 -41.749  0.00  0.00    +0.162 A 
ATOM      2  C   UNL     1      45.342 -22.082 -42.598  0.00  0.00    -0.016 A 
ATOM      3  C   UNL     1      43.975 -21.889 -42.328  0.00  0.00    -0.053 A 
ATOM      4  C   UNL     1      43.540 -21.139 -41.219  0.00  0.00    -0.026 A 
ATOM      5  C   UNL     1      44.521 -20.516 -40.451  0.00  0.00    +0.016 A 
ATOM      6  C   UNL     1      45.867 -20.784 -40.678  0.00  0.00    +0.167 A 
ATOM      7  O   UNL     1      46.700 -20.296 -39.700  0.00  0.00    -0.484 OA
ATOM      8  C   UNL     1      45.875 -19.383 -38.929  0.00  0.00    +0.116 C 
ATOM      9  C   UNL     1      46.369 -17.978 -39.308  0.00  0.00    +0.015 C 
ATOM     10  C   UNL     1      45.450 -16.885 -38.797  0.00  0.00    +0.077 C 
ATOM     11  C   UNL     1      44.037 -17.159 -39.177  0.00  0.00    -0.059 C 
ATOM     12  C   UNL     1      43.568 -18.393 -39.422  0.00  0.00    -0.071 C 
ATOM     13  C   UNL     1      44.363 -19.677 -39.220  0.00  0.00    +0.056 C 
ATOM     14  C   UNL     1      43.734 -20.551 -38.103  0.00  0.00    -0.023 C 
ATOM     15  C   UNL     1      42.509 -21.411 -38.498  0.00  0.00    +0.001 C 
ATOM     16  N   UNL     1      41.663 -20.768 -39.511  0.00  0.00    -0.294 N 
ATOM     17  C   UNL     1      42.059 -21.117 -40.895  0.00  0.00    +0.025 C 
ATOM     18  H   UNL     1      41.809 -19.768 -39.374  0.00  0.00    +0.000 HD
ENDROOT
BRANCH   1  20
ATOM     19  C   UNL     1      48.145 -23.052 -41.919  0.00  0.00    +0.079 C 
ATOM     20  O   UNL     1      47.662 -21.717 -41.867  0.00  0.00    -0.491 OA
ENDBRANCH   1  20
BRANCH  10  21
ATOM     21  O   UNL     1      45.505 -16.797 -37.382  0.00  0.00    -0.388 OA
ATOM     22  H   UNL     1      44.722 -17.226 -37.001  0.00  0.00    +0.000 HD
ENDBRANCH  10  21
BRANCH  16  23
ATOM     23  C   UNL     1      40.233 -21.063 -39.327  0.00  0.00    +0.018 C 
BRANCH  23  24
ATOM     24  C   UNL     1      40.011 -22.098 -38.258  0.00  0.00    -0.071 C 
ATOM     25  C   UNL     1      39.353 -21.946 -37.090  0.00  0.00    -0.078 C 
ATOM     26  C   UNL     1      38.740 -20.662 -36.607  0.00  0.00    -0.044 C 
ATOM     27  C   UNL     1      39.200 -23.104 -36.139  0.00  0.00    -0.044 C 
ENDBRANCH  23  24
ENDBRANCH  16  23
TORSDOF 4
ENDMDL
MODEL 13
REMARK VINA RESULT:    -6.317     14.171     17.384
REMARK INTER + INTRA:          -8.032
REMARK INTER:                  -7.629
REMARK INTRA:                  -0.403
REMARK UNBOUND:                -0.422
REMARK  Name = cpd309.pdb
REMARK  7 active torsions:
REMARK  status: ('A' for Active; 'I' for Inactive)
REMARK    1  A    between atoms: C_1  and  O_2
REMARK    2  A    between atoms: O_2  and  C_3
REMARK    3  A    between atoms: C_12  and  O_13
REMARK    4  A    between atoms: N_19  and  C_20
REMARK    5  A    between atoms: C_20  and  C_21
REMARK    6  A    between atoms: C_22  and  C_23
REMARK    7  A    between atoms: C_22  and  C_24
REMARK                            x       y       z     vdW  Elec       q    Type
REMARK                         _______ _______ _______ _____ _____    ______ ____
ROOT
ATOM      1  C   UNL     1      38.311 -23.332 -33.874  0.00  0.00    +0.162 A 
ATOM      2  C   UNL     1      37.358 -22.590 -33.179  0.00  0.00    -0.016 A 
ATOM      3  C   UNL     1      37.550 -21.215 -32.952  0.00  0.00    -0.053 A 
ATOM      4  C   UNL     1      38.686 -20.538 -33.436  0.00  0.00    -0.026 A 
ATOM      5  C   UNL     1      39.568 -21.268 -34.229  0.00  0.00    +0.016 A 
ATOM      6  C   UNL     1      39.410 -22.643 -34.374  0.00  0.00    +0.167 A 
ATOM      7  O   UNL     1      40.479 -23.262 -34.977  0.00  0.00    -0.484 OA
ATOM      8  C   UNL     1      41.267 -22.180 -35.540  0.00  0.00    +0.116 C 
ATOM      9  C   UNL     1      41.040 -22.266 -37.058  0.00  0.00    +0.015 C 
ATOM     10  C   UNL     1      41.578 -21.053 -37.793  0.00  0.00    +0.077 C 
ATOM     11  C   UNL     1      41.082 -19.795 -37.172  0.00  0.00    -0.059 C 
ATOM     12  C   UNL     1      40.704 -19.708 -35.887  0.00  0.00    -0.071 C 
ATOM     13  C   UNL     1      40.851 -20.827 -34.864  0.00  0.00    +0.056 C 
ATOM     14  C   UNL     1      41.847 -20.430 -33.743  0.00  0.00    -0.023 C 
ATOM     15  C   UNL     1      41.300 -19.519 -32.617  0.00  0.00    +0.001 C 
ATOM     16  N   UNL     1      40.290 -18.566 -33.094  0.00  0.00    -0.294 N 
ATOM     17  C   UNL     1      38.911 -19.102 -33.009  0.00  0.00    +0.025 C 
ATOM     18  H   UNL     1      40.519 -18.414 -34.076  0.00  0.00    +0.000 HD
ENDROOT
BRANCH   1  20
ATOM     19  C   UNL     1      37.168 -25.391 -33.567  0.00  0.00    +0.079 C 
ATOM     20  O   UNL     1      38.271 -24.676 -34.105  0.00  0.00    -0.491 OA
ENDBRANCH   1  20
BRANCH  10  21
ATOM     21  O   UNL     1      42.996 -21.023 -37.752  0.00  0.00    -0.388 OA
ATOM     22  H   UNL     1      43.352 -21.558 -38.479  0.00  0.00    +0.000 HD
ENDBRANCH  10  21
BRANCH  16  23
ATOM     23  C   UNL     1      40.352 -17.274 -32.393  0.00  0.00    +0.018 C 
BRANCH  23  24
ATOM     24  C   UNL     1      39.004 -16.859 -31.870  0.00  0.00    -0.071 C 
ATOM     25  C   UNL     1      38.629 -15.636 -31.441  0.00  0.00    -0.078 C 
ATOM     26  C   UNL     1      39.531 -14.436 -31.361  0.00  0.00    -0.044 C 
ATOM     27  C   UNL     1      37.220 -15.385 -30.971  0.00  0.00    -0.044 C 
ENDBRANCH  23  24
ENDBRANCH  16  23
TORSDOF 4
ENDMDL
MODEL 14
REMARK VINA RESULT:    -6.223     18.801     21.743
REMARK INTER + INTRA:          -7.918
REMARK INTER:                  -7.406
REMARK INTRA:                  -0.512
REMARK UNBOUND:                -0.422
REMARK  Name = cpd309.pdb
REMARK  7 active torsions:
REMARK  status: ('A' for Active; 'I' for Inactive)
REMARK    1  A    between atoms: C_1  and  O_2
REMARK    2  A    between atoms: O_2  and  C_3
REMARK    3  A    between atoms: C_12  and  O_13
REMARK    4  A    between atoms: N_19  and  C_20
REMARK    5  A    between atoms: C_20  and  C_21
REMARK    6  A    between atoms: C_22  and  C_23
REMARK    7  A    between atoms: C_22  and  C_24
REMARK                            x       y       z     vdW  Elec       q    Type
REMARK                         _______ _______ _______ _____ _____    ______ ____
ROOT
ATOM      1  C   UNL     1      45.893 -16.504 -39.906  0.00  0.00    +0.162 A 
ATOM      2  C   UNL     1      44.651 -16.320 -40.512  0.00  0.00    -0.016 A 
ATOM      3  C   UNL     1      43.655 -17.308 -40.411  0.00  0.00    -0.053 A 
ATOM      4  C   UNL     1      43.862 -18.493 -39.680  0.00  0.00    -0.026 A 
ATOM      5  C   UNL     1      45.062 -18.607 -38.984  0.00  0.00    +0.016 A 
ATOM      6  C   UNL     1      46.070 -17.664 -39.161  0.00  0.00    +0.167 A 
ATOM      7  O   UNL     1      47.273 -18.030 -38.606  0.00  0.00    -0.484 OA
ATOM      8  C   UNL     1      46.959 -19.155 -37.744  0.00  0.00    +0.116 C 
ATOM      9  C   UNL     1      47.069 -18.607 -36.312  0.00  0.00    +0.015 C 
ATOM     10  C   UNL     1      46.522 -19.573 -35.280  0.00  0.00    +0.077 C 
ATOM     11  C   UNL     1      45.156 -20.032 -35.655  0.00  0.00    -0.059 C 
ATOM     12  C   UNL     1      44.709 -20.052 -36.920  0.00  0.00    -0.071 C 
ATOM     13  C   UNL     1      45.561 -19.742 -38.144  0.00  0.00    +0.056 C 
ATOM     14  C   UNL     1      45.715 -20.995 -39.047  0.00  0.00    -0.023 C 
ATOM     15  C   UNL     1      44.534 -21.320 -39.993  0.00  0.00    +0.001 C 
ATOM     16  N   UNL     1      43.230 -20.966 -39.421  0.00  0.00    -0.294 N 
ATOM     17  C   UNL     1      42.812 -19.584 -39.757  0.00  0.00    +0.025 C 
ATOM     18  H   UNL     1      43.363 -21.028 -38.412  0.00  0.00    +0.000 HD
ENDROOT
BRANCH   1  20
ATOM     19  C   UNL     1      46.764 -14.437 -40.689  0.00  0.00    +0.079 C 
ATOM     20  O   UNL     1      46.957 -15.653 -39.981  0.00  0.00    -0.491 OA
ENDBRANCH   1  20
BRANCH  10  21
ATOM     21  O   UNL     1      47.347 -20.723 -35.173  0.00  0.00    -0.388 OA
ATOM     22  H   UNL     1      46.793 -21.519 -35.172  0.00  0.00    +0.000 HD
ENDBRANCH  10  21
BRANCH  16  23
ATOM     23  C   UNL     1      42.165 -21.903 -39.812  0.00  0.00    +0.018 C 
BRANCH  23  24
ATOM     24  C   UNL     1      41.418 -22.427 -38.615  0.00  0.00    -0.071 C 
ATOM     25  C   UNL     1      40.229 -22.006 -38.138  0.00  0.00    -0.078 C 
ATOM     26  C   UNL     1      39.427 -20.868 -38.705  0.00  0.00    -0.044 C 
ATOM     27  C   UNL     1      39.607 -22.665 -36.935  0.00  0.00    -0.044 C 
ENDBRANCH  23  24
ENDBRANCH  16  23
TORSDOF 4
ENDMDL
MODEL 15
REMARK VINA RESULT:    -6.204     17.963     20.853
REMARK INTER + INTRA:          -7.896
REMARK INTER:                  -7.434
REMARK INTRA:                  -0.462
REMARK UNBOUND:                -0.422
REMARK  Name = cpd309.pdb
REMARK  7 active torsions:
REMARK  status: ('A' for Active; 'I' for Inactive)
REMARK    1  A    between atoms: C_1  and  O_2
REMARK    2  A    between atoms: O_2  and  C_3
REMARK    3  A    between atoms: C_12  and  O_13
REMARK    4  A    between atoms: N_19  and  C_20
REMARK    5  A    between atoms: C_20  and  C_21
REMARK    6  A    between atoms: C_22  and  C_23
REMARK    7  A    between atoms: C_22  and  C_24
REMARK                            x       y       z     vdW  Elec       q    Type
REMARK                         _______ _______ _______ _____ _____    ______ ____
ROOT
ATOM      1  C   UNL     1      46.909 -19.014 -36.094  0.00  0.00    +0.162 A 
ATOM      2  C   UNL     1      45.976 -19.213 -35.078  0.00  0.00    -0.016 A 
ATOM      3  C   UNL     1      44.646 -19.550 -35.387  0.00  0.00    -0.053 A 
ATOM      4  C   UNL     1      44.217 -19.724 -36.717  0.00  0.00    -0.026 A 
ATOM      5  C   UNL     1      45.189 -19.639 -37.711  0.00  0.00    +0.016 A 
ATOM      6  C   UNL     1      46.479 -19.223 -37.400  0.00  0.00    +0.167 A 
ATOM      7  O   UNL     1      47.254 -18.954 -38.502  0.00  0.00    -0.484 OA
ATOM      8  C   UNL     1      46.521 -19.520 -39.620  0.00  0.00    +0.116 C 
ATOM      9  C   UNL     1      47.314 -20.773 -40.027  0.00  0.00    +0.015 C 
ATOM     10  C   UNL     1      46.557 -21.641 -41.013  0.00  0.00    +0.077 C 
ATOM     11  C   UNL     1      45.179 -21.922 -40.524  0.00  0.00    -0.059 C 
ATOM     12  C   UNL     1      44.524 -21.119 -39.671  0.00  0.00    -0.071 C 
ATOM     13  C   UNL     1      45.031 -19.763 -39.195  0.00  0.00    +0.056 C 
ATOM     14  C   UNL     1      44.111 -18.618 -39.694  0.00  0.00    -0.023 C 
ATOM     15  C   UNL     1      42.809 -18.373 -38.892  0.00  0.00    +0.001 C 
ATOM     16  N   UNL     1      42.237 -19.608 -38.342  0.00  0.00    -0.294 N 
ATOM     17  C   UNL     1      42.738 -19.916 -36.983  0.00  0.00    +0.025 C 
ATOM     18  H   UNL     1      42.548 -20.344 -38.977  0.00  0.00    +0.000 HD
ENDROOT
BRANCH   1  20
ATOM     19  C   UNL     1      48.844 -19.005 -34.717  0.00  0.00    +0.079 C 
ATOM     20  O   UNL     1      48.207 -18.627 -35.929  0.00  0.00    -0.491 OA
ENDBRANCH   1  20
BRANCH  10  21
ATOM     21  O   UNL     1      46.442 -20.997 -42.272  0.00  0.00    -0.388 OA
ATOM     22  H   UNL     1      45.759 -21.439 -42.801  0.00  0.00    +0.000 HD
ENDBRANCH  10  21
BRANCH  16  23
ATOM     23  C   UNL     1      40.766 -19.594 -38.326  0.00  0.00    +0.018 C 
BRANCH  23  24
ATOM     24  C   UNL     1      40.209 -20.664 -37.426  0.00  0.00    -0.071 C 
ATOM     25  C   UNL     1      40.054 -21.974 -37.705  0.00  0.00    -0.078 C 
ATOM     26  C   UNL     1      40.377 -22.619 -39.024  0.00  0.00    -0.044 C 
ATOM     27  C   UNL     1      39.500 -22.919 -36.671  0.00  0.00    -0.044 C 
ENDBRANCH  23  24
ENDBRANCH  16  23
TORSDOF 4
ENDMDL
MODEL 16
REMARK VINA RESULT:    -6.201      2.819      6.581
REMARK INTER + INTRA:          -7.892
REMARK INTER:                  -7.343
REMARK INTRA:                  -0.549
REMARK UNBOUND:                -0.422
REMARK  Name = cpd309.pdb
REMARK  7 active torsions:
REMARK  status: ('A' for Active; 'I' for Inactive)
REMARK    1  A    between atoms: C_1  and  O_2
REMARK    2  A    between atoms: O_2  and  C_3
REMARK    3  A    between atoms: C_12  and  O_13
REMARK    4  A    between atoms: N_19  and  C_20
REMARK    5  A    between atoms: C_20  and  C_21
REMARK    6  A    between atoms: C_22  and  C_23
REMARK    7  A    between atoms: C_22  and  C_24
REMARK                            x       y       z     vdW  Elec       q    Type
REMARK                         _______ _______ _______ _____ _____    ______ ____
ROOT
ATOM      1  C   UNL     1      33.012 -38.185 -32.549  0.00  0.00    +0.162 A 
ATOM      2  C   UNL     1      32.592 -37.161 -33.397  0.00  0.00    -0.016 A 
ATOM      3  C   UNL     1      32.893 -35.820 -33.100  0.00  0.00    -0.053 A 
ATOM      4  C   UNL     1      33.644 -35.466 -31.963  0.00  0.00    -0.026 A 
ATOM      5  C   UNL     1      34.157 -36.507 -31.193  0.00  0.00    +0.016 A 
ATOM      6  C   UNL     1      33.781 -37.822 -31.449  0.00  0.00    +0.167 A 
ATOM      7  O   UNL     1      34.166 -38.707 -30.471  0.00  0.00    -0.484 OA
ATOM      8  C   UNL     1      35.123 -37.975 -29.661  0.00  0.00    +0.116 C 
ATOM      9  C   UNL     1      36.491 -38.583 -30.007  0.00  0.00    +0.015 C 
ATOM     10  C   UNL     1      37.643 -37.769 -29.450  0.00  0.00    +0.077 C 
ATOM     11  C   UNL     1      37.503 -36.333 -29.816  0.00  0.00    -0.059 C 
ATOM     12  C   UNL     1      36.322 -35.755 -30.089  0.00  0.00    -0.071 C 
ATOM     13  C   UNL     1      34.969 -36.439 -29.936  0.00  0.00    +0.056 C 
ATOM     14  C   UNL     1      34.120 -35.752 -28.834  0.00  0.00    -0.023 C 
ATOM     15  C   UNL     1      33.380 -34.452 -29.235  0.00  0.00    +0.001 C 
ATOM     16  N   UNL     1      34.123 -33.651 -30.215  0.00  0.00    -0.294 N 
ATOM     17  C   UNL     1      33.783 -33.997 -31.615  0.00  0.00    +0.025 C 
ATOM     18  H   UNL     1      35.103 -33.885 -30.052  0.00  0.00    +0.000 HD
ENDROOT
BRANCH   1  20
ATOM     19  C   UNL     1      33.496 -40.233 -33.650  0.00  0.00    +0.079 C 
ATOM     20  O   UNL     1      32.733 -39.513 -32.693  0.00  0.00    -0.491 OA
ENDBRANCH   1  20
BRANCH  10  21
ATOM     21  O   UNL     1      37.683 -37.850 -28.034  0.00  0.00    -0.388 OA
ATOM     22  H   UNL     1      38.528 -37.495 -27.714  0.00  0.00    +0.000 HD
ENDBRANCH  10  21
BRANCH  16  23
ATOM     23  C   UNL     1      33.947 -32.204 -30.017  0.00  0.00    +0.018 C 
BRANCH  23  24
ATOM     24  C   UNL     1      32.780 -31.672 -30.803  0.00  0.00    -0.071 C 
ATOM     25  C   UNL     1      31.552 -31.359 -30.343  0.00  0.00    -0.078 C 
ATOM     26  C   UNL     1      31.094 -31.533 -28.921  0.00  0.00    -0.044 C 
ATOM     27  C   UNL     1      30.501 -30.809 -31.271  0.00  0.00    -0.044 C 
ENDBRANCH  23  24
ENDBRANCH  16  23
TORSDOF 4
ENDMDL
MODEL 17
REMARK VINA RESULT:    -6.193     36.223     38.728
REMARK INTER + INTRA:          -7.883
REMARK INTER:                  -7.377
REMARK INTRA:                  -0.506
REMARK UNBOUND:                -0.422
REMARK  Name = cpd309.pdb
REMARK  7 active torsions:
REMARK  status: ('A' for Active; 'I' for Inactive)
REMARK    1  A    between atoms: C_1  and  O_2
REMARK    2  A    between atoms: O_2  and  C_3
REMARK    3  A    between atoms: C_12  and  O_13
REMARK    4  A    between atoms: N_19  and  C_20
REMARK    5  A    between atoms: C_20  and  C_21
REMARK    6  A    between atoms: C_22  and  C_23
REMARK    7  A    between atoms: C_22  and  C_24
REMARK                            x       y       z     vdW  Elec       q    Type
REMARK                         _______ _______ _______ _____ _____    ______ ____
ROOT
ATOM      1  C   UNL     1      62.421 -25.086  -7.377  0.00  0.00    +0.162 A 
ATOM      2  C   UNL     1      62.247 -24.917  -8.750  0.00  0.00    -0.016 A 
ATOM      3  C   UNL     1      62.568 -23.693  -9.364  0.00  0.00    -0.053 A 
ATOM      4  C   UNL     1      63.096 -22.614  -8.630  0.00  0.00    -0.026 A 
ATOM      5  C   UNL     1      63.374 -22.839  -7.284  0.00  0.00    +0.016 A 
ATOM      6  C   UNL     1      62.975 -24.024  -6.672  0.00  0.00    +0.167 A 
ATOM      7  O   UNL     1      63.097 -24.007  -5.304  0.00  0.00    -0.484 OA
ATOM      8  C   UNL     1      63.916 -22.842  -5.017  0.00  0.00    +0.116 C 
ATOM      9  C   UNL     1      65.284 -23.406  -4.602  0.00  0.00    +0.015 C 
ATOM     10  C   UNL     1      66.350 -22.331  -4.514  0.00  0.00    +0.077 C 
ATOM     11  C   UNL     1      66.378 -21.511  -5.756  0.00  0.00    -0.059 C 
ATOM     12  C   UNL     1      65.317 -21.362  -6.564  0.00  0.00    -0.071 C 
ATOM     13  C   UNL     1      63.919 -21.890  -6.263  0.00  0.00    +0.056 C 
ATOM     14  C   UNL     1      62.911 -20.725  -6.082  0.00  0.00    -0.023 C 
ATOM     15  C   UNL     1      62.353 -20.082  -7.375  0.00  0.00    +0.001 C 
ATOM     16  N   UNL     1      63.328 -20.064  -8.471  0.00  0.00    -0.294 N 
ATOM     17  C   UNL     1      63.255 -21.275  -9.322  0.00  0.00    +0.025 C 
ATOM     18  H   UNL     1      64.237 -20.046  -8.010  0.00  0.00    +0.000 HD
ENDROOT
BRANCH   1  20
ATOM     19  C   UNL     1      63.073 -27.222  -6.566  0.00  0.00    +0.079 C 
ATOM     20  O   UNL     1      62.093 -26.197  -6.657  0.00  0.00    -0.491 OA
ENDBRANCH   1  20
BRANCH  10  21
ATOM     21  O   UNL     1      66.099 -21.454  -3.427  0.00  0.00    -0.388 OA
ATOM     22  H   UNL     1      65.635 -21.937  -2.724  0.00  0.00    +0.000 HD
ENDBRANCH  10  21
BRANCH  16  23
ATOM     23  C   UNL     1      63.208 -18.868  -9.319  0.00  0.00    +0.018 C 
BRANCH  23  24
ATOM     24  C   UNL     1      62.066 -18.986 -10.291  0.00  0.00    -0.071 C 
ATOM     25  C   UNL     1      60.876 -18.351 -10.243  0.00  0.00    -0.078 C 
ATOM     26  C   UNL     1      60.442 -17.414  -9.151  0.00  0.00    -0.044 C 
ATOM     27  C   UNL     1      59.847 -18.567 -11.322  0.00  0.00    -0.044 C 
ENDBRANCH  23  24
ENDBRANCH  16  23
TORSDOF 4
ENDMDL
MODEL 18
REMARK VINA RESULT:    -6.083     20.845     23.546
REMARK INTER + INTRA:          -7.750
REMARK INTER:                  -7.115
REMARK INTRA:                  -0.635
REMARK UNBOUND:                -0.422
REMARK  Name = cpd309.pdb
REMARK  7 active torsions:
REMARK  status: ('A' for Active; 'I' for Inactive)
REMARK    1  A    between atoms: C_1  and  O_2
REMARK    2  A    between atoms: O_2  and  C_3
REMARK    3  A    between atoms: C_12  and  O_13
REMARK    4  A    between atoms: N_19  and  C_20
REMARK    5  A    between atoms: C_20  and  C_21
REMARK    6  A    between atoms: C_22  and  C_23
REMARK    7  A    between atoms: C_22  and  C_24
REMARK                            x       y       z     vdW  Elec       q    Type
REMARK                         _______ _______ _______ _____ _____    ______ ____
ROOT
ATOM      1  C   UNL     1      46.662 -20.828 -40.543  0.00  0.00    +0.162 A 
ATOM      2  C   UNL     1      47.193 -20.108 -41.612  0.00  0.00    -0.016 A 
ATOM      3  C   UNL     1      47.318 -18.709 -41.536  0.00  0.00    -0.053 A 
ATOM      4  C   UNL     1      46.942 -17.995 -40.382  0.00  0.00    -0.026 A 
ATOM      5  C   UNL     1      46.526 -18.742 -39.282  0.00  0.00    +0.016 A 
ATOM      6  C   UNL     1      46.327 -20.114 -39.399  0.00  0.00    +0.167 A 
ATOM      7  O   UNL     1      45.691 -20.674 -38.317  0.00  0.00    -0.484 OA
ATOM      8  C   UNL     1      45.743 -19.654 -37.285  0.00  0.00    +0.116 C 
ATOM      9  C   UNL     1      46.778 -20.163 -36.269  0.00  0.00    +0.015 C 
ATOM     10  C   UNL     1      47.158 -19.106 -35.251  0.00  0.00    +0.077 C 
ATOM     11  C   UNL     1      47.539 -17.834 -35.924  0.00  0.00    -0.059 C 
ATOM     12  C   UNL     1      47.097 -17.487 -37.144  0.00  0.00    -0.071 C 
ATOM     13  C   UNL     1      46.058 -18.265 -37.942  0.00  0.00    +0.056 C 
ATOM     14  C   UNL     1      44.766 -17.429 -38.137  0.00  0.00    -0.023 C 
ATOM     15  C   UNL     1      44.787 -16.368 -39.264  0.00  0.00    +0.001 C 
ATOM     16  N   UNL     1      46.109 -15.756 -39.447  0.00  0.00    -0.294 N 
ATOM     17  C   UNL     1      46.944 -16.480 -40.434  0.00  0.00    +0.025 C 
ATOM     18  H   UNL     1      46.556 -15.824 -38.532  0.00  0.00    +0.000 HD
ENDROOT
BRANCH   1  20
ATOM     19  C   UNL     1      47.539 -23.023 -40.787  0.00  0.00    +0.079 C 
ATOM     20  O   UNL     1      46.433 -22.174 -40.516  0.00  0.00    -0.491 OA
ENDBRANCH   1  20
BRANCH  10  21
ATOM     21  O   UNL     1      46.071 -18.824 -34.383  0.00  0.00    -0.388 OA
ATOM     22  H   UNL     1      45.263 -19.229 -34.735  0.00  0.00    +0.000 HD
ENDBRANCH  10  21
BRANCH  16  23
ATOM     23  C   UNL     1      46.030 -14.337 -39.826  0.00  0.00    +0.018 C 
BRANCH  23  24
ATOM     24  C   UNL     1      46.210 -13.432 -38.638  0.00  0.00    -0.071 C 
ATOM     25  C   UNL     1      47.319 -13.270 -37.888  0.00  0.00    -0.078 C 
ATOM     26  C   UNL     1      48.608 -14.021 -38.080  0.00  0.00    -0.044 C 
ATOM     27  C   UNL     1      47.335 -12.294 -36.741  0.00  0.00    -0.044 C 
ENDBRANCH  23  24
ENDBRANCH  16  23
TORSDOF 4
ENDMDL
MODEL 19
REMARK VINA RESULT:    -5.994      3.008      4.506
REMARK INTER + INTRA:          -7.643
REMARK INTER:                  -7.236
REMARK INTRA:                  -0.407
REMARK UNBOUND:                -0.422
REMARK  Name = cpd309.pdb
REMARK  7 active torsions:
REMARK  status: ('A' for Active; 'I' for Inactive)
REMARK    1  A    between atoms: C_1  and  O_2
REMARK    2  A    between atoms: O_2  and  C_3
REMARK    3  A    between atoms: C_12  and  O_13
REMARK    4  A    between atoms: N_19  and  C_20
REMARK    5  A    between atoms: C_20  and  C_21
REMARK    6  A    between atoms: C_22  and  C_23
REMARK    7  A    between atoms: C_22  and  C_24
REMARK                            x       y       z     vdW  Elec       q    Type
REMARK                         _______ _______ _______ _____ _____    ______ ____
ROOT
ATOM      1  C   UNL     1      33.989 -41.827 -28.404  0.00  0.00    +0.162 A 
ATOM      2  C   UNL     1      35.333 -42.088 -28.666  0.00  0.00    -0.016 A 
ATOM      3  C   UNL     1      36.236 -41.032 -28.884  0.00  0.00    -0.053 A 
ATOM      4  C   UNL     1      35.827 -39.686 -28.821  0.00  0.00    -0.026 A 
ATOM      5  C   UNL     1      34.510 -39.441 -28.441  0.00  0.00    +0.016 A 
ATOM      6  C   UNL     1      33.608 -40.493 -28.311  0.00  0.00    +0.167 A 
ATOM      7  O   UNL     1      32.302 -40.088 -28.172  0.00  0.00    -0.484 OA
ATOM      8  C   UNL     1      32.381 -38.666 -27.889  0.00  0.00    +0.116 C 
ATOM      9  C   UNL     1      32.025 -38.533 -26.399  0.00  0.00    +0.015 C 
ATOM     10  C   UNL     1      32.308 -37.145 -25.859  0.00  0.00    +0.077 C 
ATOM     11  C   UNL     1      33.693 -36.718 -26.196  0.00  0.00    -0.059 C 
ATOM     12  C   UNL     1      34.377 -37.198 -27.247  0.00  0.00    -0.071 C 
ATOM     13  C   UNL     1      33.796 -38.132 -28.302  0.00  0.00    +0.056 C 
ATOM     14  C   UNL     1      33.753 -37.442 -29.692  0.00  0.00    -0.023 C 
ATOM     15  C   UNL     1      35.076 -37.412 -30.495  0.00  0.00    +0.001 C 
ATOM     16  N   UNL     1      36.261 -37.294 -29.638  0.00  0.00    -0.294 N 
ATOM     17  C   UNL     1      36.810 -38.610 -29.235  0.00  0.00    +0.025 C 
ATOM     18  H   UNL     1      35.931 -36.810 -28.802  0.00  0.00    +0.000 HD
ENDROOT
BRANCH   1  20
ATOM     19  C   UNL     1      33.159 -43.989 -28.931  0.00  0.00    +0.079 C 
ATOM     20  O   UNL     1      33.007 -42.760 -28.236  0.00  0.00    -0.491 OA
ENDBRANCH   1  20
BRANCH  10  21
ATOM     21  O   UNL     1      31.417 -36.192 -26.417  0.00  0.00    -0.388 OA
ATOM     22  H   UNL     1      31.010 -36.560 -27.217  0.00  0.00    +0.000 HD
ENDBRANCH  10  21
BRANCH  16  23
ATOM     23  C   UNL     1      37.330 -36.491 -30.253  0.00  0.00    +0.018 C 
BRANCH  23  24
ATOM     24  C   UNL     1      38.675 -37.148 -30.106  0.00  0.00    -0.071 C 
ATOM     25  C   UNL     1      39.811 -36.853 -30.771  0.00  0.00    -0.078 C 
ATOM     26  C   UNL     1      39.935 -35.812 -31.848  0.00  0.00    -0.044 C 
ATOM     27  C   UNL     1      41.087 -37.599 -30.480  0.00  0.00    -0.044 C 
ENDBRANCH  23  24
ENDBRANCH  16  23
TORSDOF 4
ENDMDL
MODEL 20
REMARK VINA RESULT:    -5.842     21.130     22.914
REMARK INTER + INTRA:          -7.460
REMARK INTER:                  -7.074
REMARK INTRA:                  -0.386
REMARK UNBOUND:                -0.422
REMARK  Name = cpd309.pdb
REMARK  7 active torsions:
REMARK  status: ('A' for Active; 'I' for Inactive)
REMARK    1  A    between atoms: C_1  and  O_2
REMARK    2  A    between atoms: O_2  and  C_3
REMARK    3  A    between atoms: C_12  and  O_13
REMARK    4  A    between atoms: N_19  and  C_20
REMARK    5  A    between atoms: C_20  and  C_21
REMARK    6  A    between atoms: C_22  and  C_23
REMARK    7  A    between atoms: C_22  and  C_24
REMARK                            x       y       z     vdW  Elec       q    Type
REMARK                         _______ _______ _______ _____ _____    ______ ____
ROOT
ATOM      1  C   UNL     1      46.809 -21.018 -40.272  0.00  0.00    +0.162 A 
ATOM      2  C   UNL     1      46.500 -20.504 -41.530  0.00  0.00    -0.016 A 
ATOM      3  C   UNL     1      45.832 -19.272 -41.653  0.00  0.00    -0.053 A 
ATOM      4  C   UNL     1      45.478 -18.508 -40.525  0.00  0.00    -0.026 A 
ATOM      5  C   UNL     1      45.898 -18.979 -39.283  0.00  0.00    +0.016 A 
ATOM      6  C   UNL     1      46.483 -20.237 -39.170  0.00  0.00    +0.167 A 
ATOM      7  O   UNL     1      46.623 -20.666 -37.872  0.00  0.00    -0.484 OA
ATOM      8  C   UNL     1      46.391 -19.483 -37.061  0.00  0.00    +0.116 C 
ATOM      9  C   UNL     1      47.776 -19.089 -36.521  0.00  0.00    +0.015 C 
ATOM     10  C   UNL     1      47.772 -17.723 -35.863  0.00  0.00    +0.077 C 
ATOM     11  C   UNL     1      47.154 -16.706 -36.757  0.00  0.00    -0.059 C 
ATOM     12  C   UNL     1      46.260 -17.012 -37.711  0.00  0.00    -0.071 C 
ATOM     13  C   UNL     1      45.661 -18.396 -37.924  0.00  0.00    +0.056 C 
ATOM     14  C   UNL     1      44.135 -18.391 -37.647  0.00  0.00    -0.023 C 
ATOM     15  C   UNL     1      43.224 -17.860 -38.781  0.00  0.00    +0.001 C 
ATOM     16  N   UNL     1      43.847 -16.781 -39.556  0.00  0.00    -0.294 N 
ATOM     17  C   UNL     1      44.611 -17.281 -40.723  0.00  0.00    +0.025 C 
ATOM     18  H   UNL     1      44.499 -16.338 -38.908  0.00  0.00    +0.000 HD
ENDROOT
BRANCH   1  20
ATOM     19  C   UNL     1      47.842 -22.973 -41.140  0.00  0.00    +0.079 C 
ATOM     20  O   UNL     1      47.397 -22.224 -40.019  0.00  0.00    -0.491 OA
ENDBRANCH   1  20
BRANCH  10  21
ATOM     21  O   UNL     1      47.028 -17.744 -34.656  0.00  0.00    -0.388 OA
ATOM     22  H   UNL     1      47.340 -18.472 -34.096  0.00  0.00    +0.000 HD
ENDBRANCH  10  21
BRANCH  16  23
ATOM     23  C   UNL     1      42.877 -15.772 -40.008  0.00  0.00    +0.018 C 
BRANCH  23  24
ATOM     24  C   UNL     1      41.474 -16.313 -40.017  0.00  0.00    -0.071 C 
ATOM     25  C   UNL     1      40.327 -15.624 -40.188  0.00  0.00    -0.078 C 
ATOM     26  C   UNL     1      40.234 -14.134 -40.361  0.00  0.00    -0.044 C 
ATOM     27  C   UNL     1      38.998 -16.334 -40.196  0.00  0.00    -0.044 C 
ENDBRANCH  23  24
ENDBRANCH  16  23
TORSDOF 4
ENDMDL
