REMARK  Name = cpd309.pdb
REMARK  7 active torsions:
REMARK  status: ('A' for Active; 'I' for Inactive)
REMARK    1  A    between atoms: C_1  and  O_2
REMARK    2  A    between atoms: O_2  and  C_3
REMARK    3  A    between atoms: C_12  and  O_13
REMARK    4  A    between atoms: N_19  and  C_20
REMARK    5  A    between atoms: C_20  and  C_21
REMARK    6  A    between atoms: C_22  and  C_23
REMARK    7  A    between atoms: C_22  and  C_24
REMARK                            x       y       z     vdW  Elec       q    Type
REMARK                         _______ _______ _______ _____ _____    ______ ____
ROOT
ATOM      1  C   UNL     1      -0.660   4.005  -0.255  0.00  0.00    +0.162 A 
ATOM      2  C   UNL     1      -1.722   3.379   0.396  0.00  0.00    -0.016 A 
ATOM      3  C   UNL     1      -1.604   2.048   0.835  0.00  0.00    -0.053 A 
ATOM      4  C   UNL     1      -0.415   1.315   0.660  0.00  0.00    -0.026 A 
ATOM      5  C   UNL     1       0.673   1.993   0.116  0.00  0.00    +0.016 A 
ATOM      6  C   UNL     1       0.518   3.280  -0.390  0.00  0.00    +0.167 A 
ATOM      7  O   UNL     1       1.602   3.726  -1.107  0.00  0.00    -0.484 OA
ATOM      8  C   UNL     1       2.665   2.786  -0.799  0.00  0.00    +0.116 C 
ATOM      9  C   UNL     1       3.627   3.555   0.121  0.00  0.00    +0.015 C 
ATOM     10  C   UNL     1       4.666   2.651   0.756  0.00  0.00    +0.077 C 
ATOM     11  C   UNL     1       4.022   1.471   1.395  0.00  0.00    -0.059 C 
ATOM     12  C   UNL     1       2.831   0.985   1.011  0.00  0.00    -0.071 C 
ATOM     13  C   UNL     1       2.044   1.478  -0.197  0.00  0.00    +0.056 C 
ATOM     14  C   UNL     1       1.922   0.367  -1.273  0.00  0.00    -0.023 C 
ATOM     15  C   UNL     1       0.831  -0.707  -1.043  0.00  0.00    +0.001 C 
ATOM     16  N   UNL     1       0.622  -1.014   0.377  0.00  0.00    -0.294 N 
ATOM     17  C   UNL     1      -0.417  -0.162   1.001  0.00  0.00    +0.025 C 
ATOM     18  H   UNL     1       1.518  -0.811   0.821  0.00  0.00    +0.000 HD
ENDROOT
BRANCH   1  20
ATOM     19  C   UNL     1      -1.852   6.031  -0.598  0.00  0.00    +0.079 C 
ATOM     20  O   UNL     1      -0.670   5.265  -0.780  0.00  0.00    -0.491 OA
ENDBRANCH   1  20
BRANCH  10  21
ATOM     21  O   UNL     1       5.580   2.168  -0.216  0.00  0.00    -0.388 OA
ATOM     22  H   UNL     1       5.102   1.640  -0.875  0.00  0.00    +0.000 HD
ENDBRANCH  10  21
BRANCH  16  23
ATOM     23  C   UNL     1       0.293  -2.429   0.610  0.00  0.00    +0.018 C 
BRANCH  23  24
ATOM     24  C   UNL     1       1.487  -3.320   0.401  0.00  0.00    -0.071 C 
ATOM     25  C   UNL     1       1.500  -4.576  -0.091  0.00  0.00    -0.078 C 
ATOM     26  C   UNL     1       0.280  -5.358  -0.491  0.00  0.00    -0.044 C 
ATOM     27  C   UNL     1       2.798  -5.321  -0.260  0.00  0.00    -0.044 C 
ENDBRANCH  23  24
ENDBRANCH  16  23
TORSDOF 4
