MODEL 1
REMARK VINA RESULT:    -8.640      0.000      0.000
REMARK INTER + INTRA:         -12.390
REMARK INTER:                 -10.660
REMARK INTRA:                  -1.730
REMARK UNBOUND:                -1.730
REMARK  Name = cpd347.pdb
REMARK  4 active torsions:
REMARK  status: ('A' for Active; 'I' for Inactive)
REMARK    1  A    between atoms: C_7  and  C_8
REMARK    2  A    between atoms: C_8  and  N_9
REMARK    3  A    between atoms: C_13  and  C_14
REMARK    4  A    between atoms: C_14  and  N_15
REMARK                            x       y       z     vdW  Elec       q    Type
REMARK                         _______ _______ _______ _____ _____    ______ ____
ROOT
ATOM      1  N   UNL A   1      33.327 -37.460 -32.554  0.00  0.00    -0.349 N 
ATOM      2  C   UNL A   1      32.307 -36.788 -33.139  0.00  0.00    +0.005 A 
ATOM      3  C   UNL A   1      32.235 -35.404 -33.069  0.00  0.00    -0.045 A 
ATOM      4  C   UNL A   1      33.243 -34.702 -32.422  0.00  0.00    -0.054 A 
ATOM      5  C   UNL A   1      34.323 -35.390 -31.866  0.00  0.00    -0.012 A 
ATOM      6  C   UNL A   1      34.323 -36.788 -31.926  0.00  0.00    +0.010 A 
ENDROOT
BRANCH   1   7
ATOM      7  C   UNL A   1      33.400 -38.945 -32.662  0.00  0.00    +0.049 C 
BRANCH   7  14
ATOM      8 CL   UNL A   1      31.896 -38.996 -29.914  0.00  0.00    -0.083 Cl
ATOM      9  C   UNL A   1      33.474 -39.634 -30.201  0.00  0.00    +0.046 A 
ATOM     10  C   UNL A   1      34.147 -40.199 -29.115  0.00  0.00    -0.043 A 
ATOM     11  C   UNL A   1      35.435 -40.706 -29.278  0.00  0.00    -0.060 A 
ATOM     12  C   UNL A   1      36.051 -40.650 -30.525  0.00  0.00    -0.061 A 
ATOM     13  C   UNL A   1      35.382 -40.086 -31.613  0.00  0.00    -0.055 A 
ATOM     14  C   UNL A   1      34.082 -39.566 -31.468  0.00  0.00    -0.009 A 
ENDBRANCH   7  14
ENDBRANCH   1   7
BRANCH   5  15
ATOM     15  C   UNL A   1      35.452 -34.620 -31.213  0.00  0.00    +0.050 C 
BRANCH  15  16
ATOM     16  N   UNL A   1      36.371 -35.506 -30.504  0.00  0.00    -0.339 N 
ATOM     17  C   UNL A   1      37.645 -35.819 -30.913  0.00  0.00    +0.023 A 
ATOM     18  C   UNL A   1      38.185 -36.702 -30.000  0.00  0.00    -0.019 A 
ATOM     19  C   UNL A   1      37.204 -36.945 -29.001  0.00  0.00    +0.003 A 
ATOM     20  C   UNL A   1      37.181 -37.737 -27.835  0.00  0.00    -0.052 A 
ATOM     21  C   UNL A   1      36.041 -37.744 -27.027  0.00  0.00    -0.061 A 
ATOM     22  C   UNL A   1      34.931 -36.979 -27.366  0.00  0.00    -0.060 A 
ATOM     23  C   UNL A   1      34.926 -36.187 -28.519  0.00  0.00    -0.038 A 
ATOM     24  C   UNL A   1      36.076 -36.182 -29.329  0.00  0.00    +0.050 A 
ATOM     25  C   UNL A   1      39.570 -37.250 -30.119  0.00  0.00    -0.025 C 
ATOM     26  C   UNL A   1      40.413 -36.421 -31.104  0.00  0.00    -0.049 C 
ATOM     27  C   UNL A   1      39.633 -36.084 -32.386  0.00  0.00    -0.047 C 
ATOM     28  C   UNL A   1      38.370 -35.255 -32.093  0.00  0.00    -0.012 C 
ENDBRANCH  15  16
ENDBRANCH   5  15
TORSDOF 4
ENDMDL
MODEL 2
REMARK VINA RESULT:    -8.098      2.891      5.959
REMARK INTER + INTRA:         -11.722
REMARK INTER:                 -10.893
REMARK INTRA:                  -0.829
REMARK UNBOUND:                -1.730
REMARK  Name = cpd347.pdb
REMARK  4 active torsions:
REMARK  status: ('A' for Active; 'I' for Inactive)
REMARK    1  A    between atoms: C_7  and  C_8
REMARK    2  A    between atoms: C_8  and  N_9
REMARK    3  A    between atoms: C_13  and  C_14
REMARK    4  A    between atoms: C_14  and  N_15
REMARK                            x       y       z     vdW  Elec       q    Type
REMARK                         _______ _______ _______ _____ _____    ______ ____
ROOT
ATOM      1  N   UNL A   1      38.451 -38.607 -28.921  0.00  0.00    -0.349 N 
ATOM      2  C   UNL A   1      38.347 -39.863 -28.427  0.00  0.00    +0.005 A 
ATOM      3  C   UNL A   1      37.163 -40.578 -28.545  0.00  0.00    -0.045 A 
ATOM      4  C   UNL A   1      36.088 -40.008 -29.214  0.00  0.00    -0.054 A 
ATOM      5  C   UNL A   1      36.213 -38.734 -29.772  0.00  0.00    -0.012 A 
ATOM      6  C   UNL A   1      37.413 -38.040 -29.584  0.00  0.00    +0.010 A 
ENDROOT
BRANCH   1   7
ATOM      7  C   UNL A   1      39.739 -37.865 -28.807  0.00  0.00    +0.049 C 
BRANCH   7  14
ATOM      8 CL   UNL A   1      42.413 -39.128 -29.843  0.00  0.00    -0.083 Cl
ATOM      9  C   UNL A   1      41.460 -37.967 -30.694  0.00  0.00    +0.046 A 
ATOM     10  C   UNL A   1      41.931 -37.535 -31.937  0.00  0.00    -0.043 A 
ATOM     11  C   UNL A   1      41.220 -36.579 -32.660  0.00  0.00    -0.060 A 
ATOM     12  C   UNL A   1      40.040 -36.054 -32.143  0.00  0.00    -0.061 A 
ATOM     13  C   UNL A   1      39.566 -36.481 -30.901  0.00  0.00    -0.055 A 
ATOM     14  C   UNL A   1      40.271 -37.445 -30.155  0.00  0.00    -0.009 A 
ENDBRANCH   7  14
ENDBRANCH   1   7
BRANCH   5  15
ATOM     15  C   UNL A   1      35.060 -38.137 -30.552  0.00  0.00    +0.050 C 
BRANCH  15  16
ATOM     16  N   UNL A   1      34.534 -36.937 -29.907  0.00  0.00    -0.339 N 
ATOM     17  C   UNL A   1      34.901 -35.647 -30.211  0.00  0.00    +0.023 A 
ATOM     18  C   UNL A   1      34.212 -34.796 -29.372  0.00  0.00    -0.019 A 
ATOM     19  C   UNL A   1      33.401 -35.591 -28.519  0.00  0.00    +0.003 A 
ATOM     20  C   UNL A   1      32.492 -35.289 -27.485  0.00  0.00    -0.052 A 
ATOM     21  C   UNL A   1      31.815 -36.325 -26.835  0.00  0.00    -0.061 A 
ATOM     22  C   UNL A   1      32.034 -37.648 -27.201  0.00  0.00    -0.060 A 
ATOM     23  C   UNL A   1      32.932 -37.976 -28.221  0.00  0.00    -0.038 A 
ATOM     24  C   UNL A   1      33.610 -36.930 -28.873  0.00  0.00    +0.050 A 
ATOM     25  C   UNL A   1      34.354 -33.309 -29.428  0.00  0.00    -0.025 C 
ATOM     26  C   UNL A   1      35.009 -32.861 -30.747  0.00  0.00    -0.049 C 
ATOM     27  C   UNL A   1      36.217 -33.739 -31.115  0.00  0.00    -0.047 C 
ATOM     28  C   UNL A   1      35.824 -35.215 -31.305  0.00  0.00    -0.012 C 
ENDBRANCH  15  16
ENDBRANCH   5  15
TORSDOF 4
ENDMDL
MODEL 3
REMARK VINA RESULT:    -7.812      2.849      6.617
REMARK INTER + INTRA:         -11.369
REMARK INTER:                 -10.585
REMARK INTRA:                  -0.783
REMARK UNBOUND:                -1.730
REMARK  Name = cpd347.pdb
REMARK  4 active torsions:
REMARK  status: ('A' for Active; 'I' for Inactive)
REMARK    1  A    between atoms: C_7  and  C_8
REMARK    2  A    between atoms: C_8  and  N_9
REMARK    3  A    between atoms: C_13  and  C_14
REMARK    4  A    between atoms: C_14  and  N_15
REMARK                            x       y       z     vdW  Elec       q    Type
REMARK                         _______ _______ _______ _____ _____    ______ ____
ROOT
ATOM      1  N   UNL A   1      38.328 -38.648 -28.902  0.00  0.00    -0.349 N 
ATOM      2  C   UNL A   1      38.248 -39.925 -28.456  0.00  0.00    +0.005 A 
ATOM      3  C   UNL A   1      37.074 -40.652 -28.589  0.00  0.00    -0.045 A 
ATOM      4  C   UNL A   1      35.983 -40.072 -29.222  0.00  0.00    -0.054 A 
ATOM      5  C   UNL A   1      36.082 -38.776 -29.731  0.00  0.00    -0.012 A 
ATOM      6  C   UNL A   1      37.274 -38.072 -29.530  0.00  0.00    +0.010 A 
ENDROOT
BRANCH   1   7
ATOM      7  C   UNL A   1      39.606 -37.892 -28.773  0.00  0.00    +0.049 C 
BRANCH   7  14
ATOM      8 CL   UNL A   1      42.266 -39.007 -29.999  0.00  0.00    -0.083 Cl
ATOM      9  C   UNL A   1      41.260 -37.804 -30.721  0.00  0.00    +0.046 A 
ATOM     10  C   UNL A   1      41.676 -37.263 -31.940  0.00  0.00    -0.043 A 
ATOM     11  C   UNL A   1      40.921 -36.269 -32.559  0.00  0.00    -0.060 A 
ATOM     12  C   UNL A   1      39.750 -35.813 -31.960  0.00  0.00    -0.061 A 
ATOM     13  C   UNL A   1      39.330 -36.350 -30.741  0.00  0.00    -0.055 A 
ATOM     14  C   UNL A   1      40.081 -37.353 -30.100  0.00  0.00    -0.009 A 
ENDBRANCH   7  14
ENDBRANCH   1   7
BRANCH   5  15
ATOM     15  C   UNL A   1      34.911 -38.166 -30.474  0.00  0.00    +0.050 C 
BRANCH  15  16
ATOM     16  N   UNL A   1      34.381 -36.996 -29.780  0.00  0.00    -0.339 N 
ATOM     17  C   UNL A   1      33.457 -37.028 -28.762  0.00  0.00    +0.023 A 
ATOM     18  C   UNL A   1      33.186 -35.728 -28.387  0.00  0.00    -0.019 A 
ATOM     19  C   UNL A   1      33.965 -34.869 -29.209  0.00  0.00    +0.003 A 
ATOM     20  C   UNL A   1      34.112 -33.469 -29.285  0.00  0.00    -0.052 A 
ATOM     21  C   UNL A   1      35.000 -32.917 -30.212  0.00  0.00    -0.061 A 
ATOM     22  C   UNL A   1      35.736 -33.738 -31.058  0.00  0.00    -0.060 A 
ATOM     23  C   UNL A   1      35.607 -35.130 -31.006  0.00  0.00    -0.038 A 
ATOM     24  C   UNL A   1      34.713 -35.681 -30.071  0.00  0.00    +0.050 A 
ATOM     25  C   UNL A   1      32.230 -35.381 -27.292  0.00  0.00    -0.025 C 
ATOM     26  C   UNL A   1      31.927 -36.604 -26.409  0.00  0.00    -0.049 C 
ATOM     27  C   UNL A   1      31.672 -37.868 -27.247  0.00  0.00    -0.047 C 
ATOM     28  C   UNL A   1      32.889 -38.247 -28.108  0.00  0.00    -0.012 C 
ENDBRANCH  15  16
ENDBRANCH   5  15
TORSDOF 4
ENDMDL
MODEL 4
REMARK VINA RESULT:    -7.597      1.435      4.039
REMARK INTER + INTRA:         -11.104
REMARK INTER:                  -9.453
REMARK INTRA:                  -1.650
REMARK UNBOUND:                -1.730
REMARK  Name = cpd347.pdb
REMARK  4 active torsions:
REMARK  status: ('A' for Active; 'I' for Inactive)
REMARK    1  A    between atoms: C_7  and  C_8
REMARK    2  A    between atoms: C_8  and  N_9
REMARK    3  A    between atoms: C_13  and  C_14
REMARK    4  A    between atoms: C_14  and  N_15
REMARK                            x       y       z     vdW  Elec       q    Type
REMARK                         _______ _______ _______ _____ _____    ______ ____
ROOT
ATOM      1  N   UNL A   1      34.147 -39.111 -32.136  0.00  0.00    -0.349 N 
ATOM      2  C   UNL A   1      34.359 -40.446 -32.051  0.00  0.00    +0.005 A 
ATOM      3  C   UNL A   1      35.292 -40.963 -31.164  0.00  0.00    -0.045 A 
ATOM      4  C   UNL A   1      35.987 -40.099 -30.327  0.00  0.00    -0.054 A 
ATOM      5  C   UNL A   1      35.729 -38.728 -30.375  0.00  0.00    -0.012 A 
ATOM      6  C   UNL A   1      34.811 -38.256 -31.320  0.00  0.00    +0.010 A 
ENDROOT
BRANCH   1   7
ATOM      7  C   UNL A   1      33.122 -38.577 -33.077  0.00  0.00    +0.049 C 
BRANCH   7  14
ATOM      8 CL   UNL A   1      30.910 -38.108 -30.908  0.00  0.00    -0.083 Cl
ATOM      9  C   UNL A   1      31.742 -36.866 -31.770  0.00  0.00    +0.046 A 
ATOM     10  C   UNL A   1      31.385 -35.543 -31.498  0.00  0.00    -0.043 A 
ATOM     11  C   UNL A   1      32.002 -34.498 -32.182  0.00  0.00    -0.060 A 
ATOM     12  C   UNL A   1      32.976 -34.772 -33.138  0.00  0.00    -0.061 A 
ATOM     13  C   UNL A   1      33.336 -36.093 -33.414  0.00  0.00    -0.055 A 
ATOM     14  C   UNL A   1      32.722 -37.163 -32.735  0.00  0.00    -0.009 A 
ENDBRANCH   7  14
ENDBRANCH   1   7
BRANCH   5  15
ATOM     15  C   UNL A   1      36.443 -37.793 -29.421  0.00  0.00    +0.050 C 
BRANCH  15  16
ATOM     16  N   UNL A   1      36.690 -36.488 -30.027  0.00  0.00    -0.339 N 
ATOM     17  C   UNL A   1      37.822 -36.139 -30.726  0.00  0.00    +0.023 A 
ATOM     18  C   UNL A   1      37.698 -34.821 -31.114  0.00  0.00    -0.019 A 
ATOM     19  C   UNL A   1      36.450 -34.343 -30.630  0.00  0.00    +0.003 A 
ATOM     20  C   UNL A   1      35.786 -33.103 -30.719  0.00  0.00    -0.052 A 
ATOM     21  C   UNL A   1      34.523 -32.954 -30.140  0.00  0.00    -0.061 A 
ATOM     22  C   UNL A   1      33.920 -34.016 -29.478  0.00  0.00    -0.060 A 
ATOM     23  C   UNL A   1      34.559 -35.256 -29.372  0.00  0.00    -0.038 A 
ATOM     24  C   UNL A   1      35.830 -35.402 -29.957  0.00  0.00    +0.050 A 
ATOM     25  C   UNL A   1      38.742 -34.106 -31.909  0.00  0.00    -0.025 C 
ATOM     26  C   UNL A   1      39.722 -35.098 -32.560  0.00  0.00    -0.049 C 
ATOM     27  C   UNL A   1      40.157 -36.201 -31.580  0.00  0.00    -0.047 C 
ATOM     28  C   UNL A   1      38.965 -37.035 -31.081  0.00  0.00    -0.012 C 
ENDBRANCH  15  16
ENDBRANCH   5  15
TORSDOF 4
ENDMDL
MODEL 5
REMARK VINA RESULT:    -7.417      2.928      5.819
REMARK INTER + INTRA:         -10.882
REMARK INTER:                  -9.871
REMARK INTRA:                  -1.011
REMARK UNBOUND:                -1.730
REMARK  Name = cpd347.pdb
REMARK  4 active torsions:
REMARK  status: ('A' for Active; 'I' for Inactive)
REMARK    1  A    between atoms: C_7  and  C_8
REMARK    2  A    between atoms: C_8  and  N_9
REMARK    3  A    between atoms: C_13  and  C_14
REMARK    4  A    between atoms: C_14  and  N_15
REMARK                            x       y       z     vdW  Elec       q    Type
REMARK                         _______ _______ _______ _____ _____    ______ ____
ROOT
ATOM      1  N   UNL A   1      32.650 -34.308 -29.837  0.00  0.00    -0.349 N 
ATOM      2  C   UNL A   1      33.189 -33.211 -29.254  0.00  0.00    +0.005 A 
ATOM      3  C   UNL A   1      34.531 -32.900 -29.426  0.00  0.00    -0.045 A 
ATOM      4  C   UNL A   1      35.316 -33.705 -30.239  0.00  0.00    -0.054 A 
ATOM      5  C   UNL A   1      34.749 -34.804 -30.886  0.00  0.00    -0.012 A 
ATOM      6  C   UNL A   1      33.403 -35.098 -30.642  0.00  0.00    +0.010 A 
ENDROOT
BRANCH   1   7
ATOM      7  C   UNL A   1      31.202 -34.611 -29.661  0.00  0.00    +0.049 C 
BRANCH   7  14
ATOM      8 CL   UNL A   1      29.690 -32.287 -28.199  0.00  0.00    -0.083 Cl
ATOM      9  C   UNL A   1      29.620 -32.615 -29.893  0.00  0.00    +0.046 A 
ATOM     10  C   UNL A   1      28.804 -31.793 -30.674  0.00  0.00    -0.043 A 
ATOM     11  C   UNL A   1      28.684 -32.025 -32.043  0.00  0.00    -0.060 A 
ATOM     12  C   UNL A   1      29.380 -33.077 -32.632  0.00  0.00    -0.061 A 
ATOM     13  C   UNL A   1      30.196 -33.902 -31.855  0.00  0.00    -0.055 A 
ATOM     14  C   UNL A   1      30.327 -33.685 -30.471  0.00  0.00    -0.009 A 
ENDBRANCH   7  14
ENDBRANCH   1   7
BRANCH   5  15
ATOM     15  C   UNL A   1      35.592 -35.647 -31.820  0.00  0.00    +0.050 C 
BRANCH  15  16
ATOM     16  N   UNL A   1      36.704 -36.283 -31.120  0.00  0.00    -0.339 N 
ATOM     17  C   UNL A   1      36.584 -37.267 -30.168  0.00  0.00    +0.023 A 
ATOM     18  C   UNL A   1      37.849 -37.590 -29.722  0.00  0.00    -0.019 A 
ATOM     19  C   UNL A   1      38.776 -36.770 -30.418  0.00  0.00    +0.003 A 
ATOM     20  C   UNL A   1      40.181 -36.654 -30.392  0.00  0.00    -0.052 A 
ATOM     21  C   UNL A   1      40.815 -35.742 -31.240  0.00  0.00    -0.061 A 
ATOM     22  C   UNL A   1      40.071 -34.950 -32.106  0.00  0.00    -0.060 A 
ATOM     23  C   UNL A   1      38.676 -35.042 -32.150  0.00  0.00    -0.038 A 
ATOM     24  C   UNL A   1      38.042 -35.962 -31.296  0.00  0.00    +0.050 A 
ATOM     25  C   UNL A   1      38.103 -38.638 -28.687  0.00  0.00    -0.025 C 
ATOM     26  C   UNL A   1      36.876 -39.549 -28.505  0.00  0.00    -0.049 C 
ATOM     27  C   UNL A   1      35.567 -38.744 -28.443  0.00  0.00    -0.047 C 
ATOM     28  C   UNL A   1      35.321 -37.940 -29.732  0.00  0.00    -0.012 C 
ENDBRANCH  15  16
ENDBRANCH   5  15
TORSDOF 4
ENDMDL
MODEL 6
REMARK VINA RESULT:    -7.265      2.352      4.683
REMARK INTER + INTRA:         -10.693
REMARK INTER:                  -9.201
REMARK INTRA:                  -1.492
REMARK UNBOUND:                -1.730
REMARK  Name = cpd347.pdb
REMARK  4 active torsions:
REMARK  status: ('A' for Active; 'I' for Inactive)
REMARK    1  A    between atoms: C_7  and  C_8
REMARK    2  A    between atoms: C_8  and  N_9
REMARK    3  A    between atoms: C_13  and  C_14
REMARK    4  A    between atoms: C_14  and  N_15
REMARK                            x       y       z     vdW  Elec       q    Type
REMARK                         _______ _______ _______ _____ _____    ______ ____
ROOT
ATOM      1  N   UNL A   1      32.977 -33.887 -29.662  0.00  0.00    -0.349 N 
ATOM      2  C   UNL A   1      33.568 -32.679 -29.512  0.00  0.00    +0.005 A 
ATOM      3  C   UNL A   1      34.824 -32.429 -30.048  0.00  0.00    -0.045 A 
ATOM      4  C   UNL A   1      35.459 -33.422 -30.781  0.00  0.00    -0.054 A 
ATOM      5  C   UNL A   1      34.827 -34.650 -30.984  0.00  0.00    -0.012 A 
ATOM      6  C   UNL A   1      33.581 -34.864 -30.382  0.00  0.00    +0.010 A 
ENDROOT
BRANCH   1   7
ATOM      7  C   UNL A   1      31.617 -34.127 -29.100  0.00  0.00    +0.049 C 
BRANCH   7  14
ATOM      8 CL   UNL A   1      30.566 -36.833 -30.280  0.00  0.00    -0.083 Cl
ATOM      9  C   UNL A   1      31.128 -36.599 -28.665  0.00  0.00    +0.046 A 
ATOM     10  C   UNL A   1      31.089 -37.699 -27.804  0.00  0.00    -0.043 A 
ATOM     11  C   UNL A   1      31.502 -37.566 -26.480  0.00  0.00    -0.060 A 
ATOM     12  C   UNL A   1      31.956 -36.335 -26.015  0.00  0.00    -0.061 A 
ATOM     13  C   UNL A   1      31.996 -35.232 -26.871  0.00  0.00    -0.055 A 
ATOM     14  C   UNL A   1      31.580 -35.347 -28.211  0.00  0.00    -0.009 A 
ENDBRANCH   7  14
ENDBRANCH   1   7
BRANCH   5  15
ATOM     15  C   UNL A   1      35.494 -35.711 -31.833  0.00  0.00    +0.050 C 
BRANCH  15  16
ATOM     16  N   UNL A   1      36.493 -36.460 -31.077  0.00  0.00    -0.339 N 
ATOM     17  C   UNL A   1      36.220 -37.469 -30.183  0.00  0.00    +0.023 A 
ATOM     18  C   UNL A   1      37.416 -37.908 -29.653  0.00  0.00    -0.019 A 
ATOM     19  C   UNL A   1      38.457 -37.137 -30.235  0.00  0.00    +0.003 A 
ATOM     20  C   UNL A   1      39.859 -37.133 -30.091  0.00  0.00    -0.052 A 
ATOM     21  C   UNL A   1      40.629 -36.242 -30.843  0.00  0.00    -0.061 A 
ATOM     22  C   UNL A   1      40.021 -35.359 -31.728  0.00  0.00    -0.060 A 
ATOM     23  C   UNL A   1      38.632 -35.339 -31.888  0.00  0.00    -0.038 A 
ATOM     24  C   UNL A   1      37.862 -36.239 -31.130  0.00  0.00    +0.050 A 
ATOM     25  C   UNL A   1      37.503 -39.013 -28.650  0.00  0.00    -0.025 C 
ATOM     26  C   UNL A   1      36.200 -39.831 -28.608  0.00  0.00    -0.049 C 
ATOM     27  C   UNL A   1      34.955 -38.928 -28.615  0.00  0.00    -0.047 C 
ATOM     28  C   UNL A   1      34.879 -38.056 -29.880  0.00  0.00    -0.012 C 
ENDBRANCH  15  16
ENDBRANCH   5  15
TORSDOF 4
ENDMDL
MODEL 7
REMARK VINA RESULT:    -7.171     17.473     20.847
REMARK INTER + INTRA:         -10.578
REMARK INTER:                  -9.044
REMARK INTRA:                  -1.534
REMARK UNBOUND:                -1.730
REMARK  Name = cpd347.pdb
REMARK  4 active torsions:
REMARK  status: ('A' for Active; 'I' for Inactive)
REMARK    1  A    between atoms: C_7  and  C_8
REMARK    2  A    between atoms: C_8  and  N_9
REMARK    3  A    between atoms: C_13  and  C_14
REMARK    4  A    between atoms: C_14  and  N_15
REMARK                            x       y       z     vdW  Elec       q    Type
REMARK                         _______ _______ _______ _____ _____    ______ ____
ROOT
ATOM      1  N   UNL A   1      46.246 -19.146 -38.447  0.00  0.00    -0.349 N 
ATOM      2  C   UNL A   1      47.051 -19.679 -37.498  0.00  0.00    +0.005 A 
ATOM      3  C   UNL A   1      46.586 -19.893 -36.209  0.00  0.00    -0.045 A 
ATOM      4  C   UNL A   1      45.265 -19.593 -35.903  0.00  0.00    -0.054 A 
ATOM      5  C   UNL A   1      44.419 -19.095 -36.895  0.00  0.00    -0.012 A 
ATOM      6  C   UNL A   1      44.952 -18.855 -38.167  0.00  0.00    +0.010 A 
ENDROOT
BRANCH   1   7
ATOM      7  C   UNL A   1      46.757 -18.946 -39.833  0.00  0.00    +0.049 C 
BRANCH   7  14
ATOM      8 CL   UNL A   1      47.758 -21.911 -39.994  0.00  0.00    -0.083 Cl
ATOM      9  C   UNL A   1      46.490 -21.232 -40.948  0.00  0.00    +0.046 A 
ATOM     10  C   UNL A   1      45.875 -22.064 -41.887  0.00  0.00    -0.043 A 
ATOM     11  C   UNL A   1      44.864 -21.565 -42.706  0.00  0.00    -0.060 A 
ATOM     12  C   UNL A   1      44.466 -20.237 -42.589  0.00  0.00    -0.061 A 
ATOM     13  C   UNL A   1      45.079 -19.401 -41.652  0.00  0.00    -0.055 A 
ATOM     14  C   UNL A   1      46.104 -19.886 -40.818  0.00  0.00    -0.009 A 
ENDBRANCH   7  14
ENDBRANCH   1   7
BRANCH   5  15
ATOM     15  C   UNL A   1      42.963 -18.823 -36.577  0.00  0.00    +0.050 C 
BRANCH  15  16
ATOM     16  N   UNL A   1      42.164 -20.044 -36.614  0.00  0.00    -0.339 N 
ATOM     17  C   UNL A   1      41.711 -20.729 -35.512  0.00  0.00    +0.023 A 
ATOM     18  C   UNL A   1      41.020 -21.841 -35.951  0.00  0.00    -0.019 A 
ATOM     19  C   UNL A   1      41.058 -21.841 -37.371  0.00  0.00    +0.003 A 
ATOM     20  C   UNL A   1      40.534 -22.702 -38.356  0.00  0.00    -0.052 A 
ATOM     21  C   UNL A   1      40.730 -22.407 -39.707  0.00  0.00    -0.061 A 
ATOM     22  C   UNL A   1      41.440 -21.273 -40.086  0.00  0.00    -0.060 A 
ATOM     23  C   UNL A   1      41.975 -20.404 -39.129  0.00  0.00    -0.038 A 
ATOM     24  C   UNL A   1      41.773 -20.705 -37.770  0.00  0.00    +0.050 A 
ATOM     25  C   UNL A   1      40.373 -22.815 -35.021  0.00  0.00    -0.025 C 
ATOM     26  C   UNL A   1      40.225 -22.222 -33.608  0.00  0.00    -0.049 C 
ATOM     27  C   UNL A   1      41.502 -21.495 -33.154  0.00  0.00    -0.047 C 
ATOM     28  C   UNL A   1      41.860 -20.321 -34.081  0.00  0.00    -0.012 C 
ENDBRANCH  15  16
ENDBRANCH   5  15
TORSDOF 4
ENDMDL
MODEL 8
REMARK VINA RESULT:    -7.113     19.055     22.310
REMARK INTER + INTRA:         -10.507
REMARK INTER:                  -8.607
REMARK INTRA:                  -1.900
REMARK UNBOUND:                -1.730
REMARK  Name = cpd347.pdb
REMARK  4 active torsions:
REMARK  status: ('A' for Active; 'I' for Inactive)
REMARK    1  A    between atoms: C_7  and  C_8
REMARK    2  A    between atoms: C_8  and  N_9
REMARK    3  A    between atoms: C_13  and  C_14
REMARK    4  A    between atoms: C_14  and  N_15
REMARK                            x       y       z     vdW  Elec       q    Type
REMARK                         _______ _______ _______ _____ _____    ______ ____
ROOT
ATOM      1  N   UNL A   1      43.172 -20.666 -37.215  0.00  0.00    -0.349 N 
ATOM      2  C   UNL A   1      42.155 -21.531 -36.985  0.00  0.00    +0.005 A 
ATOM      3  C   UNL A   1      41.463 -22.111 -38.039  0.00  0.00    -0.045 A 
ATOM      4  C   UNL A   1      41.849 -21.830 -39.343  0.00  0.00    -0.054 A 
ATOM      5  C   UNL A   1      42.933 -20.983 -39.580  0.00  0.00    -0.012 A 
ATOM      6  C   UNL A   1      43.566 -20.389 -38.482  0.00  0.00    +0.010 A 
ENDROOT
BRANCH   1   7
ATOM      7  C   UNL A   1      43.919 -20.073 -36.070  0.00  0.00    +0.049 C 
BRANCH   7  14
ATOM      8 CL   UNL A   1      43.586 -16.968 -36.326  0.00  0.00    -0.083 Cl
ATOM      9  C   UNL A   1      45.031 -17.849 -36.665  0.00  0.00    +0.046 A 
ATOM     10  C   UNL A   1      46.137 -17.123 -37.114  0.00  0.00    -0.043 A 
ATOM     11  C   UNL A   1      47.324 -17.781 -37.431  0.00  0.00    -0.060 A 
ATOM     12  C   UNL A   1      47.407 -19.164 -37.299  0.00  0.00    -0.061 A 
ATOM     13  C   UNL A   1      46.304 -19.894 -36.851  0.00  0.00    -0.055 A 
ATOM     14  C   UNL A   1      45.096 -19.247 -36.529  0.00  0.00    -0.009 A 
ENDBRANCH   7  14
ENDBRANCH   1   7
BRANCH   5  15
ATOM     15  C   UNL A   1      43.390 -20.723 -41.000  0.00  0.00    +0.050 C 
BRANCH  15  16
ATOM     16  N   UNL A   1      44.777 -20.270 -41.047  0.00  0.00    -0.339 N 
ATOM     17  C   UNL A   1      45.878 -21.091 -41.124  0.00  0.00    +0.023 A 
ATOM     18  C   UNL A   1      47.007 -20.297 -41.119  0.00  0.00    -0.019 A 
ATOM     19  C   UNL A   1      46.584 -18.944 -41.027  0.00  0.00    +0.003 A 
ATOM     20  C   UNL A   1      47.270 -17.713 -40.988  0.00  0.00    -0.052 A 
ATOM     21  C   UNL A   1      46.546 -16.520 -40.918  0.00  0.00    -0.061 A 
ATOM     22  C   UNL A   1      45.157 -16.540 -40.884  0.00  0.00    -0.060 A 
ATOM     23  C   UNL A   1      44.451 -17.747 -40.918  0.00  0.00    -0.038 A 
ATOM     24  C   UNL A   1      45.184 -18.945 -40.990  0.00  0.00    +0.050 A 
ATOM     25  C   UNL A   1      48.391 -20.853 -41.204  0.00  0.00    -0.025 C 
ATOM     26  C   UNL A   1      48.376 -22.311 -41.697  0.00  0.00    -0.049 C 
ATOM     27  C   UNL A   1      47.283 -23.140 -41.002  0.00  0.00    -0.047 C 
ATOM     28  C   UNL A   1      45.875 -22.579 -41.267  0.00  0.00    -0.012 C 
ENDBRANCH  15  16
ENDBRANCH   5  15
TORSDOF 4
ENDMDL
MODEL 9
REMARK VINA RESULT:    -7.104     16.458     19.263
REMARK INTER + INTRA:         -10.495
REMARK INTER:                  -9.060
REMARK INTRA:                  -1.436
REMARK UNBOUND:                -1.730
REMARK  Name = cpd347.pdb
REMARK  4 active torsions:
REMARK  status: ('A' for Active; 'I' for Inactive)
REMARK    1  A    between atoms: C_7  and  C_8
REMARK    2  A    between atoms: C_8  and  N_9
REMARK    3  A    between atoms: C_13  and  C_14
REMARK    4  A    between atoms: C_14  and  N_15
REMARK                            x       y       z     vdW  Elec       q    Type
REMARK                         _______ _______ _______ _____ _____    ______ ____
ROOT
ATOM      1  N   UNL A   1      39.964 -21.337 -37.470  0.00  0.00    -0.349 N 
ATOM      2  C   UNL A   1      39.815 -22.549 -38.057  0.00  0.00    +0.005 A 
ATOM      3  C   UNL A   1      40.538 -22.882 -39.193  0.00  0.00    -0.045 A 
ATOM      4  C   UNL A   1      41.452 -21.973 -39.709  0.00  0.00    -0.054 A 
ATOM      5  C   UNL A   1      41.646 -20.746 -39.074  0.00  0.00    -0.012 A 
ATOM      6  C   UNL A   1      40.859 -20.443 -37.957  0.00  0.00    +0.010 A 
ENDROOT
BRANCH   1   7
ATOM      7  C   UNL A   1      39.197 -21.007 -36.235  0.00  0.00    +0.049 C 
BRANCH   7  14
ATOM      8 CL   UNL A   1      38.454 -23.781 -34.983  0.00  0.00    -0.083 Cl
ATOM      9  C   UNL A   1      39.643 -22.693 -34.366  0.00  0.00    +0.046 A 
ATOM     10  C   UNL A   1      40.313 -23.067 -33.198  0.00  0.00    -0.043 A 
ATOM     11  C   UNL A   1      41.265 -22.218 -32.636  0.00  0.00    -0.060 A 
ATOM     12  C   UNL A   1      41.547 -20.996 -33.239  0.00  0.00    -0.061 A 
ATOM     13  C   UNL A   1      40.879 -20.617 -34.406  0.00  0.00    -0.055 A 
ATOM     14  C   UNL A   1      39.913 -21.461 -34.987  0.00  0.00    -0.009 A 
ENDBRANCH   7  14
ENDBRANCH   1   7
BRANCH   5  15
ATOM     15  C   UNL A   1      42.686 -19.779 -39.602  0.00  0.00    +0.050 C 
BRANCH  15  16
ATOM     16  N   UNL A   1      44.038 -20.180 -39.224  0.00  0.00    -0.339 N 
ATOM     17  C   UNL A   1      44.917 -20.863 -40.030  0.00  0.00    +0.023 A 
ATOM     18  C   UNL A   1      46.076 -21.082 -39.313  0.00  0.00    -0.019 A 
ATOM     19  C   UNL A   1      45.898 -20.520 -38.021  0.00  0.00    +0.003 A 
ATOM     20  C   UNL A   1      46.720 -20.430 -36.879  0.00  0.00    -0.052 A 
ATOM     21  C   UNL A   1      46.249 -19.775 -35.738  0.00  0.00    -0.061 A 
ATOM     22  C   UNL A   1      44.977 -19.216 -35.721  0.00  0.00    -0.060 A 
ATOM     23  C   UNL A   1      44.139 -19.294 -36.838  0.00  0.00    -0.038 A 
ATOM     24  C   UNL A   1      44.617 -19.953 -37.985  0.00  0.00    +0.050 A 
ATOM     25  C   UNL A   1      47.263 -21.790 -39.882  0.00  0.00    -0.025 C 
ATOM     26  C   UNL A   1      47.183 -21.865 -41.418  0.00  0.00    -0.049 C 
ATOM     27  C   UNL A   1      45.777 -22.260 -41.901  0.00  0.00    -0.047 C 
ATOM     28  C   UNL A   1      44.707 -21.246 -41.460  0.00  0.00    -0.012 C 
ENDBRANCH  15  16
ENDBRANCH   5  15
TORSDOF 4
ENDMDL
MODEL 10
REMARK VINA RESULT:    -7.097     16.927     20.188
REMARK INTER + INTRA:         -10.487
REMARK INTER:                  -9.314
REMARK INTRA:                  -1.173
REMARK UNBOUND:                -1.730
REMARK  Name = cpd347.pdb
REMARK  4 active torsions:
REMARK  status: ('A' for Active; 'I' for Inactive)
REMARK    1  A    between atoms: C_7  and  C_8
REMARK    2  A    between atoms: C_8  and  N_9
REMARK    3  A    between atoms: C_13  and  C_14
REMARK    4  A    between atoms: C_14  and  N_15
REMARK                            x       y       z     vdW  Elec       q    Type
REMARK                         _______ _______ _______ _____ _____    ______ ____
ROOT
ATOM      1  N   UNL A   1      44.416 -20.042 -38.628  0.00  0.00    -0.349 N 
ATOM      2  C   UNL A   1      44.914 -19.832 -37.386  0.00  0.00    +0.005 A 
ATOM      3  C   UNL A   1      44.218 -20.249 -36.261  0.00  0.00    -0.045 A 
ATOM      4  C   UNL A   1      43.016 -20.926 -36.417  0.00  0.00    -0.054 A 
ATOM      5  C   UNL A   1      42.529 -21.193 -37.697  0.00  0.00    -0.012 A 
ATOM      6  C   UNL A   1      43.248 -20.710 -38.797  0.00  0.00    +0.010 A 
ENDROOT
BRANCH   1   7
ATOM      7  C   UNL A   1      45.191 -19.609 -39.826  0.00  0.00    +0.049 C 
BRANCH   7  14
ATOM      8 CL   UNL A   1      44.191 -19.678 -42.794  0.00  0.00    -0.083 Cl
ATOM      9  C   UNL A   1      45.177 -20.880 -42.044  0.00  0.00    +0.046 A 
ATOM     10  C   UNL A   1      45.540 -21.987 -42.815  0.00  0.00    -0.043 A 
ATOM     11  C   UNL A   1      46.312 -23.004 -42.257  0.00  0.00    -0.060 A 
ATOM     12  C   UNL A   1      46.722 -22.916 -40.930  0.00  0.00    -0.061 A 
ATOM     13  C   UNL A   1      46.361 -21.812 -40.155  0.00  0.00    -0.055 A 
ATOM     14  C   UNL A   1      45.579 -20.776 -40.701  0.00  0.00    -0.009 A 
ENDBRANCH   7  14
ENDBRANCH   1   7
BRANCH   5  15
ATOM     15  C   UNL A   1      41.248 -21.983 -37.868  0.00  0.00    +0.050 C 
BRANCH  15  16
ATOM     16  N   UNL A   1      40.134 -21.369 -37.152  0.00  0.00    -0.339 N 
ATOM     17  C   UNL A   1      39.613 -21.817 -35.961  0.00  0.00    +0.023 A 
ATOM     18  C   UNL A   1      38.558 -20.997 -35.619  0.00  0.00    -0.019 A 
ATOM     19  C   UNL A   1      38.422 -20.017 -36.638  0.00  0.00    +0.003 A 
ATOM     20  C   UNL A   1      37.544 -18.931 -36.831  0.00  0.00    -0.052 A 
ATOM     21  C   UNL A   1      37.688 -18.117 -37.958  0.00  0.00    -0.061 A 
ATOM     22  C   UNL A   1      38.688 -18.373 -38.889  0.00  0.00    -0.060 A 
ATOM     23  C   UNL A   1      39.570 -19.445 -38.724  0.00  0.00    -0.038 A 
ATOM     24  C   UNL A   1      39.422 -20.261 -37.588  0.00  0.00    +0.050 A 
ATOM     25  C   UNL A   1      37.758 -21.180 -34.370  0.00  0.00    -0.025 C 
ATOM     26  C   UNL A   1      38.491 -22.090 -33.368  0.00  0.00    -0.049 C 
ATOM     27  C   UNL A   1      39.097 -23.326 -34.052  0.00  0.00    -0.047 C 
ATOM     28  C   UNL A   1      40.130 -22.945 -35.127  0.00  0.00    -0.012 C 
ENDBRANCH  15  16
ENDBRANCH   5  15
TORSDOF 4
ENDMDL
MODEL 11
REMARK VINA RESULT:    -7.096     16.901     19.935
REMARK INTER + INTRA:         -10.486
REMARK INTER:                  -9.184
REMARK INTRA:                  -1.302
REMARK UNBOUND:                -1.730
REMARK  Name = cpd347.pdb
REMARK  4 active torsions:
REMARK  status: ('A' for Active; 'I' for Inactive)
REMARK    1  A    between atoms: C_7  and  C_8
REMARK    2  A    between atoms: C_8  and  N_9
REMARK    3  A    between atoms: C_13  and  C_14
REMARK    4  A    between atoms: C_14  and  N_15
REMARK                            x       y       z     vdW  Elec       q    Type
REMARK                         _______ _______ _______ _____ _____    ______ ____
ROOT
ATOM      1  N   UNL A   1      42.834 -20.767 -40.480  0.00  0.00    -0.349 N 
ATOM      2  C   UNL A   1      42.187 -21.894 -40.863  0.00  0.00    +0.005 A 
ATOM      3  C   UNL A   1      41.067 -22.339 -40.175  0.00  0.00    -0.045 A 
ATOM      4  C   UNL A   1      40.584 -21.595 -39.107  0.00  0.00    -0.054 A 
ATOM      5  C   UNL A   1      41.217 -20.405 -38.746  0.00  0.00    -0.012 A 
ATOM      6  C   UNL A   1      42.370 -20.026 -39.444  0.00  0.00    +0.010 A 
ENDROOT
BRANCH   1   7
ATOM      7  C   UNL A   1      44.021 -20.292 -41.246  0.00  0.00    +0.049 C 
BRANCH   7  14
ATOM      8 CL   UNL A   1      45.692 -20.923 -38.672  0.00  0.00    -0.083 Cl
ATOM      9  C   UNL A   1      45.896 -21.685 -40.207  0.00  0.00    +0.046 A 
ATOM     10  C   UNL A   1      46.905 -22.645 -40.320  0.00  0.00    -0.043 A 
ATOM     11  C   UNL A   1      47.137 -23.275 -41.541  0.00  0.00    -0.060 A 
ATOM     12  C   UNL A   1      46.361 -22.948 -42.650  0.00  0.00    -0.061 A 
ATOM     13  C   UNL A   1      45.352 -21.988 -42.542  0.00  0.00    -0.055 A 
ATOM     14  C   UNL A   1      45.105 -21.339 -41.317  0.00  0.00    -0.009 A 
ENDBRANCH   7  14
ENDBRANCH   1   7
BRANCH   5  15
ATOM     15  C   UNL A   1      40.656 -19.563 -37.619  0.00  0.00    +0.050 C 
BRANCH  15  16
ATOM     16  N   UNL A   1      41.176 -19.981 -36.321  0.00  0.00    -0.339 N 
ATOM     17  C   UNL A   1      40.531 -20.815 -35.439  0.00  0.00    +0.023 A 
ATOM     18  C   UNL A   1      41.323 -20.950 -34.317  0.00  0.00    -0.019 A 
ATOM     19  C   UNL A   1      42.491 -20.165 -34.515  0.00  0.00    +0.003 A 
ATOM     20  C   UNL A   1      43.639 -19.919 -33.735  0.00  0.00    -0.052 A 
ATOM     21  C   UNL A   1      44.650 -19.094 -34.235  0.00  0.00    -0.061 A 
ATOM     22  C   UNL A   1      44.529 -18.513 -35.493  0.00  0.00    -0.060 A 
ATOM     23  C   UNL A   1      43.399 -18.737 -36.285  0.00  0.00    -0.038 A 
ATOM     24  C   UNL A   1      42.385 -19.570 -35.779  0.00  0.00    +0.050 A 
ATOM     25  C   UNL A   1      40.941 -21.800 -33.149  0.00  0.00    -0.025 C 
ATOM     26  C   UNL A   1      39.814 -22.780 -33.520  0.00  0.00    -0.049 C 
ATOM     27  C   UNL A   1      38.705 -22.097 -34.338  0.00  0.00    -0.047 C 
ATOM     28  C   UNL A   1      39.234 -21.525 -35.665  0.00  0.00    -0.012 C 
ENDBRANCH  15  16
ENDBRANCH   5  15
TORSDOF 4
ENDMDL
MODEL 12
REMARK VINA RESULT:    -7.090      1.557      4.852
REMARK INTER + INTRA:         -10.478
REMARK INTER:                  -8.873
REMARK INTRA:                  -1.605
REMARK UNBOUND:                -1.730
REMARK  Name = cpd347.pdb
REMARK  4 active torsions:
REMARK  status: ('A' for Active; 'I' for Inactive)
REMARK    1  A    between atoms: C_7  and  C_8
REMARK    2  A    between atoms: C_8  and  N_9
REMARK    3  A    between atoms: C_13  and  C_14
REMARK    4  A    between atoms: C_14  and  N_15
REMARK                            x       y       z     vdW  Elec       q    Type
REMARK                         _______ _______ _______ _____ _____    ______ ____
ROOT
ATOM      1  N   UNL A   1      33.407 -39.650 -30.351  0.00  0.00    -0.349 N 
ATOM      2  C   UNL A   1      34.013 -40.856 -30.459  0.00  0.00    +0.005 A 
ATOM      3  C   UNL A   1      35.304 -41.047 -29.987  0.00  0.00    -0.045 A 
ATOM      4  C   UNL A   1      35.963 -39.997 -29.362  0.00  0.00    -0.054 A 
ATOM      5  C   UNL A   1      35.318 -38.770 -29.201  0.00  0.00    -0.012 A 
ATOM      6  C   UNL A   1      34.034 -38.617 -29.735  0.00  0.00    +0.010 A 
ENDROOT
BRANCH   1   7
ATOM      7  C   UNL A   1      32.010 -39.470 -30.840  0.00  0.00    +0.049 C 
BRANCH   7  14
ATOM      8 CL   UNL A   1      30.626 -37.047 -29.415  0.00  0.00    -0.083 Cl
ATOM      9  C   UNL A   1      31.233 -37.042 -31.031  0.00  0.00    +0.046 A 
ATOM     10  C   UNL A   1      31.074 -35.870 -31.775  0.00  0.00    -0.043 A 
ATOM     11  C   UNL A   1      31.518 -35.813 -33.094  0.00  0.00    -0.060 A 
ATOM     12  C   UNL A   1      32.123 -36.926 -33.672  0.00  0.00    -0.061 A 
ATOM     13  C   UNL A   1      32.284 -38.101 -32.933  0.00  0.00    -0.055 A 
ATOM     14  C   UNL A   1      31.839 -38.177 -31.599  0.00  0.00    -0.009 A 
ENDBRANCH   7  14
ENDBRANCH   1   7
BRANCH   5  15
ATOM     15  C   UNL A   1      36.015 -37.643 -28.466  0.00  0.00    +0.050 C 
BRANCH  15  16
ATOM     16  N   UNL A   1      36.297 -36.515 -29.349  0.00  0.00    -0.339 N 
ATOM     17  C   UNL A   1      35.464 -35.441 -29.554  0.00  0.00    +0.023 A 
ATOM     18  C   UNL A   1      36.062 -34.603 -30.473  0.00  0.00    -0.019 A 
ATOM     19  C   UNL A   1      37.302 -35.187 -30.849  0.00  0.00    +0.003 A 
ATOM     20  C   UNL A   1      38.331 -34.797 -31.729  0.00  0.00    -0.052 A 
ATOM     21  C   UNL A   1      39.466 -35.602 -31.864  0.00  0.00    -0.061 A 
ATOM     22  C   UNL A   1      39.583 -36.783 -31.141  0.00  0.00    -0.060 A 
ATOM     23  C   UNL A   1      38.575 -37.195 -30.265  0.00  0.00    -0.038 A 
ATOM     24  C   UNL A   1      37.435 -36.381 -30.130  0.00  0.00    +0.050 A 
ATOM     25  C   UNL A   1      35.443 -33.321 -30.928  0.00  0.00    -0.025 C 
ATOM     26  C   UNL A   1      34.316 -32.879 -29.978  0.00  0.00    -0.049 C 
ATOM     27  C   UNL A   1      33.400 -34.051 -29.588  0.00  0.00    -0.047 C 
ATOM     28  C   UNL A   1      34.168 -35.168 -28.860  0.00  0.00    -0.012 C 
ENDBRANCH  15  16
ENDBRANCH   5  15
TORSDOF 4
ENDMDL
MODEL 13
REMARK VINA RESULT:    -7.010     16.986     19.860
REMARK INTER + INTRA:         -10.380
REMARK INTER:                  -9.036
REMARK INTRA:                  -1.344
REMARK UNBOUND:                -1.730
REMARK  Name = cpd347.pdb
REMARK  4 active torsions:
REMARK  status: ('A' for Active; 'I' for Inactive)
REMARK    1  A    between atoms: C_7  and  C_8
REMARK    2  A    between atoms: C_8  and  N_9
REMARK    3  A    between atoms: C_13  and  C_14
REMARK    4  A    between atoms: C_14  and  N_15
REMARK                            x       y       z     vdW  Elec       q    Type
REMARK                         _______ _______ _______ _____ _____    ______ ____
ROOT
ATOM      1  N   UNL A   1      43.056 -20.606 -40.597  0.00  0.00    -0.349 N 
ATOM      2  C   UNL A   1      42.344 -21.662 -41.058  0.00  0.00    +0.005 A 
ATOM      3  C   UNL A   1      41.167 -22.052 -40.436  0.00  0.00    -0.045 A 
ATOM      4  C   UNL A   1      40.696 -21.322 -39.352  0.00  0.00    -0.054 A 
ATOM      5  C   UNL A   1      41.399 -20.200 -38.911  0.00  0.00    -0.012 A 
ATOM      6  C   UNL A   1      42.604 -19.878 -39.546  0.00  0.00    +0.010 A 
ENDROOT
BRANCH   1   7
ATOM      7  C   UNL A   1      44.305 -20.187 -41.294  0.00  0.00    +0.049 C 
BRANCH   7  14
ATOM      8 CL   UNL A   1      45.922 -20.819 -38.685  0.00  0.00    -0.083 Cl
ATOM      9  C   UNL A   1      46.098 -21.640 -40.193  0.00  0.00    +0.046 A 
ATOM     10  C   UNL A   1      47.057 -22.654 -40.266  0.00  0.00    -0.043 A 
ATOM     11  C   UNL A   1      47.264 -23.336 -41.464  0.00  0.00    -0.060 A 
ATOM     12  C   UNL A   1      46.515 -23.005 -42.589  0.00  0.00    -0.061 A 
ATOM     13  C   UNL A   1      45.557 -21.991 -42.522  0.00  0.00    -0.055 A 
ATOM     14  C   UNL A   1      45.334 -21.291 -41.321  0.00  0.00    -0.009 A 
ENDBRANCH   7  14
ENDBRANCH   1   7
BRANCH   5  15
ATOM     15  C   UNL A   1      40.854 -19.370 -37.768  0.00  0.00    +0.050 C 
BRANCH  15  16
ATOM     16  N   UNL A   1      41.247 -19.912 -36.470  0.00  0.00    -0.339 N 
ATOM     17  C   UNL A   1      42.427 -19.635 -35.820  0.00  0.00    +0.023 A 
ATOM     18  C   UNL A   1      42.445 -20.354 -34.642  0.00  0.00    -0.019 A 
ATOM     19  C   UNL A   1      41.240 -21.102 -34.571  0.00  0.00    +0.003 A 
ATOM     20  C   UNL A   1      40.706 -21.995 -33.621  0.00  0.00    -0.052 A 
ATOM     21  C   UNL A   1      39.449 -22.566 -33.839  0.00  0.00    -0.061 A 
ATOM     22  C   UNL A   1      38.725 -22.261 -34.986  0.00  0.00    -0.060 A 
ATOM     23  C   UNL A   1      39.233 -21.381 -35.947  0.00  0.00    -0.038 A 
ATOM     24  C   UNL A   1      40.498 -20.808 -35.722  0.00  0.00    +0.050 A 
ATOM     25  C   UNL A   1      43.577 -20.288 -33.667  0.00  0.00    -0.025 C 
ATOM     26  C   UNL A   1      44.470 -19.063 -33.934  0.00  0.00    -0.049 C 
ATOM     27  C   UNL A   1      44.766 -18.884 -35.432  0.00  0.00    -0.047 C 
ATOM     28  C   UNL A   1      43.483 -18.671 -36.254  0.00  0.00    -0.012 C 
ENDBRANCH  15  16
ENDBRANCH   5  15
TORSDOF 4
ENDMDL
MODEL 14
REMARK VINA RESULT:    -6.972     17.400     20.644
REMARK INTER + INTRA:         -10.332
REMARK INTER:                  -8.715
REMARK INTRA:                  -1.617
REMARK UNBOUND:                -1.730
REMARK  Name = cpd347.pdb
REMARK  4 active torsions:
REMARK  status: ('A' for Active; 'I' for Inactive)
REMARK    1  A    between atoms: C_7  and  C_8
REMARK    2  A    between atoms: C_8  and  N_9
REMARK    3  A    between atoms: C_13  and  C_14
REMARK    4  A    between atoms: C_14  and  N_15
REMARK                            x       y       z     vdW  Elec       q    Type
REMARK                         _______ _______ _______ _____ _____    ______ ____
ROOT
ATOM      1  N   UNL A   1      46.227 -19.045 -37.586  0.00  0.00    -0.349 N 
ATOM      2  C   UNL A   1      46.969 -19.657 -36.633  0.00  0.00    +0.005 A 
ATOM      3  C   UNL A   1      46.416 -19.990 -35.405  0.00  0.00    -0.045 A 
ATOM      4  C   UNL A   1      45.073 -19.727 -35.170  0.00  0.00    -0.054 A 
ATOM      5  C   UNL A   1      44.293 -19.147 -36.171  0.00  0.00    -0.012 A 
ATOM      6  C   UNL A   1      44.912 -18.789 -37.374  0.00  0.00    +0.010 A 
ENDROOT
BRANCH   1   7
ATOM      7  C   UNL A   1      46.833 -18.717 -38.907  0.00  0.00    +0.049 C 
BRANCH   7  14
ATOM      8 CL   UNL A   1      46.609 -21.787 -39.493  0.00  0.00    -0.083 Cl
ATOM      9  C   UNL A   1      45.812 -20.540 -40.381  0.00  0.00    +0.046 A 
ATOM     10  C   UNL A   1      45.022 -20.928 -41.466  0.00  0.00    -0.043 A 
ATOM     11  C   UNL A   1      44.375 -19.965 -42.239  0.00  0.00    -0.060 A 
ATOM     12  C   UNL A   1      44.518 -18.616 -41.929  0.00  0.00    -0.061 A 
ATOM     13  C   UNL A   1      45.308 -18.223 -40.846  0.00  0.00    -0.055 A 
ATOM     14  C   UNL A   1      45.970 -19.181 -40.056  0.00  0.00    -0.009 A 
ENDBRANCH   7  14
ENDBRANCH   1   7
BRANCH   5  15
ATOM     15  C   UNL A   1      42.815 -18.914 -35.936  0.00  0.00    +0.050 C 
BRANCH  15  16
ATOM     16  N   UNL A   1      42.038 -20.135 -36.129  0.00  0.00    -0.339 N 
ATOM     17  C   UNL A   1      41.638 -20.637 -37.344  0.00  0.00    +0.023 A 
ATOM     18  C   UNL A   1      40.903 -21.783 -37.115  0.00  0.00    -0.019 A 
ATOM     19  C   UNL A   1      40.844 -21.985 -35.710  0.00  0.00    +0.003 A 
ATOM     20  C   UNL A   1      40.251 -22.971 -34.895  0.00  0.00    -0.052 A 
ATOM     21  C   UNL A   1      40.397 -22.900 -33.508  0.00  0.00    -0.061 A 
ATOM     22  C   UNL A   1      41.119 -21.864 -32.927  0.00  0.00    -0.060 A 
ATOM     23  C   UNL A   1      41.714 -20.870 -33.711  0.00  0.00    -0.038 A 
ATOM     24  C   UNL A   1      41.566 -20.947 -35.108  0.00  0.00    +0.050 A 
ATOM     25  C   UNL A   1      40.316 -22.606 -38.216  0.00  0.00    -0.025 C 
ATOM     26  C   UNL A   1      40.959 -22.262 -39.572  0.00  0.00    -0.049 C 
ATOM     27  C   UNL A   1      41.100 -20.744 -39.771  0.00  0.00    -0.047 C 
ATOM     28  C   UNL A   1      41.989 -20.098 -38.694  0.00  0.00    -0.012 C 
ENDBRANCH  15  16
ENDBRANCH   5  15
TORSDOF 4
ENDMDL
MODEL 15
REMARK VINA RESULT:    -6.925     16.712     19.711
REMARK INTER + INTRA:         -10.274
REMARK INTER:                  -9.304
REMARK INTRA:                  -0.971
REMARK UNBOUND:                -1.730
REMARK  Name = cpd347.pdb
REMARK  4 active torsions:
REMARK  status: ('A' for Active; 'I' for Inactive)
REMARK    1  A    between atoms: C_7  and  C_8
REMARK    2  A    between atoms: C_8  and  N_9
REMARK    3  A    between atoms: C_13  and  C_14
REMARK    4  A    between atoms: C_14  and  N_15
REMARK                            x       y       z     vdW  Elec       q    Type
REMARK                         _______ _______ _______ _____ _____    ______ ____
ROOT
ATOM      1  N   UNL A   1      43.267 -20.923 -39.833  0.00  0.00    -0.349 N 
ATOM      2  C   UNL A   1      42.205 -21.461 -40.477  0.00  0.00    +0.005 A 
ATOM      3  C   UNL A   1      41.127 -21.973 -39.768  0.00  0.00    -0.045 A 
ATOM      4  C   UNL A   1      41.126 -21.894 -38.382  0.00  0.00    -0.054 A 
ATOM      5  C   UNL A   1      42.196 -21.289 -37.719  0.00  0.00    -0.012 A 
ATOM      6  C   UNL A   1      43.277 -20.830 -38.480  0.00  0.00    +0.010 A 
ENDROOT
BRANCH   1   7
ATOM      7  C   UNL A   1      44.404 -20.355 -40.613  0.00  0.00    +0.049 C 
BRANCH   7  14
ATOM      8 CL   UNL A   1      46.666 -21.153 -38.598  0.00  0.00    -0.083 Cl
ATOM      9  C   UNL A   1      46.441 -21.834 -40.167  0.00  0.00    +0.046 A 
ATOM     10  C   UNL A   1      47.355 -22.804 -40.585  0.00  0.00    -0.043 A 
ATOM     11  C   UNL A   1      47.242 -23.372 -41.853  0.00  0.00    -0.060 A 
ATOM     12  C   UNL A   1      46.216 -22.972 -42.704  0.00  0.00    -0.061 A 
ATOM     13  C   UNL A   1      45.300 -22.002 -42.291  0.00  0.00    -0.055 A 
ATOM     14  C   UNL A   1      45.399 -21.415 -41.015  0.00  0.00    -0.009 A 
ENDBRANCH   7  14
ENDBRANCH   1   7
BRANCH   5  15
ATOM     15  C   UNL A   1      42.167 -21.150 -36.211  0.00  0.00    +0.050 C 
BRANCH  15  16
ATOM     16  N   UNL A   1      40.851 -20.738 -35.731  0.00  0.00    -0.339 N 
ATOM     17  C   UNL A   1      40.322 -19.475 -35.852  0.00  0.00    +0.023 A 
ATOM     18  C   UNL A   1      39.078 -19.472 -35.255  0.00  0.00    -0.019 A 
ATOM     19  C   UNL A   1      38.839 -20.776 -34.743  0.00  0.00    +0.003 A 
ATOM     20  C   UNL A   1      37.761 -21.365 -34.053  0.00  0.00    -0.052 A 
ATOM     21  C   UNL A   1      37.824 -22.716 -33.698  0.00  0.00    -0.061 A 
ATOM     22  C   UNL A   1      38.941 -23.478 -34.019  0.00  0.00    -0.060 A 
ATOM     23  C   UNL A   1      40.026 -22.917 -34.701  0.00  0.00    -0.038 A 
ATOM     24  C   UNL A   1      39.958 -21.558 -35.057  0.00  0.00    +0.050 A 
ATOM     25  C   UNL A   1      38.202 -18.261 -35.208  0.00  0.00    -0.025 C 
ATOM     26  C   UNL A   1      38.663 -17.201 -36.223  0.00  0.00    -0.049 C 
ATOM     27  C   UNL A   1      40.190 -17.016 -36.207  0.00  0.00    -0.047 C 
ATOM     28  C   UNL A   1      40.934 -18.314 -36.568  0.00  0.00    -0.012 C 
ENDBRANCH  15  16
ENDBRANCH   5  15
TORSDOF 4
ENDMDL
MODEL 16
REMARK VINA RESULT:    -6.922      1.358      3.569
REMARK INTER + INTRA:         -10.270
REMARK INTER:                  -8.406
REMARK INTRA:                  -1.865
REMARK UNBOUND:                -1.730
REMARK  Name = cpd347.pdb
REMARK  4 active torsions:
REMARK  status: ('A' for Active; 'I' for Inactive)
REMARK    1  A    between atoms: C_7  and  C_8
REMARK    2  A    between atoms: C_8  and  N_9
REMARK    3  A    between atoms: C_13  and  C_14
REMARK    4  A    between atoms: C_14  and  N_15
REMARK                            x       y       z     vdW  Elec       q    Type
REMARK                         _______ _______ _______ _____ _____    ______ ____
ROOT
ATOM      1  N   UNL A   1      32.597 -38.712 -32.024  0.00  0.00    -0.349 N 
ATOM      2  C   UNL A   1      31.850 -38.258 -33.058  0.00  0.00    +0.005 A 
ATOM      3  C   UNL A   1      31.719 -36.898 -33.298  0.00  0.00    -0.045 A 
ATOM      4  C   UNL A   1      32.397 -35.996 -32.488  0.00  0.00    -0.054 A 
ATOM      5  C   UNL A   1      33.211 -36.465 -31.456  0.00  0.00    -0.012 A 
ATOM      6  C   UNL A   1      33.272 -37.844 -31.230  0.00  0.00    +0.010 A 
ENDROOT
BRANCH   1   7
ATOM      7  C   UNL A   1      32.746 -40.178 -31.798  0.00  0.00    +0.049 C 
BRANCH   7  14
ATOM      8 CL   UNL A   1      32.082 -39.948 -28.744  0.00  0.00    -0.083 Cl
ATOM      9  C   UNL A   1      33.608 -40.414 -29.402  0.00  0.00    +0.046 A 
ATOM     10  C   UNL A   1      34.640 -40.689 -28.502  0.00  0.00    -0.043 A 
ATOM     11  C   UNL A   1      35.903 -41.044 -28.972  0.00  0.00    -0.060 A 
ATOM     12  C   UNL A   1      36.135 -41.125 -30.342  0.00  0.00    -0.061 A 
ATOM     13  C   UNL A   1      35.107 -40.851 -31.247  0.00  0.00    -0.055 A 
ATOM     14  C   UNL A   1      33.825 -40.488 -30.790  0.00  0.00    -0.009 A 
ENDBRANCH   7  14
ENDBRANCH   1   7
BRANCH   5  15
ATOM     15  C   UNL A   1      33.997 -35.484 -30.611  0.00  0.00    +0.050 C 
BRANCH  15  16
ATOM     16  N   UNL A   1      34.725 -36.155 -29.538  0.00  0.00    -0.339 N 
ATOM     17  C   UNL A   1      34.230 -36.406 -28.281  0.00  0.00    +0.023 A 
ATOM     18  C   UNL A   1      35.218 -37.028 -27.546  0.00  0.00    -0.019 A 
ATOM     19  C   UNL A   1      36.362 -37.155 -28.380  0.00  0.00    +0.003 A 
ATOM     20  C   UNL A   1      37.647 -37.702 -28.188  0.00  0.00    -0.052 A 
ATOM     21  C   UNL A   1      38.565 -37.695 -29.242  0.00  0.00    -0.061 A 
ATOM     22  C   UNL A   1      38.220 -37.151 -30.474  0.00  0.00    -0.060 A 
ATOM     23  C   UNL A   1      36.954 -36.598 -30.690  0.00  0.00    -0.038 A 
ATOM     24  C   UNL A   1      36.032 -36.609 -29.627  0.00  0.00    +0.050 A 
ATOM     25  C   UNL A   1      35.027 -37.462 -26.129  0.00  0.00    -0.025 C 
ATOM     26  C   UNL A   1      33.534 -37.503 -25.756  0.00  0.00    -0.049 C 
ATOM     27  C   UNL A   1      32.782 -36.261 -26.263  0.00  0.00    -0.047 C 
ATOM     28  C   UNL A   1      32.842 -36.133 -27.795  0.00  0.00    -0.012 C 
ENDBRANCH  15  16
ENDBRANCH   5  15
TORSDOF 4
ENDMDL
MODEL 17
REMARK VINA RESULT:    -6.791     19.101     21.897
REMARK INTER + INTRA:         -10.109
REMARK INTER:                  -8.644
REMARK INTRA:                  -1.465
REMARK UNBOUND:                -1.730
REMARK  Name = cpd347.pdb
REMARK  4 active torsions:
REMARK  status: ('A' for Active; 'I' for Inactive)
REMARK    1  A    between atoms: C_7  and  C_8
REMARK    2  A    between atoms: C_8  and  N_9
REMARK    3  A    between atoms: C_13  and  C_14
REMARK    4  A    between atoms: C_14  and  N_15
REMARK                            x       y       z     vdW  Elec       q    Type
REMARK                         _______ _______ _______ _____ _____    ______ ____
ROOT
ATOM      1  N   UNL A   1      46.889 -17.946 -39.351  0.00  0.00    -0.349 N 
ATOM      2  C   UNL A   1      47.151 -16.775 -38.722  0.00  0.00    +0.005 A 
ATOM      3  C   UNL A   1      46.944 -16.640 -37.357  0.00  0.00    -0.045 A 
ATOM      4  C   UNL A   1      46.501 -17.733 -36.624  0.00  0.00    -0.054 A 
ATOM      5  C   UNL A   1      46.283 -18.955 -37.262  0.00  0.00    -0.012 A 
ATOM      6  C   UNL A   1      46.464 -19.024 -38.648  0.00  0.00    +0.010 A 
ENDROOT
BRANCH   1   7
ATOM      7  C   UNL A   1      47.141 -18.079 -40.814  0.00  0.00    +0.049 C 
BRANCH   7  14
ATOM      8 CL   UNL A   1      44.156 -17.553 -41.607  0.00  0.00    -0.083 Cl
ATOM      9  C   UNL A   1      44.996 -19.046 -41.815  0.00  0.00    +0.046 A 
ATOM     10  C   UNL A   1      44.282 -20.116 -42.359  0.00  0.00    -0.043 A 
ATOM     11  C   UNL A   1      44.898 -21.355 -42.526  0.00  0.00    -0.060 A 
ATOM     12  C   UNL A   1      46.227 -21.526 -42.151  0.00  0.00    -0.061 A 
ATOM     13  C   UNL A   1      46.946 -20.459 -41.606  0.00  0.00    -0.055 A 
ATOM     14  C   UNL A   1      46.339 -19.201 -41.427  0.00  0.00    -0.009 A 
ENDBRANCH   7  14
ENDBRANCH   1   7
BRANCH   5  15
ATOM     15  C   UNL A   1      45.857 -20.162 -36.453  0.00  0.00    +0.050 C 
BRANCH  15  16
ATOM     16  N   UNL A   1      44.414 -20.183 -36.232  0.00  0.00    -0.339 N 
ATOM     17  C   UNL A   1      43.477 -20.591 -37.152  0.00  0.00    +0.023 A 
ATOM     18  C   UNL A   1      42.227 -20.439 -36.587  0.00  0.00    -0.019 A 
ATOM     19  C   UNL A   1      42.403 -19.914 -35.279  0.00  0.00    +0.003 A 
ATOM     20  C   UNL A   1      41.512 -19.563 -34.245  0.00  0.00    -0.052 A 
ATOM     21  C   UNL A   1      42.015 -19.082 -33.034  0.00  0.00    -0.061 A 
ATOM     22  C   UNL A   1      43.384 -18.943 -32.843  0.00  0.00    -0.060 A 
ATOM     23  C   UNL A   1      44.291 -19.280 -33.854  0.00  0.00    -0.038 A 
ATOM     24  C   UNL A   1      43.781 -19.766 -35.071  0.00  0.00    +0.050 A 
ATOM     25  C   UNL A   1      40.963 -20.798 -37.301  0.00  0.00    -0.025 C 
ATOM     26  C   UNL A   1      41.247 -21.701 -38.514  0.00  0.00    -0.049 C 
ATOM     27  C   UNL A   1      42.448 -21.201 -39.334  0.00  0.00    -0.047 C 
ATOM     28  C   UNL A   1      43.743 -21.172 -38.504  0.00  0.00    -0.012 C 
ENDBRANCH  15  16
ENDBRANCH   5  15
TORSDOF 4
ENDMDL
MODEL 18
REMARK VINA RESULT:    -6.696     18.343     21.639
REMARK INTER + INTRA:          -9.992
REMARK INTER:                  -8.862
REMARK INTRA:                  -1.130
REMARK UNBOUND:                -1.730
REMARK  Name = cpd347.pdb
REMARK  4 active torsions:
REMARK  status: ('A' for Active; 'I' for Inactive)
REMARK    1  A    between atoms: C_7  and  C_8
REMARK    2  A    between atoms: C_8  and  N_9
REMARK    3  A    between atoms: C_13  and  C_14
REMARK    4  A    between atoms: C_14  and  N_15
REMARK                            x       y       z     vdW  Elec       q    Type
REMARK                         _______ _______ _______ _____ _____    ______ ____
ROOT
ATOM      1  N   UNL A   1      44.193 -19.700 -35.570  0.00  0.00    -0.349 N 
ATOM      2  C   UNL A   1      44.421 -18.689 -34.698  0.00  0.00    +0.005 A 
ATOM      3  C   UNL A   1      45.588 -17.941 -34.765  0.00  0.00    -0.045 A 
ATOM      4  C   UNL A   1      46.513 -18.212 -35.764  0.00  0.00    -0.054 A 
ATOM      5  C   UNL A   1      46.254 -19.218 -36.697  0.00  0.00    -0.012 A 
ATOM      6  C   UNL A   1      45.083 -19.971 -36.556  0.00  0.00    +0.010 A 
ENDROOT
BRANCH   1   7
ATOM      7  C   UNL A   1      42.922 -20.475 -35.497  0.00  0.00    +0.049 C 
BRANCH   7  14
ATOM      8 CL   UNL A   1      41.018 -22.920 -35.962  0.00  0.00    -0.083 Cl
ATOM      9  C   UNL A   1      41.430 -21.735 -37.148  0.00  0.00    +0.046 A 
ATOM     10  C   UNL A   1      40.890 -21.890 -38.427  0.00  0.00    -0.043 A 
ATOM     11  C   UNL A   1      41.208 -20.982 -39.435  0.00  0.00    -0.060 A 
ATOM     12  C   UNL A   1      42.064 -19.917 -39.165  0.00  0.00    -0.061 A 
ATOM     13  C   UNL A   1      42.606 -19.758 -37.888  0.00  0.00    -0.055 A 
ATOM     14  C   UNL A   1      42.299 -20.668 -36.858  0.00  0.00    -0.009 A 
ENDBRANCH   7  14
ENDBRANCH   1   7
BRANCH   5  15
ATOM     15  C   UNL A   1      47.235 -19.473 -37.822  0.00  0.00    +0.050 C 
BRANCH  15  16
ATOM     16  N   UNL A   1      46.555 -19.661 -39.101  0.00  0.00    -0.339 N 
ATOM     17  C   UNL A   1      45.709 -18.751 -39.690  0.00  0.00    +0.023 A 
ATOM     18  C   UNL A   1      45.244 -19.298 -40.869  0.00  0.00    -0.019 A 
ATOM     19  C   UNL A   1      45.818 -20.591 -41.003  0.00  0.00    +0.003 A 
ATOM     20  C   UNL A   1      45.722 -21.599 -41.982  0.00  0.00    -0.052 A 
ATOM     21  C   UNL A   1      46.450 -22.782 -41.830  0.00  0.00    -0.061 A 
ATOM     22  C   UNL A   1      47.264 -22.971 -40.720  0.00  0.00    -0.060 A 
ATOM     23  C   UNL A   1      47.375 -21.989 -39.731  0.00  0.00    -0.038 A 
ATOM     24  C   UNL A   1      46.642 -20.799 -39.889  0.00  0.00    +0.050 A 
ATOM     25  C   UNL A   1      44.307 -18.579 -41.785  0.00  0.00    -0.025 C 
ATOM     26  C   UNL A   1      44.266 -17.073 -41.468  0.00  0.00    -0.049 C 
ATOM     27  C   UNL A   1      44.181 -16.806 -39.956  0.00  0.00    -0.047 C 
ATOM     28  C   UNL A   1      45.393 -17.375 -39.199  0.00  0.00    -0.012 C 
ENDBRANCH  15  16
ENDBRANCH   5  15
TORSDOF 4
ENDMDL
MODEL 19
REMARK VINA RESULT:    -6.688     19.011     21.799
REMARK INTER + INTRA:          -9.983
REMARK INTER:                  -8.574
REMARK INTRA:                  -1.409
REMARK UNBOUND:                -1.730
REMARK  Name = cpd347.pdb
REMARK  4 active torsions:
REMARK  status: ('A' for Active; 'I' for Inactive)
REMARK    1  A    between atoms: C_7  and  C_8
REMARK    2  A    between atoms: C_8  and  N_9
REMARK    3  A    between atoms: C_13  and  C_14
REMARK    4  A    between atoms: C_14  and  N_15
REMARK                            x       y       z     vdW  Elec       q    Type
REMARK                         _______ _______ _______ _____ _____    ______ ____
ROOT
ATOM      1  N   UNL A   1      46.705 -18.149 -39.344  0.00  0.00    -0.349 N 
ATOM      2  C   UNL A   1      46.859 -16.950 -38.734  0.00  0.00    +0.005 A 
ATOM      3  C   UNL A   1      46.501 -16.778 -37.404  0.00  0.00    -0.045 A 
ATOM      4  C   UNL A   1      46.017 -17.862 -36.684  0.00  0.00    -0.054 A 
ATOM      5  C   UNL A   1      45.910 -19.112 -37.297  0.00  0.00    -0.012 A 
ATOM      6  C   UNL A   1      46.242 -19.219 -38.652  0.00  0.00    +0.010 A 
ENDROOT
BRANCH   1   7
ATOM      7  C   UNL A   1      47.119 -18.321 -40.766  0.00  0.00    +0.049 C 
BRANCH   7  14
ATOM      8 CL   UNL A   1      44.207 -17.725 -41.758  0.00  0.00    -0.083 Cl
ATOM      9  C   UNL A   1      45.033 -19.231 -41.932  0.00  0.00    +0.046 A 
ATOM     10  C   UNL A   1      44.340 -20.279 -42.544  0.00  0.00    -0.043 A 
ATOM     11  C   UNL A   1      44.944 -21.526 -42.688  0.00  0.00    -0.060 A 
ATOM     12  C   UNL A   1      46.240 -21.728 -42.223  0.00  0.00    -0.061 A 
ATOM     13  C   UNL A   1      46.937 -20.683 -41.610  0.00  0.00    -0.055 A 
ATOM     14  C   UNL A   1      46.342 -19.417 -41.453  0.00  0.00    -0.009 A 
ENDBRANCH   7  14
ENDBRANCH   1   7
BRANCH   5  15
ATOM     15  C   UNL A   1      45.439 -20.307 -36.495  0.00  0.00    +0.050 C 
BRANCH  15  16
ATOM     16  N   UNL A   1      43.983 -20.415 -36.491  0.00  0.00    -0.339 N 
ATOM     17  C   UNL A   1      43.172 -20.160 -35.410  0.00  0.00    +0.023 A 
ATOM     18  C   UNL A   1      41.866 -20.399 -35.788  0.00  0.00    -0.019 A 
ATOM     19  C   UNL A   1      41.877 -20.823 -37.144  0.00  0.00    +0.003 A 
ATOM     20  C   UNL A   1      40.867 -21.195 -38.054  0.00  0.00    -0.052 A 
ATOM     21  C   UNL A   1      41.211 -21.548 -39.361  0.00  0.00    -0.061 A 
ATOM     22  C   UNL A   1      42.540 -21.538 -39.768  0.00  0.00    -0.060 A 
ATOM     23  C   UNL A   1      43.562 -21.177 -38.885  0.00  0.00    -0.038 A 
ATOM     24  C   UNL A   1      43.212 -20.820 -37.570  0.00  0.00    +0.050 A 
ATOM     25  C   UNL A   1      40.706 -20.212 -34.864  0.00  0.00    -0.025 C 
ATOM     26  C   UNL A   1      41.098 -19.363 -33.642  0.00  0.00    -0.049 C 
ATOM     27  C   UNL A   1      42.454 -19.792 -33.057  0.00  0.00    -0.047 C 
ATOM     28  C   UNL A   1      43.598 -19.641 -34.075  0.00  0.00    -0.012 C 
ENDBRANCH  15  16
ENDBRANCH   5  15
TORSDOF 4
ENDMDL
MODEL 20
REMARK VINA RESULT:    -6.346     16.865     19.649
REMARK INTER + INTRA:          -9.560
REMARK INTER:                  -8.313
REMARK INTRA:                  -1.247
REMARK UNBOUND:                -1.730
REMARK  Name = cpd347.pdb
REMARK  4 active torsions:
REMARK  status: ('A' for Active; 'I' for Inactive)
REMARK    1  A    between atoms: C_7  and  C_8
REMARK    2  A    between atoms: C_8  and  N_9
REMARK    3  A    between atoms: C_13  and  C_14
REMARK    4  A    between atoms: C_14  and  N_15
REMARK                            x       y       z     vdW  Elec       q    Type
REMARK                         _______ _______ _______ _____ _____    ______ ____
ROOT
ATOM      1  N   UNL A   1      40.786 -21.731 -36.463  0.00  0.00    -0.349 N 
ATOM      2  C   UNL A   1      40.090 -22.395 -37.417  0.00  0.00    +0.005 A 
ATOM      3  C   UNL A   1      40.183 -22.025 -38.751  0.00  0.00    -0.045 A 
ATOM      4  C   UNL A   1      41.031 -20.987 -39.112  0.00  0.00    -0.054 A 
ATOM      5  C   UNL A   1      41.791 -20.339 -38.137  0.00  0.00    -0.012 A 
ATOM      6  C   UNL A   1      41.625 -20.722 -36.801  0.00  0.00    +0.010 A 
ENDROOT
BRANCH   1   7
ATOM      7  C   UNL A   1      40.692 -22.159 -35.038  0.00  0.00    +0.049 C 
BRANCH   7  14
ATOM      8 CL   UNL A   1      41.640 -19.851 -33.143  0.00  0.00    -0.083 Cl
ATOM      9  C   UNL A   1      39.999 -20.313 -33.410  0.00  0.00    +0.046 A 
ATOM     10  C   UNL A   1      39.012 -19.619 -32.707  0.00  0.00    -0.043 A 
ATOM     11  C   UNL A   1      37.670 -19.965 -32.859  0.00  0.00    -0.060 A 
ATOM     12  C   UNL A   1      37.314 -21.003 -33.714  0.00  0.00    -0.061 A 
ATOM     13  C   UNL A   1      38.297 -21.701 -34.419  0.00  0.00    -0.055 A 
ATOM     14  C   UNL A   1      39.658 -21.368 -34.276  0.00  0.00    -0.009 A 
ENDBRANCH   7  14
ENDBRANCH   1   7
BRANCH   5  15
ATOM     15  C   UNL A   1      42.761 -19.247 -38.538  0.00  0.00    +0.050 C 
BRANCH  15  16
ATOM     16  N   UNL A   1      44.145 -19.628 -38.271  0.00  0.00    -0.339 N 
ATOM     17  C   UNL A   1      44.901 -20.469 -39.053  0.00  0.00    +0.023 A 
ATOM     18  C   UNL A   1      46.140 -20.606 -38.462  0.00  0.00    -0.019 A 
ATOM     19  C   UNL A   1      46.141 -19.829 -37.272  0.00  0.00    +0.003 A 
ATOM     20  C   UNL A   1      47.107 -19.579 -36.277  0.00  0.00    -0.052 A 
ATOM     21  C   UNL A   1      46.799 -18.725 -35.215  0.00  0.00    -0.061 A 
ATOM     22  C   UNL A   1      45.548 -18.124 -35.132  0.00  0.00    -0.060 A 
ATOM     23  C   UNL A   1      44.570 -18.358 -36.104  0.00  0.00    -0.038 A 
ATOM     24  C   UNL A   1      44.885 -19.217 -37.173  0.00  0.00    +0.050 A 
ATOM     25  C   UNL A   1      47.232 -21.444 -39.047  0.00  0.00    -0.025 C 
ATOM     26  C   UNL A   1      46.950 -21.772 -40.524  0.00  0.00    -0.049 C 
ATOM     27  C   UNL A   1      45.488 -22.191 -40.750  0.00  0.00    -0.047 C 
ATOM     28  C   UNL A   1      44.500 -21.078 -40.358  0.00  0.00    -0.012 C 
ENDBRANCH  15  16
ENDBRANCH   5  15
TORSDOF 4
ENDMDL
