REMARK  Name = cpd347.pdb
REMARK  4 active torsions:
REMARK  status: ('A' for Active; 'I' for Inactive)
REMARK    1  A    between atoms: C_7  and  C_8
REMARK    2  A    between atoms: C_8  and  N_9
REMARK    3  A    between atoms: C_13  and  C_14
REMARK    4  A    between atoms: C_14  and  N_15
REMARK                            x       y       z     vdW  Elec       q    Type
REMARK                         _______ _______ _______ _____ _____    ______ ____
ROOT
ATOM      1  N   UNL A   1       1.104  -1.346   0.172  0.00  0.00    -0.349 N 
ATOM      2  C   UNL A   1       1.825  -2.344   0.736  0.00  0.00    +0.005 A 
ATOM      3  C   UNL A   1       1.324  -3.063   1.812  0.00  0.00    -0.045 A 
ATOM      4  C   UNL A   1       0.051  -2.778   2.287  0.00  0.00    -0.054 A 
ATOM      5  C   UNL A   1      -0.715  -1.787   1.671  0.00  0.00    -0.012 A 
ATOM      6  C   UNL A   1      -0.144  -1.062   0.619  0.00  0.00    +0.010 A 
ENDROOT
BRANCH   1   7
ATOM      7  C   UNL A   1       1.649  -0.602  -0.999  0.00  0.00    +0.049 C 
BRANCH   7  14
ATOM      8 CL   UNL A   1       4.164  -1.810  -2.425  0.00  0.00    -0.083 Cl
ATOM      9  C   UNL A   1       4.184  -0.490  -1.313  0.00  0.00    +0.046 A 
ATOM     10  C   UNL A   1       5.425   0.072  -1.003  0.00  0.00    -0.043 A 
ATOM     11  C   UNL A   1       5.509   1.122  -0.091  0.00  0.00    -0.060 A 
ATOM     12  C   UNL A   1       4.354   1.612   0.512  0.00  0.00    -0.061 A 
ATOM     13  C   UNL A   1       3.111   1.053   0.206  0.00  0.00    -0.055 A 
ATOM     14  C   UNL A   1       3.007  -0.010  -0.711  0.00  0.00    -0.009 A 
ENDBRANCH   7  14
ENDBRANCH   1   7
BRANCH   5  15
ATOM     15  C   UNL A   1      -2.126  -1.517   2.151  0.00  0.00    +0.050 C 
BRANCH  15  16
ATOM     16  N   UNL A   1      -3.044  -1.299   1.037  0.00  0.00    -0.339 N 
ATOM     17  C   UNL A   1      -3.497  -2.274   0.180  0.00  0.00    +0.023 A 
ATOM     18  C   UNL A   1      -4.320  -1.677  -0.753  0.00  0.00    -0.019 A 
ATOM     19  C   UNL A   1      -4.367  -0.287  -0.463  0.00  0.00    +0.003 A 
ATOM     20  C   UNL A   1      -5.033   0.806  -1.053  0.00  0.00    -0.052 A 
ATOM     21  C   UNL A   1      -4.889   2.082  -0.502  0.00  0.00    -0.061 A 
ATOM     22  C   UNL A   1      -4.093   2.280   0.620  0.00  0.00    -0.060 A 
ATOM     23  C   UNL A   1      -3.418   1.214   1.223  0.00  0.00    -0.038 A 
ATOM     24  C   UNL A   1      -3.567  -0.069   0.666  0.00  0.00    +0.050 A 
ATOM     25  C   UNL A   1      -5.005  -2.441  -1.840  0.00  0.00    -0.025 C 
ATOM     26  C   UNL A   1      -5.008  -3.951  -1.542  0.00  0.00    -0.049 C 
ATOM     27  C   UNL A   1      -3.640  -4.439  -1.037  0.00  0.00    -0.047 C 
ATOM     28  C   UNL A   1      -3.222  -3.741   0.269  0.00  0.00    -0.012 C 
ENDBRANCH  15  16
ENDBRANCH   5  15
TORSDOF 4
