@<TRIPOS>MOLECULE
*****
 16 16 0 0 0
SMALL
GASTEIGER

@<TRIPOS>ATOM
      1 O          -0.0000   -2.0000    0.0000 O.2     1  UNL1       -0.2825
      2 C          -0.8660   -1.5000    0.0000 C.2     1  UNL1        0.2666
      3 C          -0.8660   -0.5000    0.0000 C.ar    1  UNL1        0.0431
      4 C          -1.7321   -0.0000    0.0000 C.ar    1  UNL1        0.0031
      5 C          -1.7321    1.0000    0.0000 C.ar    1  UNL1        0.0000
      6 C          -0.8660    1.5000    0.0000 C.ar    1  UNL1        0.0039
      7 C          -0.0000    1.0000    0.0000 C.ar    1  UNL1        0.0715
      8 C           0.8660    1.5000    0.0000 C.3     1  UNL1        0.4186
      9 F           1.3660    2.3660    0.0000 F       1  UNL1       -0.1659
     10 F           0.3660    2.3660    0.0000 F       1  UNL1       -0.1659
     11 F           1.7321    1.0000    0.0000 F       1  UNL1       -0.1659
     12 C          -0.0000   -0.0000    0.0000 C.ar    1  UNL1        0.0070
     13 C          -1.7321   -2.0000    0.0000 C.3     1  UNL1        0.4554
     14 F          -2.2321   -2.8660    0.0000 F       1  UNL1       -0.1631
     15 F          -1.2321   -2.8660    0.0000 F       1  UNL1       -0.1631
     16 F          -2.5981   -1.5000    0.0000 F       1  UNL1       -0.1631
@<TRIPOS>BOND
     1     1     2    2
     2     2     3    1
     3     3     4   ar
     4     4     5   ar
     5     5     6   ar
     6     6     7   ar
     7     7     8    1
     8     8     9    1
     9     8    10    1
    10     8    11    1
    11     7    12   ar
    12     3    12   ar
    13     2    13    1
    14    13    14    1
    15    13    15    1
    16    13    16    1
