REMARK  Name = cpd159.pdb
REMARK  3 active torsions:
REMARK  status: ('A' for Active; 'I' for Inactive)
REMARK    1  A    between atoms: C_2  and  C_3
REMARK    2  A    between atoms: C_2  and  C_13
REMARK    3  A    between atoms: C_7  and  C_8
REMARK                            x       y       z     vdW  Elec       q    Type
REMARK                         _______ _______ _______ _____ _____    ______ ____
ROOT
ATOM      1  C   UNL A   1      -0.921  -0.699   0.030  0.00  0.00    +0.027 A 
ATOM      2  C   UNL A   1      -2.158  -0.042   0.037  0.00  0.00    -0.051 A 
ATOM      3  C   UNL A   1      -2.212   1.354   0.060  0.00  0.00    -0.061 A 
ATOM      4  C   UNL A   1      -1.037   2.105   0.082  0.00  0.00    -0.050 A 
ATOM      5  C   UNL A   1       0.212   1.470   0.091  0.00  0.00    +0.055 A 
ATOM      6  C   UNL A   1       0.258   0.066   0.058  0.00  0.00    -0.039 A 
ENDROOT
BRANCH   5   7
ATOM      7  C   UNL A   1       1.486   2.281   0.089  0.00  0.00    +0.417 C 
ATOM      8  F   UNL A   1       1.897   2.589  -1.172  0.00  0.00    -0.166 F 
ATOM      9  F   UNL A   1       1.360   3.469   0.742  0.00  0.00    -0.166 F 
ATOM     10  F   UNL A   1       2.531   1.640   0.681  0.00  0.00    -0.166 F 
ENDBRANCH   5   7
BRANCH   1  12
ATOM     11  O   UNL A   1       0.323  -2.686   0.137  0.00  0.00    -0.283 OA
ATOM     12  C   UNL A   1      -0.796  -2.189  -0.007  0.00  0.00    +0.265 C 
BRANCH  12  13
ATOM     13  C   UNL A   1      -2.057  -3.012  -0.213  0.00  0.00    +0.455 C 
ATOM     14  F   UNL A   1      -2.923  -2.898   0.834  0.00  0.00    -0.163 F 
ATOM     15  F   UNL A   1      -1.814  -4.343  -0.361  0.00  0.00    -0.163 F 
ATOM     16  F   UNL A   1      -2.752  -2.629  -1.321  0.00  0.00    -0.163 F 
ENDBRANCH  12  13
ENDBRANCH   1  12
TORSDOF 3
