@<TRIPOS>MOLECULE
*****
 37 40 0 0 0
SMALL
GASTEIGER

@<TRIPOS>ATOM
      1 C          -1.7321   -2.0000    0.0000 C.3     1  UNL1        0.2526
      2 O          -0.8660   -1.5000    0.0000 O.3     1  UNL1       -0.4683
      3 C          -0.8660   -0.5000    0.0000 C.ar    1  UNL1        0.1751
      4 C          -1.7321   -0.0000    0.0000 C.ar    1  UNL1        0.0360
      5 C          -1.7321    1.0000    0.0000 C.ar    1  UNL1       -0.0155
      6 C          -2.5981    1.5000    0.0000 C.3     1  UNL1        0.0362
      7 C          -2.5981    2.5000    0.0000 C.3     1  UNL1        0.0915
      8 C          -3.4641    3.0000    0.0000 C.2     1  UNL1        0.2417
      9 O          -3.4641    4.0000    0.0000 O.2     1  UNL1       -0.2733
     10 N          -4.3301    2.5000    0.0000 N.am    1  UNL1       -0.2049
     11 C          -5.1962    3.0000    0.0000 C.3     1  UNL1        0.1248
     12 C          -5.1962    4.0000    0.0000 C.3     1  UNL1        0.1119
     13 C          -6.0622    4.5000    0.0000 C.2     1  UNL1        0.2625
     14 O          -6.0622    5.5000    0.0000 O.2     1  UNL1       -0.2716
     15 N          -6.9282    4.0000    0.0000 N.am    1  UNL1       -0.0905
     16 N          -7.7942    4.5000    0.0000 N.pl3   1  UNL1       -0.1256
     17 C          -8.6603    4.0000    0.0000 C.ar    1  UNL1        0.0877
     18 C          -9.5263    4.5000    0.0000 C.ar    1  UNL1        0.0081
     19 C         -10.3923    4.0000    0.0000 C.ar    1  UNL1        0.0563
     20 N         -10.3923    3.0000    0.0000 N.ar    1  UNL1       -0.2499
     21 C          -9.5263    2.5000    0.0000 C.ar    1  UNL1        0.0822
     22 C          -9.5263    1.5000    0.0000 C.ar    1  UNL1        0.0191
     23 C          -8.6603    1.0000    0.0000 C.ar    1  UNL1        0.0015
     24 C          -7.7942    1.5000    0.0000 C.ar    1  UNL1        0.0001
     25 C          -7.7942    2.5000    0.0000 C.ar    1  UNL1        0.0028
     26 C          -8.6603    3.0000    0.0000 C.ar    1  UNL1        0.0341
     27 C         -11.2583    4.5000    0.0000 C.3     1  UNL1        0.0455
     28 C         -11.2583    5.5000    0.0000 C.3     1  UNL1        0.0066
     29 C         -10.3923    6.0000    0.0000 C.3     1  UNL1        0.0052
     30 C          -9.5263    5.5000    0.0000 C.3     1  UNL1        0.0289
     31 C          -0.8660    1.5000    0.0000 C.ar    1  UNL1        0.0360
     32 C           0.0000    1.0000    0.0000 C.ar    1  UNL1        0.1751
     33 O           0.8660    1.5000    0.0000 O.3     1  UNL1       -0.4683
     34 C           0.8660    2.5000    0.0000 C.3     1  UNL1        0.2526
     35 C           0.0000    0.0000    0.0000 C.ar    1  UNL1        0.2060
     36 O           0.8660   -0.5000    0.0000 O.3     1  UNL1       -0.4654
     37 C           1.7321    0.0000    0.0000 C.3     1  UNL1        0.2528
@<TRIPOS>BOND
     1     1     2    1
     2     2     3    1
     3     3     4   ar
     4     4     5   ar
     5     5     6    1
     6     6     7    1
     7     7     8    1
     8     8     9    2
     9     8    10   am
    10    10    11    1
    11    11    12    1
    12    12    13    1
    13    13    14    2
    14    13    15   am
    15    15    16    1
    16    16    17    1
    17    17    18   ar
    18    18    19   ar
    19    19    20   ar
    20    20    21   ar
    21    21    22   ar
    22    22    23   ar
    23    23    24   ar
    24    24    25   ar
    25    25    26   ar
    26    17    26   ar
    27    21    26   ar
    28    19    27    1
    29    27    28    1
    30    28    29    1
    31    29    30    1
    32    18    30    1
    33     5    31   ar
    34    31    32   ar
    35    32    33    1
    36    33    34    1
    37    32    35   ar
    38     3    35   ar
    39    35    36    1
    40    36    37    1
