MODEL 1
REMARK VINA RESULT:    -7.643      0.000      0.000
REMARK INTER + INTRA:         -15.537
REMARK INTER:                 -12.559
REMARK INTRA:                  -2.978
REMARK UNBOUND:                -2.978
REMARK  Name = cpd81.pdb
REMARK  14 active torsions:
REMARK  status: ('A' for Active; 'I' for Inactive)
REMARK    1  A    between atoms: C_1  and  O_2
REMARK    2  A    between atoms: O_2  and  C_3
REMARK    3  A    between atoms: C_5  and  C_6
REMARK    4  A    between atoms: C_6  and  C_7
REMARK    5  A    between atoms: C_7  and  C_8
REMARK    6  A    between atoms: N_10  and  C_11
REMARK    7  A    between atoms: C_11  and  C_12
REMARK    8  A    between atoms: C_12  and  C_13
REMARK    9  A    between atoms: N_15  and  N_16
REMARK   10  A    between atoms: N_16  and  C_17
REMARK   11  A    between atoms: C_32  and  O_33
REMARK   12  A    between atoms: O_33  and  C_34
REMARK   13  A    between atoms: C_35  and  O_36
REMARK   14  A    between atoms: O_36  and  C_37
REMARK                            x       y       z     vdW  Elec       q    Type
REMARK                         _______ _______ _______ _____ _____    ______ ____
ROOT
ATOM      1  C   UNL A   1      34.343 -32.370 -30.603  0.00  0.00    +0.041 C 
ENDROOT
BRANCH   1   2
ATOM      2  C   UNL A   1      34.732 -33.415 -31.615  0.00  0.00    +0.231 C 
ATOM      3  O   UNL A   1      33.963 -33.821 -32.485  0.00  0.00    -0.274 OA
ATOM      4  N   UNL A   1      35.992 -33.951 -31.402  0.00  0.00    -0.236 N 
ATOM      5  H   UNL A   1      36.708 -33.449 -30.948  0.00  0.00    +0.000 HD
BRANCH   4   6
ATOM      6  N   UNL A   1      36.181 -35.273 -31.882  0.00  0.00    -0.264 N 
ATOM      7  H   UNL A   1      35.734 -35.646 -32.676  0.00  0.00    +0.000 HD
BRANCH   6   8
ATOM      8  C   UNL A   1      37.103 -35.992 -31.064  0.00  0.00    +0.058 A 
ATOM      9  C   UNL A   1      38.450 -36.135 -31.457  0.00  0.00    -0.003 A 
ATOM     10  C   UNL A   1      39.297 -36.847 -30.606  0.00  0.00    +0.047 A 
ATOM     11  N   UNL A   1      38.903 -37.340 -29.408  0.00  0.00    -0.251 NA
ATOM     12  C   UNL A   1      37.628 -37.186 -29.025  0.00  0.00    +0.073 A 
ATOM     13  C   UNL A   1      37.244 -37.709 -27.796  0.00  0.00    -0.036 A 
ATOM     14  C   UNL A   1      35.932 -37.617 -27.329  0.00  0.00    -0.060 A 
ATOM     15  C   UNL A   1      34.969 -36.999 -28.112  0.00  0.00    -0.061 A 
ATOM     16  C   UNL A   1      35.332 -36.469 -29.349  0.00  0.00    -0.051 A 
ATOM     17  C   UNL A   1      36.669 -36.532 -29.819  0.00  0.00    +0.023 A 
ATOM     18  C   UNL A   1      40.748 -37.082 -30.939  0.00  0.00    -0.010 C 
ATOM     19  C   UNL A   1      41.050 -36.933 -32.425  0.00  0.00    -0.047 C 
ATOM     20  C   UNL A   1      40.474 -35.620 -32.932  0.00  0.00    -0.049 C 
ATOM     21  C   UNL A   1      38.953 -35.604 -32.780  0.00  0.00    -0.024 C 
ENDBRANCH   6   8
ENDBRANCH   4   6
ENDBRANCH   1   2
BRANCH   1  22
ATOM     22  C   UNL A   1      33.525 -33.062 -29.519  0.00  0.00    +0.020 C 
BRANCH  22  25
ATOM     23  C   UNL A   1      31.950 -34.936 -29.263  0.00  0.00    +0.213 C 
ATOM     24  O   UNL A   1      32.177 -35.046 -28.063  0.00  0.00    -0.276 OA
ATOM     25  N   UNL A   1      32.480 -33.922 -30.037  0.00  0.00    -0.315 N 
ATOM     26  H   UNL A   1      32.142 -33.782 -30.952  0.00  0.00    +0.000 HD
BRANCH  23  27
ATOM     27  C   UNL A   1      31.114 -35.910 -30.068  0.00  0.00    +0.028 C 
BRANCH  27  28
ATOM     28  C   UNL A   1      31.329 -37.362 -29.646  0.00  0.00    -0.019 C 
BRANCH  28  31
ATOM     29  C   UNL A   1      33.689 -39.784 -31.411  0.00  0.00    +0.165 A 
ATOM     30  C   UNL A   1      33.025 -39.065 -30.410  0.00  0.00    -0.013 A 
ATOM     31  C   UNL A   1      32.016 -38.152 -30.736  0.00  0.00    -0.040 A 
ATOM     32  C   UNL A   1      31.695 -37.956 -32.084  0.00  0.00    -0.013 A 
ATOM     33  C   UNL A   1      32.393 -38.630 -33.100  0.00  0.00    +0.165 A 
ATOM     34  C   UNL A   1      33.386 -39.569 -32.772  0.00  0.00    +0.204 A 
BRANCH  29  36
ATOM     35  C   UNL A   1      35.692 -40.207 -30.226  0.00  0.00    +0.079 C 
ATOM     36  O   UNL A   1      34.696 -40.678 -31.127  0.00  0.00    -0.491 OA
ENDBRANCH  29  36
BRANCH  33  37
ATOM     37  O   UNL A   1      32.051 -38.398 -34.408  0.00  0.00    -0.491 OA
ATOM     38  C   UNL A   1      30.787 -38.963 -34.757  0.00  0.00    +0.079 C 
ENDBRANCH  33  37
BRANCH  34  39
ATOM     39  O   UNL A   1      34.147 -40.311 -33.641  0.00  0.00    -0.488 OA
ATOM     40  C   UNL A   1      33.583 -41.458 -34.253  0.00  0.00    +0.079 C 
ENDBRANCH  34  39
ENDBRANCH  28  31
ENDBRANCH  27  28
ENDBRANCH  23  27
ENDBRANCH  22  25
ENDBRANCH   1  22
TORSDOF 11
ENDMDL
MODEL 2
REMARK VINA RESULT:    -7.570      1.490      2.511
REMARK INTER + INTRA:         -15.416
REMARK INTER:                 -12.784
REMARK INTRA:                  -2.632
REMARK UNBOUND:                -2.978
REMARK  Name = cpd81.pdb
REMARK  14 active torsions:
REMARK  status: ('A' for Active; 'I' for Inactive)
REMARK    1  A    between atoms: C_1  and  O_2
REMARK    2  A    between atoms: O_2  and  C_3
REMARK    3  A    between atoms: C_5  and  C_6
REMARK    4  A    between atoms: C_6  and  C_7
REMARK    5  A    between atoms: C_7  and  C_8
REMARK    6  A    between atoms: N_10  and  C_11
REMARK    7  A    between atoms: C_11  and  C_12
REMARK    8  A    between atoms: C_12  and  C_13
REMARK    9  A    between atoms: N_15  and  N_16
REMARK   10  A    between atoms: N_16  and  C_17
REMARK   11  A    between atoms: C_32  and  O_33
REMARK   12  A    between atoms: O_33  and  C_34
REMARK   13  A    between atoms: C_35  and  O_36
REMARK   14  A    between atoms: O_36  and  C_37
REMARK                            x       y       z     vdW  Elec       q    Type
REMARK                         _______ _______ _______ _____ _____    ______ ____
ROOT
ATOM      1  C   UNL A   1      34.312 -32.588 -29.913  0.00  0.00    +0.041 C 
ENDROOT
BRANCH   1   2
ATOM      2  C   UNL A   1      34.923 -33.295 -31.096  0.00  0.00    +0.231 C 
ATOM      3  O   UNL A   1      34.317 -33.474 -32.151  0.00  0.00    -0.274 OA
ATOM      4  N   UNL A   1      36.181 -33.817 -30.840  0.00  0.00    -0.236 N 
ATOM      5  H   UNL A   1      36.783 -33.432 -30.163  0.00  0.00    +0.000 HD
BRANCH   4   6
ATOM      6  N   UNL A   1      36.542 -34.944 -31.622  0.00  0.00    -0.264 N 
ATOM      7  H   UNL A   1      36.243 -35.098 -32.548  0.00  0.00    +0.000 HD
BRANCH   6   8
ATOM      8  C   UNL A   1      37.396 -35.825 -30.894  0.00  0.00    +0.058 A 
ATOM      9  C   UNL A   1      38.717 -36.063 -31.326  0.00  0.00    -0.003 A 
ATOM     10  C   UNL A   1      39.498 -36.933 -30.562  0.00  0.00    +0.047 A 
ATOM     11  N   UNL A   1      39.069 -37.495 -29.407  0.00  0.00    -0.251 NA
ATOM     12  C   UNL A   1      37.821 -37.252 -28.986  0.00  0.00    +0.073 A 
ATOM     13  C   UNL A   1      37.399 -37.847 -27.803  0.00  0.00    -0.036 A 
ATOM     14  C   UNL A   1      36.109 -37.669 -27.303  0.00  0.00    -0.060 A 
ATOM     15  C   UNL A   1      35.204 -36.888 -28.005  0.00  0.00    -0.061 A 
ATOM     16  C   UNL A   1      35.605 -36.283 -29.194  0.00  0.00    -0.051 A 
ATOM     17  C   UNL A   1      36.923 -36.433 -29.696  0.00  0.00    +0.023 A 
ATOM     18  C   UNL A   1      40.914 -37.279 -30.946  0.00  0.00    -0.010 C 
ATOM     19  C   UNL A   1      41.213 -37.021 -32.418  0.00  0.00    -0.047 C 
ATOM     20  C   UNL A   1      40.766 -35.616 -32.789  0.00  0.00    -0.049 C 
ATOM     21  C   UNL A   1      39.257 -35.463 -32.604  0.00  0.00    -0.024 C 
ENDBRANCH   6   8
ENDBRANCH   4   6
ENDBRANCH   1   2
BRANCH   1  22
ATOM     22  C   UNL A   1      32.902 -32.164 -30.309  0.00  0.00    +0.020 C 
BRANCH  22  25
ATOM     23  C   UNL A   1      31.578 -34.090 -29.537  0.00  0.00    +0.213 C 
ATOM     24  O   UNL A   1      31.753 -33.818 -28.355  0.00  0.00    -0.276 OA
ATOM     25  N   UNL A   1      32.010 -33.277 -30.566  0.00  0.00    -0.315 N 
ATOM     26  H   UNL A   1      31.706 -33.454 -31.486  0.00  0.00    +0.000 HD
BRANCH  23  27
ATOM     27  C   UNL A   1      30.922 -35.363 -30.033  0.00  0.00    +0.028 C 
BRANCH  27  28
ATOM     28  C   UNL A   1      31.811 -36.149 -30.994  0.00  0.00    -0.019 C 
BRANCH  28  31
ATOM     29  C   UNL A   1      32.197 -39.038 -28.534  0.00  0.00    +0.165 A 
ATOM     30  C   UNL A   1      31.809 -37.821 -29.106  0.00  0.00    -0.013 A 
ATOM     31  C   UNL A   1      32.214 -37.480 -30.402  0.00  0.00    -0.040 A 
ATOM     32  C   UNL A   1      33.029 -38.370 -31.109  0.00  0.00    -0.013 A 
ATOM     33  C   UNL A   1      33.470 -39.569 -30.524  0.00  0.00    +0.165 A 
ATOM     34  C   UNL A   1      33.042 -39.926 -29.234  0.00  0.00    +0.204 A 
BRANCH  29  36
ATOM     35  C   UNL A   1      32.017 -38.396 -26.265  0.00  0.00    +0.079 C 
ATOM     36  O   UNL A   1      31.831 -39.399 -27.257  0.00  0.00    -0.491 OA
ENDBRANCH  29  36
BRANCH  33  37
ATOM     37  O   UNL A   1      34.278 -40.405 -31.252  0.00  0.00    -0.491 OA
ATOM     38  C   UNL A   1      35.616 -39.920 -31.366  0.00  0.00    +0.079 C 
ENDBRANCH  33  37
BRANCH  34  39
ATOM     39  O   UNL A   1      33.373 -41.057 -28.532  0.00  0.00    -0.488 OA
ATOM     40  C   UNL A   1      34.657 -41.156 -27.939  0.00  0.00    +0.079 C 
ENDBRANCH  34  39
ENDBRANCH  28  31
ENDBRANCH  27  28
ENDBRANCH  23  27
ENDBRANCH  22  25
ENDBRANCH   1  22
TORSDOF 11
ENDMDL
MODEL 3
REMARK VINA RESULT:    -7.428      1.231      2.285
REMARK INTER + INTRA:         -15.182
REMARK INTER:                 -12.866
REMARK INTRA:                  -2.316
REMARK UNBOUND:                -2.978
REMARK  Name = cpd81.pdb
REMARK  14 active torsions:
REMARK  status: ('A' for Active; 'I' for Inactive)
REMARK    1  A    between atoms: C_1  and  O_2
REMARK    2  A    between atoms: O_2  and  C_3
REMARK    3  A    between atoms: C_5  and  C_6
REMARK    4  A    between atoms: C_6  and  C_7
REMARK    5  A    between atoms: C_7  and  C_8
REMARK    6  A    between atoms: N_10  and  C_11
REMARK    7  A    between atoms: C_11  and  C_12
REMARK    8  A    between atoms: C_12  and  C_13
REMARK    9  A    between atoms: N_15  and  N_16
REMARK   10  A    between atoms: N_16  and  C_17
REMARK   11  A    between atoms: C_32  and  O_33
REMARK   12  A    between atoms: O_33  and  C_34
REMARK   13  A    between atoms: C_35  and  O_36
REMARK   14  A    between atoms: O_36  and  C_37
REMARK                            x       y       z     vdW  Elec       q    Type
REMARK                         _______ _______ _______ _____ _____    ______ ____
ROOT
ATOM      1  C   UNL A   1      34.405 -32.740 -29.923  0.00  0.00    +0.041 C 
ENDROOT
BRANCH   1   2
ATOM      2  C   UNL A   1      34.867 -33.543 -31.112  0.00  0.00    +0.231 C 
ATOM      3  O   UNL A   1      34.101 -33.926 -31.995  0.00  0.00    -0.274 OA
ATOM      4  N   UNL A   1      36.204 -33.900 -31.054  0.00  0.00    -0.236 N 
ATOM      5  H   UNL A   1      36.871 -33.368 -30.562  0.00  0.00    +0.000 HD
BRANCH   4   6
ATOM      6  N   UNL A   1      36.548 -35.086 -31.752  0.00  0.00    -0.264 N 
ATOM      7  H   UNL A   1      36.225 -35.315 -32.654  0.00  0.00    +0.000 HD
BRANCH   6   8
ATOM      8  C   UNL A   1      37.424 -35.906 -30.978  0.00  0.00    +0.058 A 
ATOM      9  C   UNL A   1      38.757 -36.114 -31.386  0.00  0.00    -0.003 A 
ATOM     10  C   UNL A   1      39.559 -36.924 -30.578  0.00  0.00    +0.047 A 
ATOM     11  N   UNL A   1      39.136 -37.452 -29.405  0.00  0.00    -0.251 NA
ATOM     12  C   UNL A   1      37.875 -37.236 -29.008  0.00  0.00    +0.073 A 
ATOM     13  C   UNL A   1      37.461 -37.796 -27.806  0.00  0.00    -0.036 A 
ATOM     14  C   UNL A   1      36.159 -37.644 -27.327  0.00  0.00    -0.060 A 
ATOM     15  C   UNL A   1      35.236 -36.925 -28.071  0.00  0.00    -0.061 A 
ATOM     16  C   UNL A   1      35.629 -36.356 -29.280  0.00  0.00    -0.051 A 
ATOM     17  C   UNL A   1      36.958 -36.480 -29.761  0.00  0.00    +0.023 A 
ATOM     18  C   UNL A   1      40.991 -37.234 -30.933  0.00  0.00    -0.010 C 
ATOM     19  C   UNL A   1      41.298 -37.028 -32.411  0.00  0.00    -0.047 C 
ATOM     20  C   UNL A   1      40.807 -35.656 -32.845  0.00  0.00    -0.049 C 
ATOM     21  C   UNL A   1      39.290 -35.549 -32.683  0.00  0.00    -0.024 C 
ENDBRANCH   6   8
ENDBRANCH   4   6
ENDBRANCH   1   2
BRANCH   1  22
ATOM     22  C   UNL A   1      33.085 -32.078 -30.300  0.00  0.00    +0.020 C 
BRANCH  22  25
ATOM     23  C   UNL A   1      31.545 -33.733 -29.325  0.00  0.00    +0.213 C 
ATOM     24  O   UNL A   1      31.918 -33.500 -28.180  0.00  0.00    -0.276 OA
ATOM     25  N   UNL A   1      31.980 -33.008 -30.418  0.00  0.00    -0.315 N 
ATOM     26  H   UNL A   1      31.532 -33.125 -31.287  0.00  0.00    +0.000 HD
BRANCH  23  27
ATOM     27  C   UNL A   1      30.611 -34.863 -29.706  0.00  0.00    +0.028 C 
BRANCH  27  28
ATOM     28  C   UNL A   1      31.030 -35.565 -30.997  0.00  0.00    -0.019 C 
BRANCH  28  31
ATOM     29  C   UNL A   1      33.321 -38.581 -31.444  0.00  0.00    +0.165 A 
ATOM     30  C   UNL A   1      32.620 -37.395 -31.690  0.00  0.00    -0.013 A 
ATOM     31  C   UNL A   1      31.803 -36.829 -30.704  0.00  0.00    -0.040 A 
ATOM     32  C   UNL A   1      31.685 -37.483 -29.473  0.00  0.00    -0.013 A 
ATOM     33  C   UNL A   1      32.339 -38.703 -29.234  0.00  0.00    +0.165 A 
ATOM     34  C   UNL A   1      33.182 -39.256 -30.212  0.00  0.00    +0.204 A 
BRANCH  29  36
ATOM     35  C   UNL A   1      33.430 -39.762 -33.490  0.00  0.00    +0.079 C 
ATOM     36  O   UNL A   1      34.121 -39.172 -32.395  0.00  0.00    -0.491 OA
ENDBRANCH  29  36
BRANCH  33  37
ATOM     37  O   UNL A   1      32.184 -39.312 -28.014  0.00  0.00    -0.491 OA
ATOM     38  C   UNL A   1      30.829 -39.671 -27.745  0.00  0.00    +0.079 C 
ENDBRANCH  33  37
BRANCH  34  39
ATOM     39  O   UNL A   1      33.894 -40.427 -30.130  0.00  0.00    -0.488 OA
ATOM     40  C   UNL A   1      33.215 -41.664 -30.265  0.00  0.00    +0.079 C 
ENDBRANCH  34  39
ENDBRANCH  28  31
ENDBRANCH  27  28
ENDBRANCH  23  27
ENDBRANCH  22  25
ENDBRANCH   1  22
TORSDOF 11
ENDMDL
MODEL 4
REMARK VINA RESULT:    -7.350      0.819      3.127
REMARK INTER + INTRA:         -15.055
REMARK INTER:                 -12.832
REMARK INTRA:                  -2.223
REMARK UNBOUND:                -2.978
REMARK  Name = cpd81.pdb
REMARK  14 active torsions:
REMARK  status: ('A' for Active; 'I' for Inactive)
REMARK    1  A    between atoms: C_1  and  O_2
REMARK    2  A    between atoms: O_2  and  C_3
REMARK    3  A    between atoms: C_5  and  C_6
REMARK    4  A    between atoms: C_6  and  C_7
REMARK    5  A    between atoms: C_7  and  C_8
REMARK    6  A    between atoms: N_10  and  C_11
REMARK    7  A    between atoms: C_11  and  C_12
REMARK    8  A    between atoms: C_12  and  C_13
REMARK    9  A    between atoms: N_15  and  N_16
REMARK   10  A    between atoms: N_16  and  C_17
REMARK   11  A    between atoms: C_32  and  O_33
REMARK   12  A    between atoms: O_33  and  C_34
REMARK   13  A    between atoms: C_35  and  O_36
REMARK   14  A    between atoms: O_36  and  C_37
REMARK                            x       y       z     vdW  Elec       q    Type
REMARK                         _______ _______ _______ _____ _____    ______ ____
ROOT
ATOM      1  C   UNL A   1      33.783 -32.142 -30.392  0.00  0.00    +0.041 C 
ENDROOT
BRANCH   1   2
ATOM      2  C   UNL A   1      34.397 -33.006 -31.464  0.00  0.00    +0.231 C 
ATOM      3  O   UNL A   1      33.852 -33.211 -32.547  0.00  0.00    -0.274 OA
ATOM      4  N   UNL A   1      35.570 -33.629 -31.069  0.00  0.00    -0.236 N 
ATOM      5  H   UNL A   1      36.160 -33.251 -30.377  0.00  0.00    +0.000 HD
BRANCH   4   6
ATOM      6  N   UNL A   1      35.862 -34.849 -31.730  0.00  0.00    -0.264 N 
ATOM      7  H   UNL A   1      35.536 -35.088 -32.628  0.00  0.00    +0.000 HD
BRANCH   6   8
ATOM      8  C   UNL A   1      36.692 -35.686 -30.925  0.00  0.00    +0.058 A 
ATOM      9  C   UNL A   1      36.179 -36.300 -29.764  0.00  0.00    -0.003 A 
ATOM     10  C   UNL A   1      37.046 -37.110 -29.027  0.00  0.00    +0.047 A 
ATOM     11  N   UNL A   1      38.317 -37.379 -29.411  0.00  0.00    -0.251 NA
ATOM     12  C   UNL A   1      38.797 -36.812 -30.525  0.00  0.00    +0.073 A 
ATOM     13  C   UNL A   1      40.106 -37.096 -30.895  0.00  0.00    -0.036 A 
ATOM     14  C   UNL A   1      40.696 -36.531 -32.026  0.00  0.00    -0.060 A 
ATOM     15  C   UNL A   1      39.968 -35.646 -32.807  0.00  0.00    -0.061 A 
ATOM     16  C   UNL A   1      38.654 -35.347 -32.455  0.00  0.00    -0.051 A 
ATOM     17  C   UNL A   1      38.036 -35.939 -31.324  0.00  0.00    +0.023 A 
ATOM     18  C   UNL A   1      36.611 -37.793 -27.756  0.00  0.00    -0.010 C 
ATOM     19  C   UNL A   1      35.388 -37.145 -27.118  0.00  0.00    -0.047 C 
ATOM     20  C   UNL A   1      34.300 -36.973 -28.166  0.00  0.00    -0.049 C 
ATOM     21  C   UNL A   1      34.769 -36.043 -29.284  0.00  0.00    -0.024 C 
ENDBRANCH   6   8
ENDBRANCH   4   6
ENDBRANCH   1   2
BRANCH   1  22
ATOM     22  C   UNL A   1      32.436 -32.755 -30.024  0.00  0.00    +0.020 C 
BRANCH  22  25
ATOM     23  C   UNL A   1      31.493 -35.009 -30.321  0.00  0.00    +0.213 C 
ATOM     24  O   UNL A   1      31.112 -35.072 -29.158  0.00  0.00    -0.276 OA
ATOM     25  N   UNL A   1      32.053 -33.870 -30.867  0.00  0.00    -0.315 N 
ATOM     26  H   UNL A   1      32.193 -33.816 -31.840  0.00  0.00    +0.000 HD
BRANCH  23  27
ATOM     27  C   UNL A   1      31.456 -36.167 -31.297  0.00  0.00    +0.028 C 
BRANCH  27  28
ATOM     28  C   UNL A   1      31.688 -37.517 -30.621  0.00  0.00    -0.019 C 
BRANCH  28  31
ATOM     29  C   UNL A   1      34.163 -40.048 -32.042  0.00  0.00    +0.165 A 
ATOM     30  C   UNL A   1      33.519 -39.161 -31.170  0.00  0.00    -0.013 A 
ATOM     31  C   UNL A   1      32.354 -38.493 -31.562  0.00  0.00    -0.040 A 
ATOM     32  C   UNL A   1      31.853 -38.713 -32.850  0.00  0.00    -0.013 A 
ATOM     33  C   UNL A   1      32.521 -39.557 -33.753  0.00  0.00    +0.165 A 
ATOM     34  C   UNL A   1      33.675 -40.251 -33.350  0.00  0.00    +0.204 A 
BRANCH  29  36
ATOM     35  C   UNL A   1      35.778 -40.475 -30.368  0.00  0.00    +0.079 C 
ATOM     36  O   UNL A   1      35.318 -40.710 -31.694  0.00  0.00    -0.491 OA
ENDBRANCH  29  36
BRANCH  33  37
ATOM     37  O   UNL A   1      31.998 -39.733 -35.009  0.00  0.00    -0.491 OA
ATOM     38  C   UNL A   1      30.923 -38.838 -35.290  0.00  0.00    +0.079 C 
ENDBRANCH  33  37
BRANCH  34  39
ATOM     39  O   UNL A   1      34.432 -41.112 -34.104  0.00  0.00    -0.488 OA
ATOM     40  C   UNL A   1      33.972 -42.435 -34.319  0.00  0.00    +0.079 C 
ENDBRANCH  34  39
ENDBRANCH  28  31
ENDBRANCH  27  28
ENDBRANCH  23  27
ENDBRANCH  22  25
ENDBRANCH   1  22
TORSDOF 11
ENDMDL
MODEL 5
REMARK VINA RESULT:    -7.120      3.041      5.662
REMARK INTER + INTRA:         -14.677
REMARK INTER:                 -12.569
REMARK INTRA:                  -2.107
REMARK UNBOUND:                -2.978
REMARK  Name = cpd81.pdb
REMARK  14 active torsions:
REMARK  status: ('A' for Active; 'I' for Inactive)
REMARK    1  A    between atoms: C_1  and  O_2
REMARK    2  A    between atoms: O_2  and  C_3
REMARK    3  A    between atoms: C_5  and  C_6
REMARK    4  A    between atoms: C_6  and  C_7
REMARK    5  A    between atoms: C_7  and  C_8
REMARK    6  A    between atoms: N_10  and  C_11
REMARK    7  A    between atoms: C_11  and  C_12
REMARK    8  A    between atoms: C_12  and  C_13
REMARK    9  A    between atoms: N_15  and  N_16
REMARK   10  A    between atoms: N_16  and  C_17
REMARK   11  A    between atoms: C_32  and  O_33
REMARK   12  A    between atoms: O_33  and  C_34
REMARK   13  A    between atoms: C_35  and  O_36
REMARK   14  A    between atoms: O_36  and  C_37
REMARK                            x       y       z     vdW  Elec       q    Type
REMARK                         _______ _______ _______ _____ _____    ______ ____
ROOT
ATOM      1  C   UNL A   1      34.211 -32.556 -30.608  0.00  0.00    +0.041 C 
ENDROOT
BRANCH   1   2
ATOM      2  C   UNL A   1      34.449 -33.700 -31.560  0.00  0.00    +0.231 C 
ATOM      3  O   UNL A   1      33.536 -34.291 -32.134  0.00  0.00    -0.274 OA
ATOM      4  N   UNL A   1      35.777 -34.089 -31.638  0.00  0.00    -0.236 N 
ATOM      5  H   UNL A   1      36.519 -33.467 -31.458  0.00  0.00    +0.000 HD
BRANCH   4   6
ATOM      6  N   UNL A   1      35.994 -35.444 -31.995  0.00  0.00    -0.264 N 
ATOM      7  H   UNL A   1      35.573 -35.891 -32.765  0.00  0.00    +0.000 HD
BRANCH   6   8
ATOM      8  C   UNL A   1      36.900 -36.077 -31.092  0.00  0.00    +0.058 A 
ATOM      9  C   UNL A   1      36.432 -36.660 -29.896  0.00  0.00    -0.003 A 
ATOM     10  C   UNL A   1      37.374 -37.266 -29.063  0.00  0.00    +0.047 A 
ATOM     11  N   UNL A   1      38.685 -37.375 -29.381  0.00  0.00    -0.251 NA
ATOM     12  C   UNL A   1      39.127 -36.839 -30.527  0.00  0.00    +0.073 A 
ATOM     13  C   UNL A   1      40.478 -36.954 -30.828  0.00  0.00    -0.036 A 
ATOM     14  C   UNL A   1      41.029 -36.405 -31.987  0.00  0.00    -0.060 A 
ATOM     15  C   UNL A   1      40.216 -35.709 -32.867  0.00  0.00    -0.061 A 
ATOM     16  C   UNL A   1      38.858 -35.580 -32.584  0.00  0.00    -0.051 A 
ATOM     17  C   UNL A   1      38.283 -36.159 -31.424  0.00  0.00    +0.023 A 
ATOM     18  C   UNL A   1      36.987 -37.897 -27.749  0.00  0.00    -0.010 C 
ATOM     19  C   UNL A   1      35.656 -37.387 -27.212  0.00  0.00    -0.047 C 
ATOM     20  C   UNL A   1      34.601 -37.468 -28.304  0.00  0.00    -0.049 C 
ATOM     21  C   UNL A   1      34.979 -36.576 -29.486  0.00  0.00    -0.024 C 
ENDBRANCH   6   8
ENDBRANCH   4   6
ENDBRANCH   1   2
BRANCH   1  22
ATOM     22  C   UNL A   1      32.916 -32.844 -29.859  0.00  0.00    +0.020 C 
BRANCH  22  25
ATOM     23  C   UNL A   1      31.985 -34.313 -28.116  0.00  0.00    +0.213 C 
ATOM     24  O   UNL A   1      30.855 -34.266 -28.590  0.00  0.00    -0.276 OA
ATOM     25  N   UNL A   1      33.081 -33.739 -28.731  0.00  0.00    -0.315 N 
ATOM     26  H   UNL A   1      33.986 -33.941 -28.398  0.00  0.00    +0.000 HD
BRANCH  23  27
ATOM     27  C   UNL A   1      32.328 -34.951 -26.785  0.00  0.00    +0.028 C 
BRANCH  27  28
ATOM     28  C   UNL A   1      31.322 -36.022 -26.368  0.00  0.00    -0.019 C 
BRANCH  28  31
ATOM     29  C   UNL A   1      33.276 -38.084 -23.822  0.00  0.00    +0.165 A 
ATOM     30  C   UNL A   1      32.610 -37.021 -24.443  0.00  0.00    -0.013 A 
ATOM     31  C   UNL A   1      32.012 -37.188 -25.698  0.00  0.00    -0.040 A 
ATOM     32  C   UNL A   1      32.108 -38.432 -26.329  0.00  0.00    -0.013 A 
ATOM     33  C   UNL A   1      32.823 -39.489 -25.741  0.00  0.00    +0.165 A 
ATOM     34  C   UNL A   1      33.399 -39.332 -24.469  0.00  0.00    +0.204 A 
BRANCH  29  36
ATOM     35  C   UNL A   1      33.006 -37.864 -21.483  0.00  0.00    +0.079 C 
ATOM     36  O   UNL A   1      33.888 -37.951 -22.596  0.00  0.00    -0.491 OA
ENDBRANCH  29  36
BRANCH  33  37
ATOM     37  O   UNL A   1      32.900 -40.689 -26.403  0.00  0.00    -0.491 OA
ATOM     38  C   UNL A   1      31.616 -41.226 -26.723  0.00  0.00    +0.079 C 
ENDBRANCH  33  37
BRANCH  34  39
ATOM     39  O   UNL A   1      34.115 -40.264 -23.760  0.00  0.00    -0.488 OA
ATOM     40  C   UNL A   1      33.432 -41.343 -23.144  0.00  0.00    +0.079 C 
ENDBRANCH  34  39
ENDBRANCH  28  31
ENDBRANCH  27  28
ENDBRANCH  23  27
ENDBRANCH  22  25
ENDBRANCH   1  22
TORSDOF 11
ENDMDL
MODEL 6
REMARK VINA RESULT:    -6.996      2.361      6.096
REMARK INTER + INTRA:         -14.473
REMARK INTER:                 -11.729
REMARK INTRA:                  -2.744
REMARK UNBOUND:                -2.978
REMARK  Name = cpd81.pdb
REMARK  14 active torsions:
REMARK  status: ('A' for Active; 'I' for Inactive)
REMARK    1  A    between atoms: C_1  and  O_2
REMARK    2  A    between atoms: O_2  and  C_3
REMARK    3  A    between atoms: C_5  and  C_6
REMARK    4  A    between atoms: C_6  and  C_7
REMARK    5  A    between atoms: C_7  and  C_8
REMARK    6  A    between atoms: N_10  and  C_11
REMARK    7  A    between atoms: C_11  and  C_12
REMARK    8  A    between atoms: C_12  and  C_13
REMARK    9  A    between atoms: N_15  and  N_16
REMARK   10  A    between atoms: N_16  and  C_17
REMARK   11  A    between atoms: C_32  and  O_33
REMARK   12  A    between atoms: O_33  and  C_34
REMARK   13  A    between atoms: C_35  and  O_36
REMARK   14  A    between atoms: O_36  and  C_37
REMARK                            x       y       z     vdW  Elec       q    Type
REMARK                         _______ _______ _______ _____ _____    ______ ____
ROOT
ATOM      1  C   UNL A   1      36.034 -40.969 -29.714  0.00  0.00    +0.041 C 
ENDROOT
BRANCH   1   2
ATOM      2  C   UNL A   1      36.322 -39.937 -28.655  0.00  0.00    +0.231 C 
ATOM      3  O   UNL A   1      35.470 -39.541 -27.861  0.00  0.00    -0.274 OA
ATOM      4  N   UNL A   1      37.597 -39.401 -28.735  0.00  0.00    -0.236 N 
ATOM      5  H   UNL A   1      38.354 -39.899 -29.122  0.00  0.00    +0.000 HD
BRANCH   4   6
ATOM      6  N   UNL A   1      37.738 -38.086 -28.223  0.00  0.00    -0.264 N 
ATOM      7  H   UNL A   1      37.736 -37.859 -27.264  0.00  0.00    +0.000 HD
BRANCH   6   8
ATOM      8  C   UNL A   1      37.882 -37.133 -29.276  0.00  0.00    +0.058 A 
ATOM      9  C   UNL A   1      36.843 -36.226 -29.569  0.00  0.00    -0.003 A 
ATOM     10  C   UNL A   1      37.055 -35.319 -30.609  0.00  0.00    +0.047 A 
ATOM     11  N   UNL A   1      38.220 -35.232 -31.293  0.00  0.00    -0.251 NA
ATOM     12  C   UNL A   1      39.214 -36.081 -31.000  0.00  0.00    +0.073 A 
ATOM     13  C   UNL A   1      40.398 -35.979 -31.721  0.00  0.00    -0.036 A 
ATOM     14  C   UNL A   1      41.476 -36.838 -31.501  0.00  0.00    -0.060 A 
ATOM     15  C   UNL A   1      41.371 -37.837 -30.545  0.00  0.00    -0.061 A 
ATOM     16  C   UNL A   1      40.193 -37.958 -29.812  0.00  0.00    -0.051 A 
ATOM     17  C   UNL A   1      39.103 -37.071 -30.008  0.00  0.00    +0.023 A 
ATOM     18  C   UNL A   1      36.003 -34.322 -31.024  0.00  0.00    -0.010 C 
ATOM     19  C   UNL A   1      34.599 -34.717 -30.581  0.00  0.00    -0.047 C 
ATOM     20  C   UNL A   1      34.612 -35.068 -29.102  0.00  0.00    -0.049 C 
ATOM     21  C   UNL A   1      35.520 -36.269 -28.839  0.00  0.00    -0.024 C 
ENDBRANCH   6   8
ENDBRANCH   4   6
ENDBRANCH   1   2
BRANCH   1  22
ATOM     22  C   UNL A   1      35.420 -40.246 -30.907  0.00  0.00    +0.020 C 
BRANCH  22  25
ATOM     23  C   UNL A   1      33.546 -38.771 -31.516  0.00  0.00    +0.213 C 
ATOM     24  O   UNL A   1      33.533 -39.162 -32.678  0.00  0.00    -0.276 OA
ATOM     25  N   UNL A   1      34.361 -39.324 -30.548  0.00  0.00    -0.315 N 
ATOM     26  H   UNL A   1      34.221 -39.088 -29.602  0.00  0.00    +0.000 HD
BRANCH  23  27
ATOM     27  C   UNL A   1      32.723 -37.611 -30.995  0.00  0.00    +0.028 C 
BRANCH  27  28
ATOM     28  C   UNL A   1      31.532 -38.063 -30.153  0.00  0.00    -0.019 C 
BRANCH  28  31
ATOM     29  C   UNL A   1      32.219 -38.244 -26.405  0.00  0.00    +0.165 A 
ATOM     30  C   UNL A   1      32.087 -38.601 -27.752  0.00  0.00    -0.013 A 
ATOM     31  C   UNL A   1      31.698 -37.654 -28.708  0.00  0.00    -0.040 A 
ATOM     32  C   UNL A   1      31.424 -36.348 -28.288  0.00  0.00    -0.013 A 
ATOM     33  C   UNL A   1      31.499 -35.993 -26.931  0.00  0.00    +0.165 A 
ATOM     34  C   UNL A   1      31.917 -36.934 -25.975  0.00  0.00    +0.204 A 
BRANCH  29  36
ATOM     35  C   UNL A   1      32.411 -40.519 -25.791  0.00  0.00    +0.079 C 
ATOM     36  O   UNL A   1      32.584 -39.152 -25.438  0.00  0.00    -0.491 OA
ENDBRANCH  29  36
BRANCH  33  37
ATOM     37  O   UNL A   1      31.210 -34.702 -26.566  0.00  0.00    -0.491 OA
ATOM     38  C   UNL A   1      31.611 -33.747 -27.549  0.00  0.00    +0.079 C 
ENDBRANCH  33  37
BRANCH  34  39
ATOM     39  O   UNL A   1      32.049 -36.742 -24.623  0.00  0.00    -0.488 OA
ATOM     40  C   UNL A   1      33.217 -36.116 -24.120  0.00  0.00    +0.079 C 
ENDBRANCH  34  39
ENDBRANCH  28  31
ENDBRANCH  27  28
ENDBRANCH  23  27
ENDBRANCH  22  25
ENDBRANCH   1  22
TORSDOF 11
ENDMDL
MODEL 7
REMARK VINA RESULT:    -6.952     17.138     20.735
REMARK INTER + INTRA:         -14.401
REMARK INTER:                 -12.683
REMARK INTRA:                  -1.717
REMARK UNBOUND:                -2.978
REMARK  Name = cpd81.pdb
REMARK  14 active torsions:
REMARK  status: ('A' for Active; 'I' for Inactive)
REMARK    1  A    between atoms: C_1  and  O_2
REMARK    2  A    between atoms: O_2  and  C_3
REMARK    3  A    between atoms: C_5  and  C_6
REMARK    4  A    between atoms: C_6  and  C_7
REMARK    5  A    between atoms: C_7  and  C_8
REMARK    6  A    between atoms: N_10  and  C_11
REMARK    7  A    between atoms: C_11  and  C_12
REMARK    8  A    between atoms: C_12  and  C_13
REMARK    9  A    between atoms: N_15  and  N_16
REMARK   10  A    between atoms: N_16  and  C_17
REMARK   11  A    between atoms: C_32  and  O_33
REMARK   12  A    between atoms: O_33  and  C_34
REMARK   13  A    between atoms: C_35  and  O_36
REMARK   14  A    between atoms: O_36  and  C_37
REMARK                            x       y       z     vdW  Elec       q    Type
REMARK                         _______ _______ _______ _____ _____    ______ ____
ROOT
ATOM      1  C   UNL A   1      46.270 -19.680 -34.996  0.00  0.00    +0.041 C 
ENDROOT
BRANCH   1   2
ATOM      2  C   UNL A   1      47.358 -19.568 -36.033  0.00  0.00    +0.231 C 
ATOM      3  O   UNL A   1      48.325 -18.819 -35.906  0.00  0.00    -0.274 OA
ATOM      4  N   UNL A   1      47.105 -20.300 -37.182  0.00  0.00    -0.236 N 
ATOM      5  H   UNL A   1      46.543 -21.109 -37.178  0.00  0.00    +0.000 HD
BRANCH   4   6
ATOM      6  N   UNL A   1      47.712 -19.804 -38.364  0.00  0.00    -0.264 N 
ATOM      7  H   UNL A   1      48.624 -19.437 -38.410  0.00  0.00    +0.000 HD
BRANCH   6   8
ATOM      8  C   UNL A   1      46.827 -19.906 -39.480  0.00  0.00    +0.058 A 
ATOM      9  C   UNL A   1      46.805 -21.071 -40.274  0.00  0.00    -0.003 A 
ATOM     10  C   UNL A   1      45.911 -21.103 -41.346  0.00  0.00    +0.047 A 
ATOM     11  N   UNL A   1      45.033 -20.107 -41.610  0.00  0.00    -0.251 NA
ATOM     12  C   UNL A   1      45.040 -19.009 -40.843  0.00  0.00    +0.073 A 
ATOM     13  C   UNL A   1      44.136 -17.996 -41.139  0.00  0.00    -0.036 A 
ATOM     14  C   UNL A   1      44.089 -16.808 -40.409  0.00  0.00    -0.060 A 
ATOM     15  C   UNL A   1      44.977 -16.613 -39.361  0.00  0.00    -0.061 A 
ATOM     16  C   UNL A   1      45.892 -17.615 -39.048  0.00  0.00    -0.051 A 
ATOM     17  C   UNL A   1      45.927 -18.839 -39.765  0.00  0.00    +0.023 A 
ATOM     18  C   UNL A   1      45.823 -22.288 -42.274  0.00  0.00    -0.010 C 
ATOM     19  C   UNL A   1      47.072 -23.160 -42.249  0.00  0.00    -0.047 C 
ATOM     20  C   UNL A   1      47.432 -23.492 -40.810  0.00  0.00    -0.049 C 
ATOM     21  C   UNL A   1      47.758 -22.219 -40.028  0.00  0.00    -0.024 C 
ENDBRANCH   6   8
ENDBRANCH   4   6
ENDBRANCH   1   2
BRANCH   1  22
ATOM     22  C   UNL A   1      46.083 -18.300 -34.375  0.00  0.00    +0.020 C 
BRANCH  22  25
ATOM     23  C   UNL A   1      44.220 -18.027 -32.789  0.00  0.00    +0.213 C 
ATOM     24  O   UNL A   1      44.950 -18.152 -31.812  0.00  0.00    -0.276 OA
ATOM     25  N   UNL A   1      44.701 -17.975 -34.083  0.00  0.00    -0.315 N 
ATOM     26  H   UNL A   1      44.097 -17.714 -34.816  0.00  0.00    +0.000 HD
BRANCH  23  27
ATOM     27  C   UNL A   1      42.708 -17.967 -32.725  0.00  0.00    +0.028 C 
BRANCH  27  28
ATOM     28  C   UNL A   1      42.063 -17.838 -34.103  0.00  0.00    -0.019 C 
BRANCH  28  31
ATOM     29  C   UNL A   1      40.815 -21.440 -34.211  0.00  0.00    +0.165 A 
ATOM     30  C   UNL A   1      41.199 -20.179 -33.741  0.00  0.00    -0.013 A 
ATOM     31  C   UNL A   1      41.623 -19.184 -34.629  0.00  0.00    -0.040 A 
ATOM     32  C   UNL A   1      41.673 -19.479 -35.996  0.00  0.00    -0.013 A 
ATOM     33  C   UNL A   1      41.343 -20.759 -36.473  0.00  0.00    +0.165 A 
ATOM     34  C   UNL A   1      40.890 -21.749 -35.585  0.00  0.00    +0.204 A 
BRANCH  29  36
ATOM     35  C   UNL A   1      41.251 -22.673 -32.240  0.00  0.00    +0.079 C 
ATOM     36  O   UNL A   1      40.408 -22.446 -33.364  0.00  0.00    -0.491 OA
ENDBRANCH  29  36
BRANCH  33  37
ATOM     37  O   UNL A   1      41.418 -21.004 -37.821  0.00  0.00    -0.491 OA
ATOM     38  C   UNL A   1      42.758 -21.196 -38.274  0.00  0.00    +0.079 C 
ENDBRANCH  33  37
BRANCH  34  39
ATOM     39  O   UNL A   1      40.524 -23.036 -35.893  0.00  0.00    -0.488 OA
ATOM     40  C   UNL A   1      39.216 -23.288 -36.379  0.00  0.00    +0.079 C 
ENDBRANCH  34  39
ENDBRANCH  28  31
ENDBRANCH  27  28
ENDBRANCH  23  27
ENDBRANCH  22  25
ENDBRANCH   1  22
TORSDOF 11
ENDMDL
MODEL 8
REMARK VINA RESULT:    -6.770      2.857      6.174
REMARK INTER + INTRA:         -14.101
REMARK INTER:                 -11.443
REMARK INTRA:                  -2.658
REMARK UNBOUND:                -2.978
REMARK  Name = cpd81.pdb
REMARK  14 active torsions:
REMARK  status: ('A' for Active; 'I' for Inactive)
REMARK    1  A    between atoms: C_1  and  O_2
REMARK    2  A    between atoms: O_2  and  C_3
REMARK    3  A    between atoms: C_5  and  C_6
REMARK    4  A    between atoms: C_6  and  C_7
REMARK    5  A    between atoms: C_7  and  C_8
REMARK    6  A    between atoms: N_10  and  C_11
REMARK    7  A    between atoms: C_11  and  C_12
REMARK    8  A    between atoms: C_12  and  C_13
REMARK    9  A    between atoms: N_15  and  N_16
REMARK   10  A    between atoms: N_16  and  C_17
REMARK   11  A    between atoms: C_32  and  O_33
REMARK   12  A    between atoms: O_33  and  C_34
REMARK   13  A    between atoms: C_35  and  O_36
REMARK   14  A    between atoms: O_36  and  C_37
REMARK                            x       y       z     vdW  Elec       q    Type
REMARK                         _______ _______ _______ _____ _____    ______ ____
ROOT
ATOM      1  C   UNL A   1      36.103 -40.985 -29.728  0.00  0.00    +0.041 C 
ENDROOT
BRANCH   1   2
ATOM      2  C   UNL A   1      36.369 -39.959 -28.658  0.00  0.00    +0.231 C 
ATOM      3  O   UNL A   1      35.500 -39.562 -27.883  0.00  0.00    -0.274 OA
ATOM      4  N   UNL A   1      37.649 -39.429 -28.704  0.00  0.00    -0.236 N 
ATOM      5  H   UNL A   1      38.413 -39.929 -29.074  0.00  0.00    +0.000 HD
BRANCH   4   6
ATOM      6  N   UNL A   1      37.783 -38.117 -28.181  0.00  0.00    -0.264 N 
ATOM      7  H   UNL A   1      37.804 -37.900 -27.221  0.00  0.00    +0.000 HD
BRANCH   6   8
ATOM      8  C   UNL A   1      37.884 -37.152 -29.228  0.00  0.00    +0.058 A 
ATOM      9  C   UNL A   1      36.813 -36.277 -29.502  0.00  0.00    -0.003 A 
ATOM     10  C   UNL A   1      36.983 -35.356 -30.537  0.00  0.00    +0.047 A 
ATOM     11  N   UNL A   1      38.138 -35.225 -31.232  0.00  0.00    -0.251 NA
ATOM     12  C   UNL A   1      39.162 -36.043 -30.958  0.00  0.00    +0.073 A 
ATOM     13  C   UNL A   1      40.334 -35.896 -31.691  0.00  0.00    -0.036 A 
ATOM     14  C   UNL A   1      41.442 -36.720 -31.489  0.00  0.00    -0.060 A 
ATOM     15  C   UNL A   1      41.380 -37.730 -30.541  0.00  0.00    -0.061 A 
ATOM     16  C   UNL A   1      40.215 -37.896 -29.795  0.00  0.00    -0.051 A 
ATOM     17  C   UNL A   1      39.094 -37.044 -29.972  0.00  0.00    +0.023 A 
ATOM     18  C   UNL A   1      35.894 -34.390 -30.932  0.00  0.00    -0.010 C 
ATOM     19  C   UNL A   1      34.509 -34.835 -30.478  0.00  0.00    -0.047 C 
ATOM     20  C   UNL A   1      34.550 -35.197 -29.002  0.00  0.00    -0.049 C 
ATOM     21  C   UNL A   1      35.500 -36.370 -28.759  0.00  0.00    -0.024 C 
ENDBRANCH   6   8
ENDBRANCH   4   6
ENDBRANCH   1   2
BRANCH   1  22
ATOM     22  C   UNL A   1      35.465 -40.262 -30.909  0.00  0.00    +0.020 C 
BRANCH  22  25
ATOM     23  C   UNL A   1      33.503 -38.781 -31.054  0.00  0.00    +0.213 C 
ATOM     24  O   UNL A   1      34.124 -37.913 -31.658  0.00  0.00    -0.276 OA
ATOM     25  N   UNL A   1      34.047 -40.013 -30.743  0.00  0.00    -0.315 N 
ATOM     26  H   UNL A   1      33.463 -40.730 -30.404  0.00  0.00    +0.000 HD
BRANCH  23  27
ATOM     27  C   UNL A   1      32.094 -38.613 -30.524  0.00  0.00    +0.028 C 
BRANCH  27  28
ATOM     28  C   UNL A   1      32.000 -37.560 -29.422  0.00  0.00    -0.019 C 
BRANCH  28  31
ATOM     29  C   UNL A   1      32.086 -37.972 -25.631  0.00  0.00    +0.165 A 
ATOM     30  C   UNL A   1      32.034 -37.396 -26.906  0.00  0.00    -0.013 A 
ATOM     31  C   UNL A   1      32.026 -38.198 -28.053  0.00  0.00    -0.040 A 
ATOM     32  C   UNL A   1      32.091 -39.588 -27.902  0.00  0.00    -0.013 A 
ATOM     33  C   UNL A   1      32.201 -40.174 -26.630  0.00  0.00    +0.165 A 
ATOM     34  C   UNL A   1      32.179 -39.372 -25.477  0.00  0.00    +0.204 A 
BRANCH  29  36
ATOM     35  C   UNL A   1      32.586 -35.882 -24.644  0.00  0.00    +0.079 C 
ATOM     36  O   UNL A   1      32.110 -37.213 -24.483  0.00  0.00    -0.491 OA
ENDBRANCH  29  36
BRANCH  33  37
ATOM     37  O   UNL A   1      32.272 -41.541 -26.534  0.00  0.00    -0.491 OA
ATOM     38  C   UNL A   1      33.131 -42.120 -27.516  0.00  0.00    +0.079 C 
ENDBRANCH  33  37
BRANCH  34  39
ATOM     39  O   UNL A   1      32.267 -39.789 -24.173  0.00  0.00    -0.488 OA
ATOM     40  C   UNL A   1      33.539 -40.085 -23.622  0.00  0.00    +0.079 C 
ENDBRANCH  34  39
ENDBRANCH  28  31
ENDBRANCH  27  28
ENDBRANCH  23  27
ENDBRANCH  22  25
ENDBRANCH   1  22
TORSDOF 11
ENDMDL
MODEL 9
REMARK VINA RESULT:    -6.385     15.643     19.357
REMARK INTER + INTRA:         -13.469
REMARK INTER:                 -11.585
REMARK INTRA:                  -1.884
REMARK UNBOUND:                -2.978
REMARK  Name = cpd81.pdb
REMARK  14 active torsions:
REMARK  status: ('A' for Active; 'I' for Inactive)
REMARK    1  A    between atoms: C_1  and  O_2
REMARK    2  A    between atoms: O_2  and  C_3
REMARK    3  A    between atoms: C_5  and  C_6
REMARK    4  A    between atoms: C_6  and  C_7
REMARK    5  A    between atoms: C_7  and  C_8
REMARK    6  A    between atoms: N_10  and  C_11
REMARK    7  A    between atoms: C_11  and  C_12
REMARK    8  A    between atoms: C_12  and  C_13
REMARK    9  A    between atoms: N_15  and  N_16
REMARK   10  A    between atoms: N_16  and  C_17
REMARK   11  A    between atoms: C_32  and  O_33
REMARK   12  A    between atoms: O_33  and  C_34
REMARK   13  A    between atoms: C_35  and  O_36
REMARK   14  A    between atoms: O_36  and  C_37
REMARK                            x       y       z     vdW  Elec       q    Type
REMARK                         _______ _______ _______ _____ _____    ______ ____
ROOT
ATOM      1  C   UNL A   1      39.726 -21.737 -38.593  0.00  0.00    +0.041 C 
ENDROOT
BRANCH   1   2
ATOM      2  C   UNL A   1      40.908 -20.822 -38.406  0.00  0.00    +0.231 C 
ATOM      3  O   UNL A   1      40.830 -19.746 -37.814  0.00  0.00    -0.274 OA
ATOM      4  N   UNL A   1      42.052 -21.254 -39.057  0.00  0.00    -0.236 N 
ATOM      5  H   UNL A   1      42.222 -22.205 -39.247  0.00  0.00    +0.000 HD
BRANCH   4   6
ATOM      6  N   UNL A   1      42.962 -20.232 -39.430  0.00  0.00    -0.264 N 
ATOM      7  H   UNL A   1      42.702 -19.384 -39.859  0.00  0.00    +0.000 HD
BRANCH   6   8
ATOM      8  C   UNL A   1      44.304 -20.591 -39.104  0.00  0.00    +0.058 A 
ATOM      9  C   UNL A   1      45.125 -21.236 -40.052  0.00  0.00    -0.003 A 
ATOM     10  C   UNL A   1      46.428 -21.554 -39.665  0.00  0.00    +0.047 A 
ATOM     11  N   UNL A   1      46.950 -21.214 -38.463  0.00  0.00    -0.251 NA
ATOM     12  C   UNL A   1      46.176 -20.583 -37.570  0.00  0.00    +0.073 A 
ATOM     13  C   UNL A   1      46.730 -20.253 -36.339  0.00  0.00    -0.036 A 
ATOM     14  C   UNL A   1      45.991 -19.617 -35.340  0.00  0.00    -0.060 A 
ATOM     15  C   UNL A   1      44.657 -19.311 -35.566  0.00  0.00    -0.061 A 
ATOM     16  C   UNL A   1      44.081 -19.634 -36.792  0.00  0.00    -0.051 A 
ATOM     17  C   UNL A   1      44.832 -20.254 -37.824  0.00  0.00    +0.023 A 
ATOM     18  C   UNL A   1      47.382 -22.267 -40.590  0.00  0.00    -0.010 C 
ATOM     19  C   UNL A   1      46.676 -23.018 -41.712  0.00  0.00    -0.047 C 
ATOM     20  C   UNL A   1      45.681 -22.093 -42.396  0.00  0.00    -0.049 C 
ATOM     21  C   UNL A   1      44.603 -21.638 -41.413  0.00  0.00    -0.024 C 
ENDBRANCH   6   8
ENDBRANCH   4   6
ENDBRANCH   1   2
BRANCH   1  22
ATOM     22  C   UNL A   1      39.033 -21.876 -37.242  0.00  0.00    +0.020 C 
BRANCH  22  25
ATOM     23  C   UNL A   1      39.638 -23.003 -35.140  0.00  0.00    +0.213 C 
ATOM     24  O   UNL A   1      38.702 -23.791 -35.219  0.00  0.00    -0.276 OA
ATOM     25  N   UNL A   1      39.945 -22.101 -36.139  0.00  0.00    -0.315 N 
ATOM     26  H   UNL A   1      40.795 -21.605 -36.102  0.00  0.00    +0.000 HD
BRANCH  23  27
ATOM     27  C   UNL A   1      40.544 -22.870 -33.933  0.00  0.00    +0.028 C 
BRANCH  27  28
ATOM     28  C   UNL A   1      39.782 -22.511 -32.659  0.00  0.00    -0.019 C 
BRANCH  28  31
ATOM     29  C   UNL A   1      40.166 -18.725 -32.394  0.00  0.00    +0.165 A 
ATOM     30  C   UNL A   1      40.465 -20.092 -32.460  0.00  0.00    -0.013 A 
ATOM     31  C   UNL A   1      39.446 -21.039 -32.619  0.00  0.00    -0.040 A 
ATOM     32  C   UNL A   1      38.121 -20.596 -32.694  0.00  0.00    -0.013 A 
ATOM     33  C   UNL A   1      37.806 -19.232 -32.572  0.00  0.00    +0.165 A 
ATOM     34  C   UNL A   1      38.829 -18.278 -32.441  0.00  0.00    +0.204 A 
BRANCH  29  36
ATOM     35  C   UNL A   1      42.056 -17.632 -33.303  0.00  0.00    +0.079 C 
ATOM     36  O   UNL A   1      41.141 -17.769 -32.222  0.00  0.00    -0.491 OA
ENDBRANCH  29  36
BRANCH  33  37
ATOM     37  O   UNL A   1      36.490 -18.846 -32.640  0.00  0.00    -0.491 OA
ATOM     38  C   UNL A   1      35.969 -18.893 -33.969  0.00  0.00    +0.079 C 
ENDBRANCH  33  37
BRANCH  34  39
ATOM     39  O   UNL A   1      38.687 -16.918 -32.321  0.00  0.00    -0.488 OA
ATOM     40  C   UNL A   1      38.457 -16.139 -33.483  0.00  0.00    +0.079 C 
ENDBRANCH  34  39
ENDBRANCH  28  31
ENDBRANCH  27  28
ENDBRANCH  23  27
ENDBRANCH  22  25
ENDBRANCH   1  22
TORSDOF 11
ENDMDL
MODEL 10
REMARK VINA RESULT:    -6.342     15.491     19.216
REMARK INTER + INTRA:         -13.399
REMARK INTER:                 -10.835
REMARK INTRA:                  -2.564
REMARK UNBOUND:                -2.978
REMARK  Name = cpd81.pdb
REMARK  14 active torsions:
REMARK  status: ('A' for Active; 'I' for Inactive)
REMARK    1  A    between atoms: C_1  and  O_2
REMARK    2  A    between atoms: O_2  and  C_3
REMARK    3  A    between atoms: C_5  and  C_6
REMARK    4  A    between atoms: C_6  and  C_7
REMARK    5  A    between atoms: C_7  and  C_8
REMARK    6  A    between atoms: N_10  and  C_11
REMARK    7  A    between atoms: C_11  and  C_12
REMARK    8  A    between atoms: C_12  and  C_13
REMARK    9  A    between atoms: N_15  and  N_16
REMARK   10  A    between atoms: N_16  and  C_17
REMARK   11  A    between atoms: C_32  and  O_33
REMARK   12  A    between atoms: O_33  and  C_34
REMARK   13  A    between atoms: C_35  and  O_36
REMARK   14  A    between atoms: O_36  and  C_37
REMARK                            x       y       z     vdW  Elec       q    Type
REMARK                         _______ _______ _______ _____ _____    ______ ____
ROOT
ATOM      1  C   UNL A   1      39.864 -18.618 -37.753  0.00  0.00    +0.041 C 
ENDROOT
BRANCH   1   2
ATOM      2  C   UNL A   1      40.427 -20.008 -37.602  0.00  0.00    +0.231 C 
ATOM      3  O   UNL A   1      40.251 -20.692 -36.595  0.00  0.00    -0.274 OA
ATOM      4  N   UNL A   1      41.246 -20.391 -38.651  0.00  0.00    -0.236 N 
ATOM      5  H   UNL A   1      41.146 -20.022 -39.559  0.00  0.00    +0.000 HD
BRANCH   4   6
ATOM      6  N   UNL A   1      42.239 -21.351 -38.329  0.00  0.00    -0.264 N 
ATOM      7  H   UNL A   1      42.050 -22.278 -38.056  0.00  0.00    +0.000 HD
BRANCH   6   8
ATOM      8  C   UNL A   1      43.550 -20.798 -38.450  0.00  0.00    +0.058 A 
ATOM      9  C   UNL A   1      44.278 -20.422 -37.302  0.00  0.00    -0.003 A 
ATOM     10  C   UNL A   1      45.556 -19.893 -37.495  0.00  0.00    +0.047 A 
ATOM     11  N   UNL A   1      46.141 -19.790 -38.712  0.00  0.00    -0.251 NA
ATOM     12  C   UNL A   1      45.456 -20.167 -39.800  0.00  0.00    +0.073 A 
ATOM     13  C   UNL A   1      46.073 -20.043 -41.039  0.00  0.00    -0.036 A 
ATOM     14  C   UNL A   1      45.426 -20.388 -42.227  0.00  0.00    -0.060 A 
ATOM     15  C   UNL A   1      44.122 -20.856 -42.184  0.00  0.00    -0.061 A 
ATOM     16  C   UNL A   1      43.484 -20.987 -40.953  0.00  0.00    -0.051 A 
ATOM     17  C   UNL A   1      44.143 -20.668 -39.738  0.00  0.00    +0.023 A 
ATOM     18  C   UNL A   1      46.411 -19.435 -36.341  0.00  0.00    -0.010 C 
ATOM     19  C   UNL A   1      45.606 -19.139 -35.082  0.00  0.00    -0.047 C 
ATOM     20  C   UNL A   1      44.685 -20.310 -34.780  0.00  0.00    -0.049 C 
ATOM     21  C   UNL A   1      43.683 -20.517 -35.916  0.00  0.00    -0.024 C 
ENDBRANCH   6   8
ENDBRANCH   4   6
ENDBRANCH   1   2
BRANCH   1  22
ATOM     22  C   UNL A   1      40.730 -17.679 -36.921  0.00  0.00    +0.020 C 
BRANCH  22  25
ATOM     23  C   UNL A   1      41.536 -17.635 -34.595  0.00  0.00    +0.213 C 
ATOM     24  O   UNL A   1      42.645 -17.227 -34.920  0.00  0.00    -0.276 OA
ATOM     25  N   UNL A   1      40.497 -17.781 -35.494  0.00  0.00    -0.315 N 
ATOM     26  H   UNL A   1      39.587 -17.955 -35.161  0.00  0.00    +0.000 HD
BRANCH  23  27
ATOM     27  C   UNL A   1      41.166 -18.083 -33.196  0.00  0.00    +0.028 C 
BRANCH  27  28
ATOM     28  C   UNL A   1      41.851 -19.387 -32.792  0.00  0.00    -0.019 C 
BRANCH  28  31
ATOM     29  C   UNL A   1      38.613 -21.385 -33.058  0.00  0.00    +0.165 A 
ATOM     30  C   UNL A   1      39.521 -20.319 -33.033  0.00  0.00    -0.013 A 
ATOM     31  C   UNL A   1      40.889 -20.550 -32.846  0.00  0.00    -0.040 A 
ATOM     32  C   UNL A   1      41.331 -21.865 -32.665  0.00  0.00    -0.013 A 
ATOM     33  C   UNL A   1      40.423 -22.936 -32.631  0.00  0.00    +0.165 A 
ATOM     34  C   UNL A   1      39.053 -22.709 -32.848  0.00  0.00    +0.204 A 
BRANCH  29  36
ATOM     35  C   UNL A   1      36.818 -19.846 -33.102  0.00  0.00    +0.079 C 
ATOM     36  O   UNL A   1      37.260 -21.193 -33.224  0.00  0.00    -0.491 OA
ENDBRANCH  29  36
BRANCH  33  37
ATOM     37  O   UNL A   1      40.902 -24.208 -32.440  0.00  0.00    -0.491 OA
ATOM     38  C   UNL A   1      41.965 -24.259 -31.488  0.00  0.00    +0.079 C 
ENDBRANCH  33  37
BRANCH  34  39
ATOM     39  O   UNL A   1      38.047 -23.643 -32.856  0.00  0.00    -0.488 OA
ATOM     40  C   UNL A   1      37.908 -24.505 -33.972  0.00  0.00    +0.079 C 
ENDBRANCH  34  39
ENDBRANCH  28  31
ENDBRANCH  27  28
ENDBRANCH  23  27
ENDBRANCH  22  25
ENDBRANCH   1  22
TORSDOF 11
ENDMDL
MODEL 11
REMARK VINA RESULT:    -6.284     15.826     19.824
REMARK INTER + INTRA:         -13.303
REMARK INTER:                 -10.987
REMARK INTRA:                  -2.316
REMARK UNBOUND:                -2.978
REMARK  Name = cpd81.pdb
REMARK  14 active torsions:
REMARK  status: ('A' for Active; 'I' for Inactive)
REMARK    1  A    between atoms: C_1  and  O_2
REMARK    2  A    between atoms: O_2  and  C_3
REMARK    3  A    between atoms: C_5  and  C_6
REMARK    4  A    between atoms: C_6  and  C_7
REMARK    5  A    between atoms: C_7  and  C_8
REMARK    6  A    between atoms: N_10  and  C_11
REMARK    7  A    between atoms: C_11  and  C_12
REMARK    8  A    between atoms: C_12  and  C_13
REMARK    9  A    between atoms: N_15  and  N_16
REMARK   10  A    between atoms: N_16  and  C_17
REMARK   11  A    between atoms: C_32  and  O_33
REMARK   12  A    between atoms: O_33  and  C_34
REMARK   13  A    between atoms: C_35  and  O_36
REMARK   14  A    between atoms: O_36  and  C_37
REMARK                            x       y       z     vdW  Elec       q    Type
REMARK                         _______ _______ _______ _____ _____    ______ ____
ROOT
ATOM      1  C   UNL A   1      39.680 -21.795 -37.221  0.00  0.00    +0.041 C 
ENDROOT
BRANCH   1   2
ATOM      2  C   UNL A   1      40.819 -20.816 -37.103  0.00  0.00    +0.231 C 
ATOM      3  O   UNL A   1      40.761 -19.807 -36.402  0.00  0.00    -0.274 OA
ATOM      4  N   UNL A   1      41.885 -21.102 -37.942  0.00  0.00    -0.236 N 
ATOM      5  H   UNL A   1      42.083 -22.017 -38.247  0.00  0.00    +0.000 HD
BRANCH   4   6
ATOM      6  N   UNL A   1      42.670 -19.987 -38.330  0.00  0.00    -0.264 N 
ATOM      7  H   UNL A   1      42.302 -19.135 -38.660  0.00  0.00    +0.000 HD
BRANCH   6   8
ATOM      8  C   UNL A   1      44.063 -20.259 -38.179  0.00  0.00    +0.058 A 
ATOM      9  C   UNL A   1      44.724 -19.966 -36.968  0.00  0.00    -0.003 A 
ATOM     10  C   UNL A   1      46.086 -20.263 -36.890  0.00  0.00    +0.047 A 
ATOM     11  N   UNL A   1      46.771 -20.871 -37.887  0.00  0.00    -0.251 NA
ATOM     12  C   UNL A   1      46.138 -21.167 -39.029  0.00  0.00    +0.073 A 
ATOM     13  C   UNL A   1      46.865 -21.783 -40.042  0.00  0.00    -0.036 A 
ATOM     14  C   UNL A   1      46.293 -22.105 -41.274  0.00  0.00    -0.060 A 
ATOM     15  C   UNL A   1      44.963 -21.794 -41.513  0.00  0.00    -0.061 A 
ATOM     16  C   UNL A   1      44.216 -21.176 -40.512  0.00  0.00    -0.051 A 
ATOM     17  C   UNL A   1      44.780 -20.872 -39.246  0.00  0.00    +0.023 A 
ATOM     18  C   UNL A   1      46.896 -19.968 -35.653  0.00  0.00    -0.010 C 
ATOM     19  C   UNL A   1      46.255 -18.916 -34.757  0.00  0.00    -0.047 C 
ATOM     20  C   UNL A   1      44.800 -19.279 -34.507  0.00  0.00    -0.049 C 
ATOM     21  C   UNL A   1      44.013 -19.292 -35.817  0.00  0.00    -0.024 C 
ENDBRANCH   6   8
ENDBRANCH   4   6
ENDBRANCH   1   2
BRANCH   1  22
ATOM     22  C   UNL A   1      40.038 -23.019 -36.386  0.00  0.00    +0.020 C 
BRANCH  22  25
ATOM     23  C   UNL A   1      39.922 -23.164 -33.931  0.00  0.00    +0.213 C 
ATOM     24  O   UNL A   1      39.039 -24.014 -33.959  0.00  0.00    -0.276 OA
ATOM     25  N   UNL A   1      40.551 -22.698 -35.069  0.00  0.00    -0.315 N 
ATOM     26  H   UNL A   1      41.358 -22.140 -34.985  0.00  0.00    +0.000 HD
BRANCH  23  27
ATOM     27  C   UNL A   1      40.406 -22.475 -32.672  0.00  0.00    +0.028 C 
BRANCH  27  28
ATOM     28  C   UNL A   1      41.413 -21.363 -32.957  0.00  0.00    -0.019 C 
BRANCH  28  31
ATOM     29  C   UNL A   1      41.010 -17.591 -32.557  0.00  0.00    +0.165 A 
ATOM     30  C   UNL A   1      41.583 -18.858 -32.721  0.00  0.00    -0.013 A 
ATOM     31  C   UNL A   1      40.778 -20.000 -32.811  0.00  0.00    -0.040 A 
ATOM     32  C   UNL A   1      39.390 -19.854 -32.715  0.00  0.00    -0.013 A 
ATOM     33  C   UNL A   1      38.808 -18.595 -32.494  0.00  0.00    +0.165 A 
ATOM     34  C   UNL A   1      39.612 -17.444 -32.433  0.00  0.00    +0.204 A 
BRANCH  29  36
ATOM     35  C   UNL A   1      42.655 -16.204 -33.539  0.00  0.00    +0.079 C 
ATOM     36  O   UNL A   1      41.772 -16.450 -32.450  0.00  0.00    -0.491 OA
ENDBRANCH  29  36
BRANCH  33  37
ATOM     37  O   UNL A   1      37.442 -18.502 -32.396  0.00  0.00    -0.491 OA
ATOM     38  C   UNL A   1      36.802 -18.413 -33.668  0.00  0.00    +0.079 C 
ENDBRANCH  33  37
BRANCH  34  39
ATOM     39  O   UNL A   1      39.199 -16.151 -32.233  0.00  0.00    -0.488 OA
ATOM     40  C   UNL A   1      38.837 -15.730 -30.929  0.00  0.00    +0.079 C 
ENDBRANCH  34  39
ENDBRANCH  28  31
ENDBRANCH  27  28
ENDBRANCH  23  27
ENDBRANCH  22  25
ENDBRANCH   1  22
TORSDOF 11
ENDMDL
MODEL 12
REMARK VINA RESULT:    -6.195     16.960     20.867
REMARK INTER + INTRA:         -13.157
REMARK INTER:                 -11.321
REMARK INTRA:                  -1.836
REMARK UNBOUND:                -2.978
REMARK  Name = cpd81.pdb
REMARK  14 active torsions:
REMARK  status: ('A' for Active; 'I' for Inactive)
REMARK    1  A    between atoms: C_1  and  O_2
REMARK    2  A    between atoms: O_2  and  C_3
REMARK    3  A    between atoms: C_5  and  C_6
REMARK    4  A    between atoms: C_6  and  C_7
REMARK    5  A    between atoms: C_7  and  C_8
REMARK    6  A    between atoms: N_10  and  C_11
REMARK    7  A    between atoms: C_11  and  C_12
REMARK    8  A    between atoms: C_12  and  C_13
REMARK    9  A    between atoms: N_15  and  N_16
REMARK   10  A    between atoms: N_16  and  C_17
REMARK   11  A    between atoms: C_32  and  O_33
REMARK   12  A    between atoms: O_33  and  C_34
REMARK   13  A    between atoms: C_35  and  O_36
REMARK   14  A    between atoms: O_36  and  C_37
REMARK                            x       y       z     vdW  Elec       q    Type
REMARK                         _______ _______ _______ _____ _____    ______ ____
ROOT
ATOM      1  C   UNL A   1      44.264 -18.678 -33.597  0.00  0.00    +0.041 C 
ENDROOT
BRANCH   1   2
ATOM      2  C   UNL A   1      43.494 -19.151 -34.804  0.00  0.00    +0.231 C 
ATOM      3  O   UNL A   1      44.004 -19.264 -35.917  0.00  0.00    -0.274 OA
ATOM      4  N   UNL A   1      42.142 -19.335 -34.561  0.00  0.00    -0.236 N 
ATOM      5  H   UNL A   1      41.793 -19.555 -33.667  0.00  0.00    +0.000 HD
BRANCH   4   6
ATOM      6  N   UNL A   1      41.296 -19.184 -35.689  0.00  0.00    -0.264 N 
ATOM      7  H   UNL A   1      41.046 -18.318 -36.086  0.00  0.00    +0.000 HD
BRANCH   6   8
ATOM      8  C   UNL A   1      40.852 -20.451 -36.175  0.00  0.00    +0.058 A 
ATOM      9  C   UNL A   1      41.283 -20.929 -37.429  0.00  0.00    -0.003 A 
ATOM     10  C   UNL A   1      40.813 -22.178 -37.839  0.00  0.00    +0.047 A 
ATOM     11  N   UNL A   1      40.029 -22.966 -37.065  0.00  0.00    -0.251 NA
ATOM     12  C   UNL A   1      39.637 -22.521 -35.865  0.00  0.00    +0.073 A 
ATOM     13  C   UNL A   1      38.825 -23.343 -35.093  0.00  0.00    -0.036 A 
ATOM     14  C   UNL A   1      38.350 -22.950 -33.841  0.00  0.00    -0.060 A 
ATOM     15  C   UNL A   1      38.679 -21.698 -33.346  0.00  0.00    -0.061 A 
ATOM     16  C   UNL A   1      39.491 -20.857 -34.104  0.00  0.00    -0.051 A 
ATOM     17  C   UNL A   1      40.004 -21.258 -35.364  0.00  0.00    +0.023 A 
ATOM     18  C   UNL A   1      41.189 -22.774 -39.172  0.00  0.00    -0.010 C 
ATOM     19  C   UNL A   1      41.669 -21.733 -40.176  0.00  0.00    -0.047 C 
ATOM     20  C   UNL A   1      42.735 -20.860 -39.533  0.00  0.00    -0.049 C 
ATOM     21  C   UNL A   1      42.162 -20.099 -38.338  0.00  0.00    -0.024 C 
ENDBRANCH   6   8
ENDBRANCH   4   6
ENDBRANCH   1   2
BRANCH   1  22
ATOM     22  C   UNL A   1      45.067 -17.452 -34.016  0.00  0.00    +0.020 C 
BRANCH  22  25
ATOM     23  C   UNL A   1      46.394 -16.992 -36.037  0.00  0.00    +0.213 C 
ATOM     24  O   UNL A   1      45.820 -15.929 -36.249  0.00  0.00    -0.276 OA
ATOM     25  N   UNL A   1      46.170 -17.753 -34.907  0.00  0.00    -0.315 N 
ATOM     26  H   UNL A   1      46.767 -18.509 -34.704  0.00  0.00    +0.000 HD
BRANCH  23  27
ATOM     27  C   UNL A   1      47.376 -17.639 -36.993  0.00  0.00    +0.028 C 
BRANCH  27  28
ATOM     28  C   UNL A   1      47.190 -19.152 -37.094  0.00  0.00    -0.019 C 
BRANCH  28  31
ATOM     29  C   UNL A   1      45.844 -19.109 -40.662  0.00  0.00    +0.165 A 
ATOM     30  C   UNL A   1      46.158 -18.722 -39.354  0.00  0.00    -0.013 A 
ATOM     31  C   UNL A   1      46.885 -19.572 -38.512  0.00  0.00    -0.040 A 
ATOM     32  C   UNL A   1      47.277 -20.825 -38.997  0.00  0.00    -0.013 A 
ATOM     33  C   UNL A   1      46.919 -21.246 -40.289  0.00  0.00    +0.165 A 
ATOM     34  C   UNL A   1      46.214 -20.383 -41.144  0.00  0.00    +0.204 A 
BRANCH  29  36
ATOM     35  C   UNL A   1      44.161 -17.461 -40.879  0.00  0.00    +0.079 C 
ATOM     36  O   UNL A   1      45.117 -18.305 -41.511  0.00  0.00    -0.491 OA
ENDBRANCH  29  36
BRANCH  33  37
ATOM     37  O   UNL A   1      47.317 -22.488 -40.716  0.00  0.00    -0.491 OA
ATOM     38  C   UNL A   1      48.708 -22.727 -40.500  0.00  0.00    +0.079 C 
ENDBRANCH  33  37
BRANCH  34  39
ATOM     39  O   UNL A   1      45.801 -20.639 -42.428  0.00  0.00    -0.488 OA
ATOM     40  C   UNL A   1      44.768 -21.584 -42.650  0.00  0.00    +0.079 C 
ENDBRANCH  34  39
ENDBRANCH  28  31
ENDBRANCH  27  28
ENDBRANCH  23  27
ENDBRANCH  22  25
ENDBRANCH   1  22
TORSDOF 11
ENDMDL
MODEL 13
REMARK VINA RESULT:    -6.164     17.439     21.338
REMARK INTER + INTRA:         -13.106
REMARK INTER:                 -10.350
REMARK INTRA:                  -2.756
REMARK UNBOUND:                -2.978
REMARK  Name = cpd81.pdb
REMARK  14 active torsions:
REMARK  status: ('A' for Active; 'I' for Inactive)
REMARK    1  A    between atoms: C_1  and  O_2
REMARK    2  A    between atoms: O_2  and  C_3
REMARK    3  A    between atoms: C_5  and  C_6
REMARK    4  A    between atoms: C_6  and  C_7
REMARK    5  A    between atoms: C_7  and  C_8
REMARK    6  A    between atoms: N_10  and  C_11
REMARK    7  A    between atoms: C_11  and  C_12
REMARK    8  A    between atoms: C_12  and  C_13
REMARK    9  A    between atoms: N_15  and  N_16
REMARK   10  A    between atoms: N_16  and  C_17
REMARK   11  A    between atoms: C_32  and  O_33
REMARK   12  A    between atoms: O_33  and  C_34
REMARK   13  A    between atoms: C_35  and  O_36
REMARK   14  A    between atoms: O_36  and  C_37
REMARK                            x       y       z     vdW  Elec       q    Type
REMARK                         _______ _______ _______ _____ _____    ______ ____
ROOT
ATOM      1  C   UNL A   1      47.170 -16.759 -37.164  0.00  0.00    +0.041 C 
ENDROOT
BRANCH   1   2
ATOM      2  C   UNL A   1      47.119 -16.705 -38.669  0.00  0.00    +0.231 C 
ATOM      3  O   UNL A   1      46.889 -15.669 -39.292  0.00  0.00    -0.274 OA
ATOM      4  N   UNL A   1      47.245 -17.946 -39.273  0.00  0.00    -0.236 N 
ATOM      5  H   UNL A   1      47.726 -18.693 -38.847  0.00  0.00    +0.000 HD
BRANCH   4   6
ATOM      6  N   UNL A   1      46.632 -18.068 -40.547  0.00  0.00    -0.264 N 
ATOM      7  H   UNL A   1      46.724 -17.410 -41.274  0.00  0.00    +0.000 HD
BRANCH   6   8
ATOM      8  C   UNL A   1      45.865 -19.268 -40.638  0.00  0.00    +0.058 A 
ATOM      9  C   UNL A   1      44.511 -19.285 -40.243  0.00  0.00    -0.003 A 
ATOM     10  C   UNL A   1      43.820 -20.492 -40.364  0.00  0.00    +0.047 A 
ATOM     11  N   UNL A   1      44.367 -21.610 -40.899  0.00  0.00    -0.251 NA
ATOM     12  C   UNL A   1      45.646 -21.587 -41.294  0.00  0.00    +0.073 A 
ATOM     13  C   UNL A   1      46.189 -22.748 -41.831  0.00  0.00    -0.036 A 
ATOM     14  C   UNL A   1      47.519 -22.822 -42.245  0.00  0.00    -0.060 A 
ATOM     15  C   UNL A   1      48.341 -21.714 -42.109  0.00  0.00    -0.061 A 
ATOM     16  C   UNL A   1      47.819 -20.539 -41.572  0.00  0.00    -0.051 A 
ATOM     17  C   UNL A   1      46.460 -20.445 -41.176  0.00  0.00    +0.023 A 
ATOM     18  C   UNL A   1      42.378 -20.630 -39.947  0.00  0.00    -0.010 C 
ATOM     19  C   UNL A   1      41.934 -19.551 -38.967  0.00  0.00    -0.047 C 
ATOM     20  C   UNL A   1      42.324 -18.184 -39.506  0.00  0.00    -0.049 C 
ATOM     21  C   UNL A   1      43.842 -18.069 -39.642  0.00  0.00    -0.024 C 
ENDBRANCH   6   8
ENDBRANCH   4   6
ENDBRANCH   1   2
BRANCH   1  22
ATOM     22  C   UNL A   1      47.378 -18.215 -36.763  0.00  0.00    +0.020 C 
BRANCH  22  25
ATOM     23  C   UNL A   1      45.661 -19.980 -36.743  0.00  0.00    +0.213 C 
ATOM     24  O   UNL A   1      46.235 -20.636 -37.605  0.00  0.00    -0.276 OA
ATOM     25  N   UNL A   1      46.201 -18.835 -36.188  0.00  0.00    -0.315 N 
ATOM     26  H   UNL A   1      45.781 -18.437 -35.391  0.00  0.00    +0.000 HD
BRANCH  23  27
ATOM     27  C   UNL A   1      44.278 -20.292 -36.209  0.00  0.00    +0.028 C 
BRANCH  27  28
ATOM     28  C   UNL A   1      43.541 -19.048 -35.717  0.00  0.00    -0.019 C 
BRANCH  28  31
ATOM     29  C   UNL A   1      40.479 -21.062 -34.659  0.00  0.00    +0.165 A 
ATOM     30  C   UNL A   1      41.722 -20.718 -35.203  0.00  0.00    -0.013 A 
ATOM     31  C   UNL A   1      42.211 -19.410 -35.098  0.00  0.00    -0.040 A 
ATOM     32  C   UNL A   1      41.425 -18.448 -34.455  0.00  0.00    -0.013 A 
ATOM     33  C   UNL A   1      40.152 -18.768 -33.955  0.00  0.00    +0.165 A 
ATOM     34  C   UNL A   1      39.673 -20.087 -34.034  0.00  0.00    +0.204 A 
BRANCH  29  36
ATOM     35  C   UNL A   1      39.842 -22.841 -36.081  0.00  0.00    +0.079 C 
ATOM     36  O   UNL A   1      39.961 -22.333 -34.757  0.00  0.00    -0.491 OA
ENDBRANCH  29  36
BRANCH  33  37
ATOM     37  O   UNL A   1      39.414 -17.788 -33.341  0.00  0.00    -0.491 OA
ATOM     38  C   UNL A   1      40.205 -16.940 -32.509  0.00  0.00    +0.079 C 
ENDBRANCH  33  37
BRANCH  34  39
ATOM     39  O   UNL A   1      38.464 -20.559 -33.587  0.00  0.00    -0.488 OA
ATOM     40  C   UNL A   1      37.296 -20.310 -34.350  0.00  0.00    +0.079 C 
ENDBRANCH  34  39
ENDBRANCH  28  31
ENDBRANCH  27  28
ENDBRANCH  23  27
ENDBRANCH  22  25
ENDBRANCH   1  22
TORSDOF 11
ENDMDL
MODEL 14
REMARK VINA RESULT:    -6.159     17.639     21.382
REMARK INTER + INTRA:         -13.097
REMARK INTER:                 -10.631
REMARK INTRA:                  -2.467
REMARK UNBOUND:                -2.978
REMARK  Name = cpd81.pdb
REMARK  14 active torsions:
REMARK  status: ('A' for Active; 'I' for Inactive)
REMARK    1  A    between atoms: C_1  and  O_2
REMARK    2  A    between atoms: O_2  and  C_3
REMARK    3  A    between atoms: C_5  and  C_6
REMARK    4  A    between atoms: C_6  and  C_7
REMARK    5  A    between atoms: C_7  and  C_8
REMARK    6  A    between atoms: N_10  and  C_11
REMARK    7  A    between atoms: C_11  and  C_12
REMARK    8  A    between atoms: C_12  and  C_13
REMARK    9  A    between atoms: N_15  and  N_16
REMARK   10  A    between atoms: N_16  and  C_17
REMARK   11  A    between atoms: C_32  and  O_33
REMARK   12  A    between atoms: O_33  and  C_34
REMARK   13  A    between atoms: C_35  and  O_36
REMARK   14  A    between atoms: O_36  and  C_37
REMARK                            x       y       z     vdW  Elec       q    Type
REMARK                         _______ _______ _______ _____ _____    ______ ____
ROOT
ATOM      1  C   UNL A   1      46.638 -16.179 -37.721  0.00  0.00    +0.041 C 
ENDROOT
BRANCH   1   2
ATOM      2  C   UNL A   1      46.144 -16.289 -39.141  0.00  0.00    +0.231 C 
ATOM      3  O   UNL A   1      45.297 -15.532 -39.612  0.00  0.00    -0.274 OA
ATOM      4  N   UNL A   1      46.651 -17.385 -39.820  0.00  0.00    -0.236 N 
ATOM      5  H   UNL A   1      47.521 -17.788 -39.595  0.00  0.00    +0.000 HD
BRANCH   4   6
ATOM      6  N   UNL A   1      45.832 -17.885 -40.864  0.00  0.00    -0.264 N 
ATOM      7  H   UNL A   1      45.566 -17.369 -41.660  0.00  0.00    +0.000 HD
BRANCH   6   8
ATOM      8  C   UNL A   1      45.442 -19.235 -40.613  0.00  0.00    +0.058 A 
ATOM      9  C   UNL A   1      46.274 -20.305 -41.001  0.00  0.00    -0.003 A 
ATOM     10  C   UNL A   1      45.832 -21.600 -40.719  0.00  0.00    +0.047 A 
ATOM     11  N   UNL A   1      44.690 -21.863 -40.040  0.00  0.00    -0.251 NA
ATOM     12  C   UNL A   1      43.911 -20.845 -39.653  0.00  0.00    +0.073 A 
ATOM     13  C   UNL A   1      42.740 -21.139 -38.965  0.00  0.00    -0.036 A 
ATOM     14  C   UNL A   1      41.856 -20.143 -38.546  0.00  0.00    -0.060 A 
ATOM     15  C   UNL A   1      42.137 -18.816 -38.830  0.00  0.00    -0.061 A 
ATOM     16  C   UNL A   1      43.305 -18.498 -39.519  0.00  0.00    -0.051 A 
ATOM     17  C   UNL A   1      44.224 -19.500 -39.923  0.00  0.00    +0.023 A 
ATOM     18  C   UNL A   1      46.629 -22.817 -41.113  0.00  0.00    -0.010 C 
ATOM     19  C   UNL A   1      47.630 -22.540 -42.228  0.00  0.00    -0.047 C 
ATOM     20  C   UNL A   1      48.455 -21.313 -41.877  0.00  0.00    -0.049 C 
ATOM     21  C   UNL A   1      47.562 -20.077 -41.759  0.00  0.00    -0.024 C 
ENDBRANCH   6   8
ENDBRANCH   4   6
ENDBRANCH   1   2
BRANCH   1  22
ATOM     22  C   UNL A   1      47.224 -17.532 -37.332  0.00  0.00    +0.020 C 
BRANCH  22  25
ATOM     23  C   UNL A   1      46.497 -18.836 -35.375  0.00  0.00    +0.213 C 
ATOM     24  O   UNL A   1      47.368 -18.362 -34.656  0.00  0.00    -0.276 OA
ATOM     25  N   UNL A   1      46.278 -18.408 -36.670  0.00  0.00    -0.315 N 
ATOM     26  H   UNL A   1      45.469 -18.702 -37.150  0.00  0.00    +0.000 HD
BRANCH  23  27
ATOM     27  C   UNL A   1      45.584 -19.977 -34.974  0.00  0.00    +0.028 C 
BRANCH  27  28
ATOM     28  C   UNL A   1      44.279 -19.995 -35.768  0.00  0.00    -0.019 C 
BRANCH  28  31
ATOM     29  C   UNL A   1      41.868 -18.560 -33.185  0.00  0.00    +0.165 A 
ATOM     30  C   UNL A   1      42.956 -18.703 -34.053  0.00  0.00    -0.013 A 
ATOM     31  C   UNL A   1      43.083 -19.842 -34.858  0.00  0.00    -0.040 A 
ATOM     32  C   UNL A   1      42.110 -20.843 -34.765  0.00  0.00    -0.013 A 
ATOM     33  C   UNL A   1      41.044 -20.735 -33.856  0.00  0.00    +0.165 A 
ATOM     34  C   UNL A   1      40.900 -19.581 -33.069  0.00  0.00    +0.204 A 
BRANCH  29  36
ATOM     35  C   UNL A   1      42.106 -16.219 -32.945  0.00  0.00    +0.079 C 
ATOM     36  O   UNL A   1      41.720 -17.461 -32.368  0.00  0.00    -0.491 OA
ENDBRANCH  29  36
BRANCH  33  37
ATOM     37  O   UNL A   1      40.121 -21.748 -33.793  0.00  0.00    -0.491 OA
ATOM     38  C   UNL A   1      40.509 -22.795 -32.902  0.00  0.00    +0.079 C 
ENDBRANCH  33  37
BRANCH  34  39
ATOM     39  O   UNL A   1      39.917 -19.320 -32.148  0.00  0.00    -0.488 OA
ATOM     40  C   UNL A   1      38.645 -18.883 -32.594  0.00  0.00    +0.079 C 
ENDBRANCH  34  39
ENDBRANCH  28  31
ENDBRANCH  27  28
ENDBRANCH  23  27
ENDBRANCH  22  25
ENDBRANCH   1  22
TORSDOF 11
ENDMDL
MODEL 15
REMARK VINA RESULT:    -6.107     17.540     21.253
REMARK INTER + INTRA:         -13.013
REMARK INTER:                 -10.290
REMARK INTRA:                  -2.723
REMARK UNBOUND:                -2.978
REMARK  Name = cpd81.pdb
REMARK  14 active torsions:
REMARK  status: ('A' for Active; 'I' for Inactive)
REMARK    1  A    between atoms: C_1  and  O_2
REMARK    2  A    between atoms: O_2  and  C_3
REMARK    3  A    between atoms: C_5  and  C_6
REMARK    4  A    between atoms: C_6  and  C_7
REMARK    5  A    between atoms: C_7  and  C_8
REMARK    6  A    between atoms: N_10  and  C_11
REMARK    7  A    between atoms: C_11  and  C_12
REMARK    8  A    between atoms: C_12  and  C_13
REMARK    9  A    between atoms: N_15  and  N_16
REMARK   10  A    between atoms: N_16  and  C_17
REMARK   11  A    between atoms: C_32  and  O_33
REMARK   12  A    between atoms: O_33  and  C_34
REMARK   13  A    between atoms: C_35  and  O_36
REMARK   14  A    between atoms: O_36  and  C_37
REMARK                            x       y       z     vdW  Elec       q    Type
REMARK                         _______ _______ _______ _____ _____    ______ ____
ROOT
ATOM      1  C   UNL A   1      46.762 -16.332 -37.505  0.00  0.00    +0.041 C 
ENDROOT
BRANCH   1   2
ATOM      2  C   UNL A   1      46.491 -16.409 -38.985  0.00  0.00    +0.231 C 
ATOM      3  O   UNL A   1      45.864 -15.543 -39.594  0.00  0.00    -0.274 OA
ATOM      4  N   UNL A   1      46.914 -17.594 -39.565  0.00  0.00    -0.236 N 
ATOM      5  H   UNL A   1      47.659 -18.124 -39.197  0.00  0.00    +0.000 HD
BRANCH   4   6
ATOM      6  N   UNL A   1      46.202 -17.993 -40.725  0.00  0.00    -0.264 N 
ATOM      7  H   UNL A   1      46.091 -17.435 -41.529  0.00  0.00    +0.000 HD
BRANCH   6   8
ATOM      8  C   UNL A   1      45.667 -19.308 -40.576  0.00  0.00    +0.058 A 
ATOM      9  C   UNL A   1      46.443 -20.438 -40.904  0.00  0.00    -0.003 A 
ATOM     10  C   UNL A   1      45.857 -21.694 -40.729  0.00  0.00    +0.047 A 
ATOM     11  N   UNL A   1      44.621 -21.870 -40.204  0.00  0.00    -0.251 NA
ATOM     12  C   UNL A   1      43.893 -20.796 -39.873  0.00  0.00    +0.073 A 
ATOM     13  C   UNL A   1      42.624 -21.000 -39.344  0.00  0.00    -0.036 A 
ATOM     14  C   UNL A   1      41.787 -19.940 -38.995  0.00  0.00    -0.060 A 
ATOM     15  C   UNL A   1      42.217 -18.636 -39.189  0.00  0.00    -0.061 A 
ATOM     16  C   UNL A   1      43.484 -18.408 -39.719  0.00  0.00    -0.051 A 
ATOM     17  C   UNL A   1      44.354 -19.479 -40.049  0.00  0.00    +0.023 A 
ATOM     18  C   UNL A   1      46.586 -22.968 -41.072  0.00  0.00    -0.010 C 
ATOM     19  C   UNL A   1      47.738 -22.753 -42.046  0.00  0.00    -0.047 C 
ATOM     20  C   UNL A   1      48.618 -21.617 -41.550  0.00  0.00    -0.049 C 
ATOM     21  C   UNL A   1      47.830 -20.309 -41.491  0.00  0.00    -0.024 C 
ENDBRANCH   6   8
ENDBRANCH   4   6
ENDBRANCH   1   2
BRANCH   1  22
ATOM     22  C   UNL A   1      47.287 -17.693 -37.062  0.00  0.00    +0.020 C 
BRANCH  22  25
ATOM     23  C   UNL A   1      46.375 -19.100 -35.259  0.00  0.00    +0.213 C 
ATOM     24  O   UNL A   1      47.218 -18.723 -34.453  0.00  0.00    -0.276 OA
ATOM     25  N   UNL A   1      46.261 -18.568 -36.529  0.00  0.00    -0.315 N 
ATOM     26  H   UNL A   1      45.474 -18.786 -37.079  0.00  0.00    +0.000 HD
BRANCH  23  27
ATOM     27  C   UNL A   1      45.388 -20.221 -35.004  0.00  0.00    +0.028 C 
BRANCH  27  28
ATOM     28  C   UNL A   1      44.341 -20.348 -36.110  0.00  0.00    -0.019 C 
BRANCH  28  31
ATOM     29  C   UNL A   1      40.735 -21.009 -35.060  0.00  0.00    +0.165 A 
ATOM     30  C   UNL A   1      42.039 -21.199 -35.531  0.00  0.00    -0.013 A 
ATOM     31  C   UNL A   1      42.947 -20.134 -35.570  0.00  0.00    -0.040 A 
ATOM     32  C   UNL A   1      42.521 -18.870 -35.147  0.00  0.00    -0.013 A 
ATOM     33  C   UNL A   1      41.198 -18.656 -34.724  0.00  0.00    +0.165 A 
ATOM     34  C   UNL A   1      40.294 -19.730 -34.657  0.00  0.00    +0.204 A 
BRANCH  29  36
ATOM     35  C   UNL A   1      39.429 -22.551 -36.289  0.00  0.00    +0.079 C 
ATOM     36  O   UNL A   1      39.812 -22.030 -35.022  0.00  0.00    -0.491 OA
ENDBRANCH  29  36
BRANCH  33  37
ATOM     37  O   UNL A   1      40.823 -17.397 -34.328  0.00  0.00    -0.491 OA
ATOM     38  C   UNL A   1      41.344 -17.043 -33.047  0.00  0.00    +0.079 C 
ENDBRANCH  33  37
BRANCH  34  39
ATOM     39  O   UNL A   1      38.981 -19.687 -34.261  0.00  0.00    -0.488 OA
ATOM     40  C   UNL A   1      38.672 -19.691 -32.877  0.00  0.00    +0.079 C 
ENDBRANCH  34  39
ENDBRANCH  28  31
ENDBRANCH  27  28
ENDBRANCH  23  27
ENDBRANCH  22  25
ENDBRANCH   1  22
TORSDOF 11
ENDMDL
MODEL 16
REMARK VINA RESULT:    -6.061     16.119     19.625
REMARK INTER + INTRA:         -12.936
REMARK INTER:                 -10.733
REMARK INTRA:                  -2.203
REMARK UNBOUND:                -2.978
REMARK  Name = cpd81.pdb
REMARK  14 active torsions:
REMARK  status: ('A' for Active; 'I' for Inactive)
REMARK    1  A    between atoms: C_1  and  O_2
REMARK    2  A    between atoms: O_2  and  C_3
REMARK    3  A    between atoms: C_5  and  C_6
REMARK    4  A    between atoms: C_6  and  C_7
REMARK    5  A    between atoms: C_7  and  C_8
REMARK    6  A    between atoms: N_10  and  C_11
REMARK    7  A    between atoms: C_11  and  C_12
REMARK    8  A    between atoms: C_12  and  C_13
REMARK    9  A    between atoms: N_15  and  N_16
REMARK   10  A    between atoms: N_16  and  C_17
REMARK   11  A    between atoms: C_32  and  O_33
REMARK   12  A    between atoms: O_33  and  C_34
REMARK   13  A    between atoms: C_35  and  O_36
REMARK   14  A    between atoms: O_36  and  C_37
REMARK                            x       y       z     vdW  Elec       q    Type
REMARK                         _______ _______ _______ _____ _____    ______ ____
ROOT
ATOM      1  C   UNL A   1      40.890 -16.724 -38.352  0.00  0.00    +0.041 C 
ENDROOT
BRANCH   1   2
ATOM      2  C   UNL A   1      41.071 -18.200 -38.601  0.00  0.00    +0.231 C 
ATOM      3  O   UNL A   1      40.196 -19.029 -38.357  0.00  0.00    -0.274 OA
ATOM      4  N   UNL A   1      42.348 -18.538 -39.020  0.00  0.00    -0.236 N 
ATOM      5  H   UNL A   1      42.927 -17.907 -39.506  0.00  0.00    +0.000 HD
BRANCH   4   6
ATOM      6  N   UNL A   1      42.763 -19.856 -38.703  0.00  0.00    -0.264 N 
ATOM      7  H   UNL A   1      42.163 -20.565 -38.375  0.00  0.00    +0.000 HD
BRANCH   6   8
ATOM      8  C   UNL A   1      44.164 -20.023 -38.920  0.00  0.00    +0.058 A 
ATOM      9  C   UNL A   1      44.640 -20.627 -40.101  0.00  0.00    -0.003 A 
ATOM     10  C   UNL A   1      46.023 -20.753 -40.249  0.00  0.00    +0.047 A 
ATOM     11  N   UNL A   1      46.912 -20.266 -39.351  0.00  0.00    -0.251 NA
ATOM     12  C   UNL A   1      46.460 -19.673 -38.239  0.00  0.00    +0.073 A 
ATOM     13  C   UNL A   1      47.391 -19.190 -37.328  0.00  0.00    -0.036 A 
ATOM     14  C   UNL A   1      47.010 -18.580 -36.131  0.00  0.00    -0.060 A 
ATOM     15  C   UNL A   1      45.664 -18.459 -35.823  0.00  0.00    -0.061 A 
ATOM     16  C   UNL A   1      44.713 -18.938 -36.722  0.00  0.00    -0.051 A 
ATOM     17  C   UNL A   1      45.089 -19.532 -37.954  0.00  0.00    +0.023 A 
ATOM     18  C   UNL A   1      46.639 -21.407 -41.459  0.00  0.00    -0.010 C 
ATOM     19  C   UNL A   1      45.670 -22.318 -42.204  0.00  0.00    -0.047 C 
ATOM     20  C   UNL A   1      44.369 -21.575 -42.461  0.00  0.00    -0.049 C 
ATOM     21  C   UNL A   1      43.698 -21.187 -41.143  0.00  0.00    -0.024 C 
ENDBRANCH   6   8
ENDBRANCH   4   6
ENDBRANCH   1   2
BRANCH   1  22
ATOM     22  C   UNL A   1      40.226 -16.566 -36.989  0.00  0.00    +0.020 C 
BRANCH  22  25
ATOM     23  C   UNL A   1      40.283 -17.527 -34.723  0.00  0.00    +0.213 C 
ATOM     24  O   UNL A   1      39.075 -17.390 -34.566  0.00  0.00    -0.276 OA
ATOM     25  N   UNL A   1      40.920 -17.255 -35.919  0.00  0.00    -0.315 N 
ATOM     26  H   UNL A   1      41.856 -17.532 -36.045  0.00  0.00    +0.000 HD
BRANCH  23  27
ATOM     27  C   UNL A   1      41.245 -17.957 -33.634  0.00  0.00    +0.028 C 
BRANCH  27  28
ATOM     28  C   UNL A   1      42.220 -19.036 -34.100  0.00  0.00    -0.019 C 
BRANCH  28  31
ATOM     29  C   UNL A   1      40.600 -22.337 -35.113  0.00  0.00    +0.165 A 
ATOM     30  C   UNL A   1      41.203 -21.075 -35.179  0.00  0.00    -0.013 A 
ATOM     31  C   UNL A   1      41.598 -20.410 -34.013  0.00  0.00    -0.040 A 
ATOM     32  C   UNL A   1      41.363 -21.022 -32.777  0.00  0.00    -0.013 A 
ATOM     33  C   UNL A   1      40.709 -22.262 -32.696  0.00  0.00    +0.165 A 
ATOM     34  C   UNL A   1      40.337 -22.944 -33.867  0.00  0.00    +0.204 A 
BRANCH  29  36
ATOM     35  C   UNL A   1      40.695 -22.514 -37.470  0.00  0.00    +0.079 C 
ATOM     36  O   UNL A   1      40.185 -23.012 -36.238  0.00  0.00    -0.491 OA
ENDBRANCH  29  36
BRANCH  33  37
ATOM     37  O   UNL A   1      40.490 -22.818 -31.460  0.00  0.00    -0.491 OA
ATOM     38  C   UNL A   1      41.535 -23.705 -31.061  0.00  0.00    +0.079 C 
ENDBRANCH  33  37
BRANCH  34  39
ATOM     39  O   UNL A   1      39.703 -24.158 -33.956  0.00  0.00    -0.488 OA
ATOM     40  C   UNL A   1      38.328 -24.250 -33.624  0.00  0.00    +0.079 C 
ENDBRANCH  34  39
ENDBRANCH  28  31
ENDBRANCH  27  28
ENDBRANCH  23  27
ENDBRANCH  22  25
ENDBRANCH   1  22
TORSDOF 11
ENDMDL
MODEL 17
REMARK VINA RESULT:    -6.025     17.020     20.815
REMARK INTER + INTRA:         -12.877
REMARK INTER:                 -10.292
REMARK INTRA:                  -2.585
REMARK UNBOUND:                -2.978
REMARK  Name = cpd81.pdb
REMARK  14 active torsions:
REMARK  status: ('A' for Active; 'I' for Inactive)
REMARK    1  A    between atoms: C_1  and  O_2
REMARK    2  A    between atoms: O_2  and  C_3
REMARK    3  A    between atoms: C_5  and  C_6
REMARK    4  A    between atoms: C_6  and  C_7
REMARK    5  A    between atoms: C_7  and  C_8
REMARK    6  A    between atoms: N_10  and  C_11
REMARK    7  A    between atoms: C_11  and  C_12
REMARK    8  A    between atoms: C_12  and  C_13
REMARK    9  A    between atoms: N_15  and  N_16
REMARK   10  A    between atoms: N_16  and  C_17
REMARK   11  A    between atoms: C_32  and  O_33
REMARK   12  A    between atoms: O_33  and  C_34
REMARK   13  A    between atoms: C_35  and  O_36
REMARK   14  A    between atoms: O_36  and  C_37
REMARK                            x       y       z     vdW  Elec       q    Type
REMARK                         _______ _______ _______ _____ _____    ______ ____
ROOT
ATOM      1  C   UNL A   1      43.036 -16.245 -33.453  0.00  0.00    +0.041 C 
ENDROOT
BRANCH   1   2
ATOM      2  C   UNL A   1      42.436 -16.913 -34.663  0.00  0.00    +0.231 C 
ATOM      3  O   UNL A   1      42.500 -16.428 -35.792  0.00  0.00    -0.274 OA
ATOM      4  N   UNL A   1      41.714 -18.057 -34.364  0.00  0.00    -0.236 N 
ATOM      5  H   UNL A   1      41.908 -18.610 -33.573  0.00  0.00    +0.000 HD
BRANCH   4   6
ATOM      6  N   UNL A   1      40.677 -18.378 -35.277  0.00  0.00    -0.264 N 
ATOM      7  H   UNL A   1      40.012 -17.735 -35.613  0.00  0.00    +0.000 HD
BRANCH   6   8
ATOM      8  C   UNL A   1      40.722 -19.757 -35.646  0.00  0.00    +0.058 A 
ATOM      9  C   UNL A   1      41.386 -20.163 -36.821  0.00  0.00    -0.003 A 
ATOM     10  C   UNL A   1      41.395 -21.527 -37.117  0.00  0.00    +0.047 A 
ATOM     11  N   UNL A   1      40.860 -22.467 -36.302  0.00  0.00    -0.251 NA
ATOM     12  C   UNL A   1      40.247 -22.083 -35.175  0.00  0.00    +0.073 A 
ATOM     13  C   UNL A   1      39.698 -23.064 -34.359  0.00  0.00    -0.036 A 
ATOM     14  C   UNL A   1      39.020 -22.753 -33.179  0.00  0.00    -0.060 A 
ATOM     15  C   UNL A   1      38.872 -21.426 -32.805  0.00  0.00    -0.061 A 
ATOM     16  C   UNL A   1      39.414 -20.426 -33.609  0.00  0.00    -0.051 A 
ATOM     17  C   UNL A   1      40.130 -20.734 -34.794  0.00  0.00    +0.023 A 
ATOM     18  C   UNL A   1      42.052 -22.069 -38.361  0.00  0.00    -0.010 C 
ATOM     19  C   UNL A   1      42.235 -21.015 -39.446  0.00  0.00    -0.047 C 
ATOM     20  C   UNL A   1      42.894 -19.781 -38.851  0.00  0.00    -0.049 C 
ATOM     21  C   UNL A   1      42.007 -19.163 -37.771  0.00  0.00    -0.024 C 
ENDBRANCH   6   8
ENDBRANCH   4   6
ENDBRANCH   1   2
BRANCH   1  22
ATOM     22  C   UNL A   1      44.381 -16.909 -33.182  0.00  0.00    +0.020 C 
BRANCH  22  25
ATOM     23  C   UNL A   1      45.609 -18.493 -34.610  0.00  0.00    +0.213 C 
ATOM     24  O   UNL A   1      45.273 -19.460 -33.936  0.00  0.00    -0.276 OA
ATOM     25  N   UNL A   1      45.132 -17.217 -34.382  0.00  0.00    -0.315 N 
ATOM     26  H   UNL A   1      45.303 -16.508 -35.044  0.00  0.00    +0.000 HD
BRANCH  23  27
ATOM     27  C   UNL A   1      46.622 -18.546 -35.736  0.00  0.00    +0.028 C 
BRANCH  27  28
ATOM     28  C   UNL A   1      46.765 -19.944 -36.336  0.00  0.00    -0.019 C 
BRANCH  28  31
ATOM     29  C   UNL A   1      46.182 -21.119 -39.917  0.00  0.00    +0.165 A 
ATOM     30  C   UNL A   1      46.359 -21.121 -38.529  0.00  0.00    -0.013 A 
ATOM     31  C   UNL A   1      46.545 -19.922 -37.830  0.00  0.00    -0.040 A 
ATOM     32  C   UNL A   1      46.569 -18.722 -38.549  0.00  0.00    -0.013 A 
ATOM     33  C   UNL A   1      46.449 -18.713 -39.948  0.00  0.00    +0.165 A 
ATOM     34  C   UNL A   1      46.234 -19.913 -40.647  0.00  0.00    +0.204 A 
BRANCH  29  36
ATOM     35  C   UNL A   1      47.179 -23.081 -40.783  0.00  0.00    +0.079 C 
ATOM     36  O   UNL A   1      46.012 -22.280 -40.637  0.00  0.00    -0.491 OA
ENDBRANCH  29  36
BRANCH  33  37
ATOM     37  O   UNL A   1      46.490 -17.512 -40.611  0.00  0.00    -0.491 OA
ATOM     38  C   UNL A   1      45.251 -16.806 -40.550  0.00  0.00    +0.079 C 
ENDBRANCH  33  37
BRANCH  34  39
ATOM     39  O   UNL A   1      46.088 -20.070 -42.003  0.00  0.00    -0.488 OA
ATOM     40  C   UNL A   1      44.809 -19.899 -42.589  0.00  0.00    +0.079 C 
ENDBRANCH  34  39
ENDBRANCH  28  31
ENDBRANCH  27  28
ENDBRANCH  23  27
ENDBRANCH  22  25
ENDBRANCH   1  22
TORSDOF 11
ENDMDL
MODEL 18
REMARK VINA RESULT:    -6.023     17.244     20.997
REMARK INTER + INTRA:         -12.874
REMARK INTER:                  -9.969
REMARK INTRA:                  -2.904
REMARK UNBOUND:                -2.978
REMARK  Name = cpd81.pdb
REMARK  14 active torsions:
REMARK  status: ('A' for Active; 'I' for Inactive)
REMARK    1  A    between atoms: C_1  and  O_2
REMARK    2  A    between atoms: O_2  and  C_3
REMARK    3  A    between atoms: C_5  and  C_6
REMARK    4  A    between atoms: C_6  and  C_7
REMARK    5  A    between atoms: C_7  and  C_8
REMARK    6  A    between atoms: N_10  and  C_11
REMARK    7  A    between atoms: C_11  and  C_12
REMARK    8  A    between atoms: C_12  and  C_13
REMARK    9  A    between atoms: N_15  and  N_16
REMARK   10  A    between atoms: N_16  and  C_17
REMARK   11  A    between atoms: C_32  and  O_33
REMARK   12  A    between atoms: O_33  and  C_34
REMARK   13  A    between atoms: C_35  and  O_36
REMARK   14  A    between atoms: O_36  and  C_37
REMARK                            x       y       z     vdW  Elec       q    Type
REMARK                         _______ _______ _______ _____ _____    ______ ____
ROOT
ATOM      1  C   UNL A   1      44.407 -17.131 -34.219  0.00  0.00    +0.041 C 
ENDROOT
BRANCH   1   2
ATOM      2  C   UNL A   1      43.731 -18.456 -33.982  0.00  0.00    +0.231 C 
ATOM      3  O   UNL A   1      43.537 -18.914 -32.857  0.00  0.00    -0.274 OA
ATOM      4  N   UNL A   1      43.453 -19.153 -35.147  0.00  0.00    -0.236 N 
ATOM      5  H   UNL A   1      43.306 -18.700 -36.009  0.00  0.00    +0.000 HD
BRANCH   4   6
ATOM      6  N   UNL A   1      43.395 -20.564 -35.013  0.00  0.00    -0.264 N 
ATOM      7  H   UNL A   1      44.067 -21.106 -34.539  0.00  0.00    +0.000 HD
BRANCH   6   8
ATOM      8  C   UNL A   1      42.235 -21.096 -35.653  0.00  0.00    +0.058 A 
ATOM      9  C   UNL A   1      42.218 -21.304 -37.047  0.00  0.00    -0.003 A 
ATOM     10  C   UNL A   1      41.052 -21.832 -37.605  0.00  0.00    +0.047 A 
ATOM     11  N   UNL A   1      39.981 -22.209 -36.867  0.00  0.00    -0.251 NA
ATOM     12  C   UNL A   1      40.006 -22.031 -35.540  0.00  0.00    +0.073 A 
ATOM     13  C   UNL A   1      38.892 -22.416 -34.804  0.00  0.00    -0.036 A 
ATOM     14  C   UNL A   1      38.821 -22.245 -33.421  0.00  0.00    -0.060 A 
ATOM     15  C   UNL A   1      39.884 -21.660 -32.749  0.00  0.00    -0.061 A 
ATOM     16  C   UNL A   1      41.010 -21.265 -33.467  0.00  0.00    -0.051 A 
ATOM     17  C   UNL A   1      41.103 -21.462 -34.869  0.00  0.00    +0.023 A 
ATOM     18  C   UNL A   1      40.914 -22.070 -39.087  0.00  0.00    -0.010 C 
ATOM     19  C   UNL A   1      41.897 -21.253 -39.916  0.00  0.00    -0.047 C 
ATOM     20  C   UNL A   1      43.301 -21.429 -39.360  0.00  0.00    -0.049 C 
ATOM     21  C   UNL A   1      43.383 -20.908 -37.925  0.00  0.00    -0.024 C 
ENDBRANCH   6   8
ENDBRANCH   4   6
ENDBRANCH   1   2
BRANCH   1  22
ATOM     22  C   UNL A   1      43.357 -16.170 -34.766  0.00  0.00    +0.020 C 
BRANCH  22  25
ATOM     23  C   UNL A   1      43.045 -16.339 -37.202  0.00  0.00    +0.213 C 
ATOM     24  O   UNL A   1      42.138 -17.156 -37.094  0.00  0.00    -0.276 OA
ATOM     25  N   UNL A   1      43.628 -15.716 -36.115  0.00  0.00    -0.315 N 
ATOM     26  H   UNL A   1      44.235 -14.955 -36.260  0.00  0.00    +0.000 HD
BRANCH  23  27
ATOM     27  C   UNL A   1      43.683 -15.939 -38.517  0.00  0.00    +0.028 C 
BRANCH  27  28
ATOM     28  C   UNL A   1      43.366 -16.916 -39.648  0.00  0.00    -0.019 C 
BRANCH  28  31
ATOM     29  C   UNL A   1      45.705 -19.370 -41.395  0.00  0.00    +0.165 A 
ATOM     30  C   UNL A   1      44.650 -18.484 -41.148  0.00  0.00    -0.013 A 
ATOM     31  C   UNL A   1      44.527 -17.847 -39.908  0.00  0.00    -0.040 A 
ATOM     32  C   UNL A   1      45.468 -18.127 -38.911  0.00  0.00    -0.013 A 
ATOM     33  C   UNL A   1      46.498 -19.057 -39.128  0.00  0.00    +0.165 A 
ATOM     34  C   UNL A   1      46.640 -19.676 -40.382  0.00  0.00    +0.204 A 
BRANCH  29  36
ATOM     35  C   UNL A   1      44.693 -20.721 -43.051  0.00  0.00    +0.079 C 
ATOM     36  O   UNL A   1      45.848 -20.025 -42.597  0.00  0.00    -0.491 OA
ENDBRANCH  29  36
BRANCH  33  37
ATOM     37  O   UNL A   1      47.391 -19.308 -38.117  0.00  0.00    -0.491 OA
ATOM     38  C   UNL A   1      46.784 -19.279 -36.825  0.00  0.00    +0.079 C 
ENDBRANCH  33  37
BRANCH  34  39
ATOM     39  O   UNL A   1      47.591 -20.593 -40.754  0.00  0.00    -0.488 OA
ATOM     40  C   UNL A   1      47.467 -21.937 -40.321  0.00  0.00    +0.079 C 
ENDBRANCH  34  39
ENDBRANCH  28  31
ENDBRANCH  27  28
ENDBRANCH  23  27
ENDBRANCH  22  25
ENDBRANCH   1  22
TORSDOF 11
ENDMDL
MODEL 19
REMARK VINA RESULT:    -5.849     16.499     20.248
REMARK INTER + INTRA:         -12.589
REMARK INTER:                 -10.711
REMARK INTRA:                  -1.878
REMARK UNBOUND:                -2.978
REMARK  Name = cpd81.pdb
REMARK  14 active torsions:
REMARK  status: ('A' for Active; 'I' for Inactive)
REMARK    1  A    between atoms: C_1  and  O_2
REMARK    2  A    between atoms: O_2  and  C_3
REMARK    3  A    between atoms: C_5  and  C_6
REMARK    4  A    between atoms: C_6  and  C_7
REMARK    5  A    between atoms: C_7  and  C_8
REMARK    6  A    between atoms: N_10  and  C_11
REMARK    7  A    between atoms: C_11  and  C_12
REMARK    8  A    between atoms: C_12  and  C_13
REMARK    9  A    between atoms: N_15  and  N_16
REMARK   10  A    between atoms: N_16  and  C_17
REMARK   11  A    between atoms: C_32  and  O_33
REMARK   12  A    between atoms: O_33  and  C_34
REMARK   13  A    between atoms: C_35  and  O_36
REMARK   14  A    between atoms: O_36  and  C_37
REMARK                            x       y       z     vdW  Elec       q    Type
REMARK                         _______ _______ _______ _____ _____    ______ ____
ROOT
ATOM      1  C   UNL A   1      40.093 -19.123 -38.745  0.00  0.00    +0.041 C 
ENDROOT
BRANCH   1   2
ATOM      2  C   UNL A   1      41.437 -18.449 -38.840  0.00  0.00    +0.231 C 
ATOM      3  O   UNL A   1      41.584 -17.234 -38.712  0.00  0.00    -0.274 OA
ATOM      4  N   UNL A   1      42.465 -19.308 -39.193  0.00  0.00    -0.236 N 
ATOM      5  H   UNL A   1      42.438 -20.272 -38.992  0.00  0.00    +0.000 HD
BRANCH   4   6
ATOM      6  N   UNL A   1      43.559 -18.705 -39.865  0.00  0.00    -0.264 N 
ATOM      7  H   UNL A   1      43.473 -18.000 -40.547  0.00  0.00    +0.000 HD
BRANCH   6   8
ATOM      8  C   UNL A   1      44.801 -19.252 -39.423  0.00  0.00    +0.058 A 
ATOM      9  C   UNL A   1      45.424 -20.291 -40.145  0.00  0.00    -0.003 A 
ATOM     10  C   UNL A   1      46.640 -20.775 -39.658  0.00  0.00    +0.047 A 
ATOM     11  N   UNL A   1      47.267 -20.252 -38.578  0.00  0.00    -0.251 NA
ATOM     12  C   UNL A   1      46.685 -19.251 -37.904  0.00  0.00    +0.073 A 
ATOM     13  C   UNL A   1      47.343 -18.737 -36.794  0.00  0.00    -0.036 A 
ATOM     14  C   UNL A   1      46.800 -17.712 -36.019  0.00  0.00    -0.060 A 
ATOM     15  C   UNL A   1      45.558 -17.190 -36.348  0.00  0.00    -0.061 A 
ATOM     16  C   UNL A   1      44.880 -17.692 -37.457  0.00  0.00    -0.051 A 
ATOM     17  C   UNL A   1      45.437 -18.713 -38.268  0.00  0.00    +0.023 A 
ATOM     18  C   UNL A   1      47.379 -21.900 -40.336  0.00  0.00    -0.010 C 
ATOM     19  C   UNL A   1      46.484 -22.747 -41.233  0.00  0.00    -0.047 C 
ATOM     20  C   UNL A   1      45.691 -21.841 -42.162  0.00  0.00    -0.049 C 
ATOM     21  C   UNL A   1      44.776 -20.914 -41.361  0.00  0.00    -0.024 C 
ENDBRANCH   6   8
ENDBRANCH   4   6
ENDBRANCH   1   2
BRANCH   1  22
ATOM     22  C   UNL A   1      40.339 -20.617 -38.568  0.00  0.00    +0.020 C 
BRANCH  22  25
ATOM     23  C   UNL A   1      40.276 -22.302 -36.775  0.00  0.00    +0.213 C 
ATOM     24  O   UNL A   1      41.350 -22.790 -37.108  0.00  0.00    -0.276 OA
ATOM     25  N   UNL A   1      39.754 -21.165 -37.361  0.00  0.00    -0.315 N 
ATOM     26  H   UNL A   1      38.974 -20.722 -36.954  0.00  0.00    +0.000 HD
BRANCH  23  27
ATOM     27  C   UNL A   1      39.356 -22.895 -35.727  0.00  0.00    +0.028 C 
BRANCH  27  28
ATOM     28  C   UNL A   1      40.006 -22.974 -34.347  0.00  0.00    -0.019 C 
BRANCH  28  31
ATOM     29  C   UNL A   1      39.209 -19.485 -33.029  0.00  0.00    +0.165 A 
ATOM     30  C   UNL A   1      39.063 -20.772 -33.562  0.00  0.00    -0.013 A 
ATOM     31  C   UNL A   1      40.176 -21.600 -33.743  0.00  0.00    -0.040 A 
ATOM     32  C   UNL A   1      41.442 -21.112 -33.400  0.00  0.00    -0.013 A 
ATOM     33  C   UNL A   1      41.606 -19.803 -32.917  0.00  0.00    +0.165 A 
ATOM     34  C   UNL A   1      40.487 -18.980 -32.707  0.00  0.00    +0.204 A 
BRANCH  29  36
ATOM     35  C   UNL A   1      36.866 -19.273 -32.783  0.00  0.00    +0.079 C 
ATOM     36  O   UNL A   1      38.138 -18.639 -32.851  0.00  0.00    -0.491 OA
ENDBRANCH  29  36
BRANCH  33  37
ATOM     37  O   UNL A   1      42.868 -19.364 -32.604  0.00  0.00    -0.491 OA
ATOM     38  C   UNL A   1      43.725 -19.287 -33.743  0.00  0.00    +0.079 C 
ENDBRANCH  33  37
BRANCH  34  39
ATOM     39  O   UNL A   1      40.479 -17.691 -32.236  0.00  0.00    -0.488 OA
ATOM     40  C   UNL A   1      40.918 -16.641 -33.080  0.00  0.00    +0.079 C 
ENDBRANCH  34  39
ENDBRANCH  28  31
ENDBRANCH  27  28
ENDBRANCH  23  27
ENDBRANCH  22  25
ENDBRANCH   1  22
TORSDOF 11
ENDMDL
MODEL 20
REMARK VINA RESULT:    -5.758     17.066     21.058
REMARK INTER + INTRA:         -12.439
REMARK INTER:                  -9.748
REMARK INTRA:                  -2.691
REMARK UNBOUND:                -2.978
REMARK  Name = cpd81.pdb
REMARK  14 active torsions:
REMARK  status: ('A' for Active; 'I' for Inactive)
REMARK    1  A    between atoms: C_1  and  O_2
REMARK    2  A    between atoms: O_2  and  C_3
REMARK    3  A    between atoms: C_5  and  C_6
REMARK    4  A    between atoms: C_6  and  C_7
REMARK    5  A    between atoms: C_7  and  C_8
REMARK    6  A    between atoms: N_10  and  C_11
REMARK    7  A    between atoms: C_11  and  C_12
REMARK    8  A    between atoms: C_12  and  C_13
REMARK    9  A    between atoms: N_15  and  N_16
REMARK   10  A    between atoms: N_16  and  C_17
REMARK   11  A    between atoms: C_32  and  O_33
REMARK   12  A    between atoms: O_33  and  C_34
REMARK   13  A    between atoms: C_35  and  O_36
REMARK   14  A    between atoms: O_36  and  C_37
REMARK                            x       y       z     vdW  Elec       q    Type
REMARK                         _______ _______ _______ _____ _____    ______ ____
ROOT
ATOM      1  C   UNL A   1      42.998 -16.235 -33.481  0.00  0.00    +0.041 C 
ENDROOT
BRANCH   1   2
ATOM      2  C   UNL A   1      42.430 -16.852 -34.732  0.00  0.00    +0.231 C 
ATOM      3  O   UNL A   1      42.551 -16.338 -35.843  0.00  0.00    -0.274 OA
ATOM      4  N   UNL A   1      41.669 -17.986 -34.495  0.00  0.00    -0.236 N 
ATOM      5  H   UNL A   1      41.818 -18.566 -33.713  0.00  0.00    +0.000 HD
BRANCH   4   6
ATOM      6  N   UNL A   1      40.661 -18.255 -35.456  0.00  0.00    -0.264 N 
ATOM      7  H   UNL A   1      40.068 -17.572 -35.846  0.00  0.00    +0.000 HD
BRANCH   6   8
ATOM      8  C   UNL A   1      40.618 -19.643 -35.785  0.00  0.00    +0.058 A 
ATOM      9  C   UNL A   1      39.934 -20.555 -34.956  0.00  0.00    -0.003 A 
ATOM     10  C   UNL A   1      39.929 -21.897 -35.341  0.00  0.00    +0.047 A 
ATOM     11  N   UNL A   1      40.487 -22.341 -36.493  0.00  0.00    -0.251 NA
ATOM     12  C   UNL A   1      41.119 -21.470 -37.290  0.00  0.00    +0.073 A 
ATOM     13  C   UNL A   1      41.692 -21.950 -38.462  0.00  0.00    -0.036 A 
ATOM     14  C   UNL A   1      42.390 -21.120 -39.340  0.00  0.00    -0.060 A 
ATOM     15  C   UNL A   1      42.536 -19.774 -39.038  0.00  0.00    -0.061 A 
ATOM     16  C   UNL A   1      41.971 -19.272 -37.868  0.00  0.00    -0.051 A 
ATOM     17  C   UNL A   1      41.234 -20.102 -36.985  0.00  0.00    +0.023 A 
ATOM     18  C   UNL A   1      39.250 -22.961 -34.516  0.00  0.00    -0.010 C 
ATOM     19  C   UNL A   1      39.038 -22.546 -33.065  0.00  0.00    -0.047 C 
ATOM     20  C   UNL A   1      38.383 -21.174 -33.019  0.00  0.00    -0.049 C 
ATOM     21  C   UNL A   1      39.288 -20.122 -33.659  0.00  0.00    -0.024 C 
ENDBRANCH   6   8
ENDBRANCH   4   6
ENDBRANCH   1   2
BRANCH   1  22
ATOM     22  C   UNL A   1      44.375 -16.846 -33.251  0.00  0.00    +0.020 C 
BRANCH  22  25
ATOM     23  C   UNL A   1      45.581 -18.369 -34.763  0.00  0.00    +0.213 C 
ATOM     24  O   UNL A   1      45.249 -19.364 -34.129  0.00  0.00    -0.276 OA
ATOM     25  N   UNL A   1      45.111 -17.103 -34.473  0.00  0.00    -0.315 N 
ATOM     26  H   UNL A   1      45.277 -16.366 -35.104  0.00  0.00    +0.000 HD
BRANCH  23  27
ATOM     27  C   UNL A   1      46.580 -18.374 -35.902  0.00  0.00    +0.028 C 
BRANCH  27  28
ATOM     28  C   UNL A   1      46.760 -19.759 -36.522  0.00  0.00    -0.019 C 
BRANCH  28  31
ATOM     29  C   UNL A   1      46.060 -20.958 -40.074  0.00  0.00    +0.165 A 
ATOM     30  C   UNL A   1      46.364 -20.952 -38.708  0.00  0.00    -0.013 A 
ATOM     31  C   UNL A   1      46.401 -19.751 -37.989  0.00  0.00    -0.040 A 
ATOM     32  C   UNL A   1      46.144 -18.554 -38.666  0.00  0.00    -0.013 A 
ATOM     33  C   UNL A   1      45.893 -18.543 -40.049  0.00  0.00    +0.165 A 
ATOM     34  C   UNL A   1      45.828 -19.750 -40.765  0.00  0.00    +0.204 A 
BRANCH  29  36
ATOM     35  C   UNL A   1      47.216 -22.904 -40.762  0.00  0.00    +0.079 C 
ATOM     36  O   UNL A   1      46.030 -22.118 -40.815  0.00  0.00    -0.491 OA
ENDBRANCH  29  36
BRANCH  33  37
ATOM     37  O   UNL A   1      45.658 -17.343 -40.671  0.00  0.00    -0.491 OA
ATOM     38  C   UNL A   1      44.329 -16.865 -40.466  0.00  0.00    +0.079 C 
ENDBRANCH  33  37
BRANCH  34  39
ATOM     39  O   UNL A   1      45.585 -19.907 -42.107  0.00  0.00    -0.488 OA
ATOM     40  C   UNL A   1      44.246 -19.947 -42.571  0.00  0.00    +0.079 C 
ENDBRANCH  34  39
ENDBRANCH  28  31
ENDBRANCH  27  28
ENDBRANCH  23  27
ENDBRANCH  22  25
ENDBRANCH   1  22
TORSDOF 11
ENDMDL
