REMARK  Name = cpd81.pdb
REMARK  14 active torsions:
REMARK  status: ('A' for Active; 'I' for Inactive)
REMARK    1  A    between atoms: C_1  and  O_2
REMARK    2  A    between atoms: O_2  and  C_3
REMARK    3  A    between atoms: C_5  and  C_6
REMARK    4  A    between atoms: C_6  and  C_7
REMARK    5  A    between atoms: C_7  and  C_8
REMARK    6  A    between atoms: N_10  and  C_11
REMARK    7  A    between atoms: C_11  and  C_12
REMARK    8  A    between atoms: C_12  and  C_13
REMARK    9  A    between atoms: N_15  and  N_16
REMARK   10  A    between atoms: N_16  and  C_17
REMARK   11  A    between atoms: C_32  and  O_33
REMARK   12  A    between atoms: O_33  and  C_34
REMARK   13  A    between atoms: C_35  and  O_36
REMARK   14  A    between atoms: O_36  and  C_37
REMARK                            x       y       z     vdW  Elec       q    Type
REMARK                         _______ _______ _______ _____ _____    ______ ____
ROOT
ATOM      1  C   UNL A   1      -5.395   5.691   0.209  0.00  0.00    +0.041 C 
ENDROOT
BRANCH   1   2
ATOM      2  C   UNL A   1      -6.812   5.923   0.666  0.00  0.00    +0.231 C 
ATOM      3  O   UNL A   1      -7.144   6.897   1.340  0.00  0.00    -0.274 OA
ATOM      4  N   UNL A   1      -7.673   4.884   0.351  0.00  0.00    -0.236 N 
ATOM      5  H   UNL A   1      -7.521   4.289  -0.419  0.00  0.00    +0.000 HD
BRANCH   4   6
ATOM      6  N   UNL A   1      -8.789   4.736   1.214  0.00  0.00    -0.264 N 
ATOM      7  H   UNL A   1      -8.811   5.035   2.152  0.00  0.00    +0.000 HD
BRANCH   6   8
ATOM      8  C   UNL A   1      -9.877   4.097   0.546  0.00  0.00    +0.058 A 
ATOM      9  C   UNL A   1     -10.979   4.849   0.090  0.00  0.00    -0.003 A 
ATOM     10  C   UNL A   1     -12.005   4.159  -0.559  0.00  0.00    +0.047 A 
ATOM     11  N   UNL A   1     -11.955   2.832  -0.824  0.00  0.00    -0.251 NA
ATOM     12  C   UNL A   1     -10.898   2.122  -0.409  0.00  0.00    +0.073 A 
ATOM     13  C   UNL A   1     -10.873   0.760  -0.684  0.00  0.00    -0.036 A 
ATOM     14  C   UNL A   1      -9.824  -0.061  -0.268  0.00  0.00    -0.060 A 
ATOM     15  C   UNL A   1      -8.774   0.484   0.455  0.00  0.00    -0.061 A 
ATOM     16  C   UNL A   1      -8.779   1.847   0.743  0.00  0.00    -0.051 A 
ATOM     17  C   UNL A   1      -9.826   2.695   0.299  0.00  0.00    +0.023 A 
ATOM     18  C   UNL A   1     -13.241   4.859  -1.064  0.00  0.00    -0.010 C 
ATOM     19  C   UNL A   1     -13.486   6.201  -0.385  0.00  0.00    -0.047 C 
ATOM     20  C   UNL A   1     -12.212   7.030  -0.422  0.00  0.00    -0.049 C 
ATOM     21  C   UNL A   1     -11.092   6.334   0.351  0.00  0.00    -0.024 C 
ENDBRANCH   6   8
ENDBRANCH   4   6
ENDBRANCH   1   2
BRANCH   1  22
ATOM     22  C   UNL A   1      -4.693   4.872   1.286  0.00  0.00    +0.020 C 
BRANCH  22  25
ATOM     23  C   UNL A   1      -3.320   3.265   0.024  0.00  0.00    +0.213 C 
ATOM     24  O   UNL A   1      -4.288   2.813  -0.577  0.00  0.00    -0.276 OA
ATOM     25  N   UNL A   1      -3.405   4.350   0.875  0.00  0.00    -0.315 N 
ATOM     26  H   UNL A   1      -2.580   4.774   1.206  0.00  0.00    +0.000 HD
BRANCH  23  27
ATOM     27  C   UNL A   1      -1.925   2.677  -0.036  0.00  0.00    +0.028 C 
BRANCH  27  28
ATOM     28  C   UNL A   1      -1.815   1.518  -1.025  0.00  0.00    -0.019 C 
BRANCH  28  31
ATOM     29  C   UNL A   1       0.315  -1.404   0.189  0.00  0.00    +0.165 A 
ATOM     30  C   UNL A   1      -0.789  -0.602  -0.124  0.00  0.00    -0.013 A 
ATOM     31  C   UNL A   1      -0.615   0.652  -0.721  0.00  0.00    -0.040 A 
ATOM     32  C   UNL A   1       0.685   1.098  -0.983  0.00  0.00    -0.013 A 
ATOM     33  C   UNL A   1       1.802   0.326  -0.622  0.00  0.00    +0.165 A 
ATOM     34  C   UNL A   1       1.628  -0.945  -0.049  0.00  0.00    +0.204 A 
BRANCH  29  36
ATOM     35  C   UNL A   1      -0.944  -3.398   0.369  0.00  0.00    +0.079 C 
ATOM     36  O   UNL A   1       0.181  -2.635   0.790  0.00  0.00    -0.491 OA
ENDBRANCH  29  36
BRANCH  33  37
ATOM     37  O   UNL A   1       3.058   0.810  -0.889  0.00  0.00    -0.491 OA
ATOM     38  C   UNL A   1       3.306   2.073  -0.271  0.00  0.00    +0.079 C 
ENDBRANCH  33  37
BRANCH  34  39
ATOM     39  O   UNL A   1       2.609  -1.819   0.348  0.00  0.00    -0.488 OA
ATOM     40  C   UNL A   1       3.949  -1.588  -0.052  0.00  0.00    +0.079 C 
ENDBRANCH  34  39
ENDBRANCH  28  31
ENDBRANCH  27  28
ENDBRANCH  23  27
ENDBRANCH  22  25
ENDBRANCH   1  22
TORSDOF 11
