REMARK  Name = cpd15.pdb
REMARK  19 active torsions:
REMARK  status: ('A' for Active; 'I' for Inactive)
REMARK    1  A    between atoms: C_1  and  C_2
REMARK    2  A    between atoms: C_6  and  N_7
REMARK    3  A    between atoms: N_7  and  C_8
REMARK    4  A    between atoms: C_13  and  C_14
REMARK    5  A    between atoms: N_16  and  C_17
REMARK    6  A    between atoms: C_17  and  C_18
REMARK    7  A    between atoms: C_18  and  C_19
REMARK    8  A    between atoms: C_19  and  C_20
REMARK    9  A    between atoms: C_20  and  C_21
REMARK   10  A    between atoms: C_21  and  C_22
REMARK   11  A    between atoms: N_24  and  C_25
REMARK   12  A    between atoms: C_25  and  C_26
REMARK   13  A    between atoms: C_26  and  C_27
REMARK   14  A    between atoms: C_27  and  C_28
REMARK   15  A    between atoms: C_28  and  C_29
REMARK   16  A    between atoms: C_29  and  C_30
REMARK   17  A    between atoms: C_30  and  N_31
REMARK   18  A    between atoms: N_31  and  C_32
REMARK   19  A    between atoms: C_47  and  C_48
REMARK                            x       y       z     vdW  Elec       q    Type
REMARK                         _______ _______ _______ _____ _____    ______ ____
ROOT
ATOM      1  C   UNL A   1       7.682   4.972   1.281  0.00  0.00    +0.213 C 
ATOM      2  O   UNL A   1       8.732   4.382   1.520  0.00  0.00    -0.276 OA
ATOM      3  N   UNL A   1       7.614   6.307   0.947  0.00  0.00    -0.315 N 
ATOM      4  H   UNL A   1       6.737   6.750   0.892  0.00  0.00    +0.000 HD
ENDROOT
BRANCH   1   5
ATOM      5  C   UNL A   1       6.346   4.261   1.279  0.00  0.00    +0.024 C 
BRANCH   5   6
ATOM      6  C   UNL A   1       5.850   4.070  -0.153  0.00  0.00    -0.045 C 
BRANCH   6   7
ATOM      7  C   UNL A   1       4.812   2.957  -0.300  0.00  0.00    -0.051 C 
BRANCH   7   8
ATOM      8  C   UNL A   1       3.516   3.222   0.472  0.00  0.00    -0.037 C 
BRANCH   8   9
ATOM      9  C   UNL A   1       2.474   2.122   0.246  0.00  0.00    +0.012 C 
BRANCH   9  12
ATOM     10  C   UNL A   1       1.077   2.962  -1.686  0.00  0.00    +0.246 C 
ATOM     11  O   UNL A   1       1.102   3.197  -2.889  0.00  0.00    -0.270 OA
ATOM     12  N   UNL A   1       1.990   2.096  -1.128  0.00  0.00    -0.311 N 
ATOM     13  H   UNL A   1       2.351   1.391  -1.714  0.00  0.00    +0.000 HD
BRANCH  10  19
ATOM     14  C   UNL A   1      -0.847   2.847  -0.056  0.00  0.00    +0.044 A 
ATOM     15  C   UNL A   1      -1.766   3.551   0.738  0.00  0.00    -0.040 A 
ATOM     16  C   UNL A   1      -1.813   4.949   0.731  0.00  0.00    -0.060 A 
ATOM     17  C   UNL A   1      -0.938   5.676  -0.073  0.00  0.00    -0.061 A 
ATOM     18  C   UNL A   1      -0.001   5.005  -0.854  0.00  0.00    -0.048 A 
ATOM     19  C   UNL A   1       0.062   3.604  -0.824  0.00  0.00    +0.058 A 
BRANCH  14  20
ATOM     20  N   UNL A   1      -0.821   1.433  -0.053  0.00  0.00    -0.314 N 
ATOM     21  H   UNL A   1       0.078   1.037  -0.120  0.00  0.00    +0.000 HD
BRANCH  20  27
ATOM     22  C   UNL A   1      -2.411  -3.216   0.896  0.00  0.00    -0.039 C 
ATOM     23  C   UNL A   1      -2.649  -1.788   0.483  0.00  0.00    -0.046 A 
ATOM     24  C   UNL A   1      -3.950  -1.401   0.131  0.00  0.00    -0.058 A 
ATOM     25  C   UNL A   1      -4.220  -0.097  -0.268  0.00  0.00    -0.060 A 
ATOM     26  C   UNL A   1      -3.190   0.839  -0.324  0.00  0.00    -0.040 A 
ATOM     27  C   UNL A   1      -1.879   0.494   0.031  0.00  0.00    +0.035 A 
ATOM     28  C   UNL A   1      -1.607  -0.829   0.462  0.00  0.00    -0.026 A 
ATOM     29  C   UNL A   1      -0.200  -1.222   0.847  0.00  0.00    -0.038 C 
ENDBRANCH  20  27
ENDBRANCH  14  20
ENDBRANCH  10  19
ENDBRANCH   9  12
ENDBRANCH   8   9
ENDBRANCH   7   8
ENDBRANCH   6   7
ENDBRANCH   5   6
ENDBRANCH   1   5
BRANCH   3  30
ATOM     30  C   UNL A   1       8.818   7.067   0.675  0.00  0.00    +0.012 C 
BRANCH  30  31
ATOM     31  C   UNL A   1       9.231   6.901  -0.787  0.00  0.00    -0.037 C 
BRANCH  31  32
ATOM     32  C   UNL A   1      10.602   7.493  -1.119  0.00  0.00    -0.052 C 
BRANCH  32  33
ATOM     33  C   UNL A   1      11.751   6.732  -0.450  0.00  0.00    -0.052 C 
BRANCH  33  34
ATOM     34  C   UNL A   1      13.096   7.068  -1.094  0.00  0.00    -0.037 C 
BRANCH  34  35
ATOM     35  C   UNL A   1      14.240   6.306  -0.422  0.00  0.00    +0.009 C 
BRANCH  35  36
ATOM     36  N   UNL A   1      15.459   6.473  -1.226  0.00  0.00    -0.343 N 
ATOM     37  H   UNL A   1      15.516   7.044  -2.026  0.00  0.00    +0.000 HD
BRANCH  36  38
ATOM     38  C   UNL A   1      16.549   5.711  -0.711  0.00  0.00    +0.041 A 
ATOM     39  C   UNL A   1      17.496   6.306   0.148  0.00  0.00    -0.005 A 
ATOM     40  C   UNL A   1      18.509   5.489   0.658  0.00  0.00    +0.047 A 
ATOM     41  N   UNL A   1      18.586   4.159   0.412  0.00  0.00    -0.251 NA
ATOM     42  C   UNL A   1      17.679   3.591  -0.391  0.00  0.00    +0.074 A 
ATOM     43  C   UNL A   1      17.787   2.230  -0.635  0.00  0.00    -0.017 A 
ATOM     44  C   UNL A   1      16.893   1.571  -1.475  0.00  0.00    +0.043 A 
ATOM     45 CL   UNL A   1      17.061  -0.119  -1.750  0.00  0.00    -0.083 Cl
ATOM     46  C   UNL A   1      15.870   2.271  -2.097  0.00  0.00    -0.043 A 
ATOM     47  C   UNL A   1      15.746   3.639  -1.861  0.00  0.00    -0.049 A 
ATOM     48  C   UNL A   1      16.635   4.319  -0.994  0.00  0.00    +0.022 A 
ATOM     49  C   UNL A   1      19.573   6.024   1.582  0.00  0.00    -0.010 C 
ATOM     50  C   UNL A   1      19.740   7.536   1.493  0.00  0.00    -0.047 C 
ATOM     51  C   UNL A   1      18.381   8.208   1.608  0.00  0.00    -0.049 C 
ATOM     52  C   UNL A   1      17.475   7.786   0.451  0.00  0.00    -0.024 C 
ENDBRANCH  36  38
ENDBRANCH  35  36
ENDBRANCH  34  35
ENDBRANCH  33  34
ENDBRANCH  32  33
ENDBRANCH  31  32
ENDBRANCH  30  31
ENDBRANCH   3  30
TORSDOF 17
