MODEL 1
REMARK VINA RESULT:    -6.583      0.000      0.000
REMARK INTER + INTRA:         -20.242
REMARK INTER:                 -13.126
REMARK INTRA:                  -7.116
REMARK UNBOUND:                -7.116
REMARK  Name = cpd15.pdb
REMARK  19 active torsions:
REMARK  status: ('A' for Active; 'I' for Inactive)
REMARK    1  A    between atoms: C_1  and  C_2
REMARK    2  A    between atoms: C_6  and  N_7
REMARK    3  A    between atoms: N_7  and  C_8
REMARK    4  A    between atoms: C_13  and  C_14
REMARK    5  A    between atoms: N_16  and  C_17
REMARK    6  A    between atoms: C_17  and  C_18
REMARK    7  A    between atoms: C_18  and  C_19
REMARK    8  A    between atoms: C_19  and  C_20
REMARK    9  A    between atoms: C_20  and  C_21
REMARK   10  A    between atoms: C_21  and  C_22
REMARK   11  A    between atoms: N_24  and  C_25
REMARK   12  A    between atoms: C_25  and  C_26
REMARK   13  A    between atoms: C_26  and  C_27
REMARK   14  A    between atoms: C_27  and  C_28
REMARK   15  A    between atoms: C_28  and  C_29
REMARK   16  A    between atoms: C_29  and  C_30
REMARK   17  A    between atoms: C_30  and  N_31
REMARK   18  A    between atoms: N_31  and  C_32
REMARK   19  A    between atoms: C_47  and  C_48
REMARK                            x       y       z     vdW  Elec       q    Type
REMARK                         _______ _______ _______ _____ _____    ______ ____
ROOT
ATOM      1  C   UNL A   1      39.961 -15.128 -39.743  0.00  0.00    +0.213 C 
ATOM      2  O   UNL A   1      39.901 -14.224 -38.915  0.00  0.00    -0.276 OA
ATOM      3  N   UNL A   1      40.860 -15.151 -40.787  0.00  0.00    -0.315 N 
ATOM      4  H   UNL A   1      40.774 -15.836 -41.488  0.00  0.00    +0.000 HD
ENDROOT
BRANCH   1   5
ATOM      5  C   UNL A   1      39.071 -16.350 -39.662  0.00  0.00    +0.024 C 
BRANCH   5   6
ATOM      6  C   UNL A   1      39.474 -17.221 -38.474  0.00  0.00    -0.045 C 
BRANCH   6   7
ATOM      7  C   UNL A   1      38.286 -17.806 -37.711  0.00  0.00    -0.051 C 
BRANCH   7   8
ATOM      8  C   UNL A   1      38.434 -19.299 -37.398  0.00  0.00    -0.037 C 
BRANCH   8   9
ATOM      9  C   UNL A   1      39.655 -19.915 -38.088  0.00  0.00    +0.012 C 
BRANCH   9  12
ATOM     10  C   UNL A   1      40.918 -22.104 -38.075  0.00  0.00    +0.246 C 
ATOM     11  O   UNL A   1      41.272 -23.032 -37.355  0.00  0.00    -0.270 OA
ATOM     12  N   UNL A   1      39.857 -21.307 -37.710  0.00  0.00    -0.311 N 
ATOM     13  H   UNL A   1      39.167 -21.718 -37.138  0.00  0.00    +0.000 HD
BRANCH  10  19
ATOM     14  C   UNL A   1      42.800 -21.056 -39.390  0.00  0.00    +0.044 A 
ATOM     15  C   UNL A   1      43.404 -20.869 -40.644  0.00  0.00    -0.040 A 
ATOM     16  C   UNL A   1      42.837 -21.393 -41.810  0.00  0.00    -0.060 A 
ATOM     17  C   UNL A   1      41.650 -22.120 -41.748  0.00  0.00    -0.061 A 
ATOM     18  C   UNL A   1      41.041 -22.341 -40.515  0.00  0.00    -0.048 A 
ATOM     19  C   UNL A   1      41.627 -21.837 -39.344  0.00  0.00    +0.058 A 
BRANCH  14  20
ATOM     20  N   UNL A   1      43.374 -20.507 -38.221  0.00  0.00    -0.314 N 
ATOM     21  H   UNL A   1      44.014 -21.096 -37.759  0.00  0.00    +0.000 HD
BRANCH  20  27
ATOM     22  C   UNL A   1      42.299 -17.801 -34.151  0.00  0.00    -0.039 C 
ATOM     23  C   UNL A   1      42.636 -17.926 -35.612  0.00  0.00    -0.046 A 
ATOM     24  C   UNL A   1      42.712 -16.758 -36.385  0.00  0.00    -0.058 A 
ATOM     25  C   UNL A   1      43.009 -16.822 -37.741  0.00  0.00    -0.060 A 
ATOM     26  C   UNL A   1      43.233 -18.056 -38.346  0.00  0.00    -0.040 A 
ATOM     27  C   UNL A   1      43.178 -19.245 -37.606  0.00  0.00    +0.035 A 
ATOM     28  C   UNL A   1      42.899 -19.180 -36.217  0.00  0.00    -0.026 A 
ATOM     29  C   UNL A   1      42.834 -20.450 -35.401  0.00  0.00    -0.038 C 
ENDBRANCH  20  27
ENDBRANCH  14  20
ENDBRANCH  10  19
ENDBRANCH   9  12
ENDBRANCH   8   9
ENDBRANCH   7   8
ENDBRANCH   6   7
ENDBRANCH   5   6
ENDBRANCH   1   5
BRANCH   3  30
ATOM     30  C   UNL A   1      41.932 -14.178 -40.865  0.00  0.00    +0.012 C 
BRANCH  30  31
ATOM     31  C   UNL A   1      43.147 -14.783 -41.567  0.00  0.00    -0.037 C 
BRANCH  31  32
ATOM     32  C   UNL A   1      43.168 -16.313 -41.571  0.00  0.00    -0.052 C 
BRANCH  32  33
ATOM     33  C   UNL A   1      44.587 -16.884 -41.495  0.00  0.00    -0.052 C 
BRANCH  33  34
ATOM     34  C   UNL A   1      45.585 -15.841 -40.991  0.00  0.00    -0.037 C 
BRANCH  34  35
ATOM     35  C   UNL A   1      45.943 -16.078 -39.523  0.00  0.00    +0.009 C 
BRANCH  35  36
ATOM     36  N   UNL A   1      47.199 -16.840 -39.457  0.00  0.00    -0.343 N 
ATOM     37  H   UNL A   1      48.059 -16.513 -39.806  0.00  0.00    +0.000 HD
BRANCH  36  38
ATOM     38  C   UNL A   1      47.023 -18.108 -38.830  0.00  0.00    +0.041 A 
ATOM     39  C   UNL A   1      46.789 -18.194 -37.442  0.00  0.00    -0.005 A 
ATOM     40  C   UNL A   1      46.574 -19.465 -36.900  0.00  0.00    +0.047 A 
ATOM     41  N   UNL A   1      46.525 -20.593 -37.648  0.00  0.00    -0.251 NA
ATOM     42  C   UNL A   1      46.733 -20.511 -38.967  0.00  0.00    +0.074 A 
ATOM     43  C   UNL A   1      46.688 -21.682 -39.708  0.00  0.00    -0.017 A 
ATOM     44  C   UNL A   1      46.913 -21.680 -41.082  0.00  0.00    +0.043 A 
ATOM     45 CL   UNL A   1      46.847 -23.156 -41.964  0.00  0.00    -0.083 Cl
ATOM     46  C   UNL A   1      47.197 -20.495 -41.744  0.00  0.00    -0.043 A 
ATOM     47  C   UNL A   1      47.243 -19.308 -41.014  0.00  0.00    -0.049 A 
ATOM     48  C   UNL A   1      46.997 -19.291 -39.620  0.00  0.00    +0.022 A 
ATOM     49  C   UNL A   1      46.317 -19.669 -35.429  0.00  0.00    -0.010 C 
ATOM     50  C   UNL A   1      46.803 -18.509 -34.568  0.00  0.00    -0.047 C 
ATOM     51  C   UNL A   1      46.291 -17.198 -35.141  0.00  0.00    -0.049 C 
ATOM     52  C   UNL A   1      46.844 -16.976 -36.549  0.00  0.00    -0.024 C 
ENDBRANCH  36  38
ENDBRANCH  35  36
ENDBRANCH  34  35
ENDBRANCH  33  34
ENDBRANCH  32  33
ENDBRANCH  31  32
ENDBRANCH  30  31
ENDBRANCH   3  30
TORSDOF 17
ENDMDL
MODEL 2
REMARK VINA RESULT:    -6.203      2.394      6.597
REMARK INTER + INTRA:         -19.483
REMARK INTER:                 -14.182
REMARK INTRA:                  -5.301
REMARK UNBOUND:                -7.116
REMARK  Name = cpd15.pdb
REMARK  19 active torsions:
REMARK  status: ('A' for Active; 'I' for Inactive)
REMARK    1  A    between atoms: C_1  and  C_2
REMARK    2  A    between atoms: C_6  and  N_7
REMARK    3  A    between atoms: N_7  and  C_8
REMARK    4  A    between atoms: C_13  and  C_14
REMARK    5  A    between atoms: N_16  and  C_17
REMARK    6  A    between atoms: C_17  and  C_18
REMARK    7  A    between atoms: C_18  and  C_19
REMARK    8  A    between atoms: C_19  and  C_20
REMARK    9  A    between atoms: C_20  and  C_21
REMARK   10  A    between atoms: C_21  and  C_22
REMARK   11  A    between atoms: N_24  and  C_25
REMARK   12  A    between atoms: C_25  and  C_26
REMARK   13  A    between atoms: C_26  and  C_27
REMARK   14  A    between atoms: C_27  and  C_28
REMARK   15  A    between atoms: C_28  and  C_29
REMARK   16  A    between atoms: C_29  and  C_30
REMARK   17  A    between atoms: C_30  and  N_31
REMARK   18  A    between atoms: N_31  and  C_32
REMARK   19  A    between atoms: C_47  and  C_48
REMARK                            x       y       z     vdW  Elec       q    Type
REMARK                         _______ _______ _______ _____ _____    ______ ____
ROOT
ATOM      1  C   UNL A   1      38.149 -16.607 -38.430  0.00  0.00    +0.213 C 
ATOM      2  O   UNL A   1      37.876 -15.651 -37.709  0.00  0.00    -0.276 OA
ATOM      3  N   UNL A   1      38.044 -17.921 -38.029  0.00  0.00    -0.315 N 
ATOM      4  H   UNL A   1      38.397 -18.635 -38.607  0.00  0.00    +0.000 HD
ENDROOT
BRANCH   1   5
ATOM      5  C   UNL A   1      38.581 -16.428 -39.869  0.00  0.00    +0.024 C 
BRANCH   5   6
ATOM      6  C   UNL A   1      40.098 -16.272 -39.951  0.00  0.00    -0.045 C 
BRANCH   6   7
ATOM      7  C   UNL A   1      40.857 -17.106 -38.918  0.00  0.00    -0.051 C 
BRANCH   7   8
ATOM      8  C   UNL A   1      42.058 -16.379 -38.307  0.00  0.00    -0.037 C 
BRANCH   8   9
ATOM      9  C   UNL A   1      43.374 -17.122 -38.559  0.00  0.00    +0.012 C 
BRANCH   9  12
ATOM     10  C   UNL A   1      45.832 -16.633 -38.232  0.00  0.00    +0.246 C 
ATOM     11  O   UNL A   1      46.763 -15.951 -38.647  0.00  0.00    -0.270 OA
ATOM     12  N   UNL A   1      44.531 -16.243 -38.459  0.00  0.00    -0.311 N 
ATOM     13  H   UNL A   1      44.367 -15.277 -38.562  0.00  0.00    +0.000 HD
BRANCH  10  19
ATOM     14  C   UNL A   1      46.606 -19.032 -38.112  0.00  0.00    +0.044 A 
ATOM     15  C   UNL A   1      46.835 -20.161 -37.309  0.00  0.00    -0.040 A 
ATOM     16  C   UNL A   1      46.525 -20.158 -35.945  0.00  0.00    -0.060 A 
ATOM     17  C   UNL A   1      45.978 -19.022 -35.352  0.00  0.00    -0.061 A 
ATOM     18  C   UNL A   1      45.761 -17.881 -36.119  0.00  0.00    -0.048 A 
ATOM     19  C   UNL A   1      46.099 -17.877 -37.481  0.00  0.00    +0.058 A 
BRANCH  14  20
ATOM     20  N   UNL A   1      46.908 -19.053 -39.494  0.00  0.00    -0.314 N 
ATOM     21  H   UNL A   1      47.824 -18.772 -39.720  0.00  0.00    +0.000 HD
BRANCH  20  27
ATOM     22  C   UNL A   1      45.518 -22.436 -42.909  0.00  0.00    -0.039 C 
ATOM     23  C   UNL A   1      45.440 -21.069 -42.283  0.00  0.00    -0.046 A 
ATOM     24  C   UNL A   1      44.579 -20.121 -42.853  0.00  0.00    -0.058 A 
ATOM     25  C   UNL A   1      44.478 -18.841 -42.320  0.00  0.00    -0.060 A 
ATOM     26  C   UNL A   1      45.242 -18.490 -41.210  0.00  0.00    -0.040 A 
ATOM     27  C   UNL A   1      46.106 -19.413 -40.605  0.00  0.00    +0.035 A 
ATOM     28  C   UNL A   1      46.190 -20.726 -41.132  0.00  0.00    -0.026 A 
ATOM     29  C   UNL A   1      47.117 -21.736 -40.496  0.00  0.00    -0.038 C 
ENDBRANCH  20  27
ENDBRANCH  14  20
ENDBRANCH  10  19
ENDBRANCH   9  12
ENDBRANCH   8   9
ENDBRANCH   7   8
ENDBRANCH   6   7
ENDBRANCH   5   6
ENDBRANCH   1   5
BRANCH   3  30
ATOM     30  C   UNL A   1      37.421 -18.265 -36.766  0.00  0.00    +0.012 C 
BRANCH  30  31
ATOM     31  C   UNL A   1      38.257 -19.312 -36.030  0.00  0.00    -0.037 C 
BRANCH  31  32
ATOM     32  C   UNL A   1      38.820 -18.832 -34.691  0.00  0.00    -0.052 C 
BRANCH  32  33
ATOM     33  C   UNL A   1      39.935 -17.795 -34.858  0.00  0.00    -0.052 C 
BRANCH  33  34
ATOM     34  C   UNL A   1      41.294 -18.362 -34.447  0.00  0.00    -0.037 C 
BRANCH  34  35
ATOM     35  C   UNL A   1      42.069 -18.883 -35.659  0.00  0.00    +0.009 C 
BRANCH  35  36
ATOM     36  N   UNL A   1      42.494 -20.264 -35.393  0.00  0.00    -0.343 N 
ATOM     37  H   UNL A   1      43.272 -20.503 -34.840  0.00  0.00    +0.000 HD
BRANCH  36  38
ATOM     38  C   UNL A   1      41.646 -21.218 -36.030  0.00  0.00    +0.041 A 
ATOM     39  C   UNL A   1      40.657 -21.902 -35.294  0.00  0.00    -0.005 A 
ATOM     40  C   UNL A   1      39.827 -22.784 -35.991  0.00  0.00    +0.047 A 
ATOM     41  N   UNL A   1      39.892 -22.964 -37.332  0.00  0.00    -0.251 NA
ATOM     42  C   UNL A   1      40.820 -22.303 -38.034  0.00  0.00    +0.074 A 
ATOM     43  C   UNL A   1      40.873 -22.514 -39.404  0.00  0.00    -0.017 A 
ATOM     44  C   UNL A   1      41.823 -21.878 -40.199  0.00  0.00    +0.043 A 
ATOM     45 CL   UNL A   1      41.853 -22.165 -41.895  0.00  0.00    -0.083 Cl
ATOM     46  C   UNL A   1      42.750 -21.018 -39.630  0.00  0.00    -0.043 A 
ATOM     47  C   UNL A   1      42.710 -20.794 -38.255  0.00  0.00    -0.049 A 
ATOM     48  C   UNL A   1      41.738 -21.417 -37.436  0.00  0.00    +0.022 A 
ATOM     49  C   UNL A   1      38.740 -23.568 -35.300  0.00  0.00    -0.010 C 
ATOM     50  C   UNL A   1      38.959 -23.701 -33.798  0.00  0.00    -0.047 C 
ATOM     51  C   UNL A   1      39.255 -22.335 -33.201  0.00  0.00    -0.049 C 
ATOM     52  C   UNL A   1      40.540 -21.758 -33.794  0.00  0.00    -0.024 C 
ENDBRANCH  36  38
ENDBRANCH  35  36
ENDBRANCH  34  35
ENDBRANCH  33  34
ENDBRANCH  32  33
ENDBRANCH  31  32
ENDBRANCH  30  31
ENDBRANCH   3  30
TORSDOF 17
ENDMDL
MODEL 3
REMARK VINA RESULT:    -6.019      2.550      7.714
REMARK INTER + INTRA:         -19.117
REMARK INTER:                 -13.458
REMARK INTRA:                  -5.659
REMARK UNBOUND:                -7.116
REMARK  Name = cpd15.pdb
REMARK  19 active torsions:
REMARK  status: ('A' for Active; 'I' for Inactive)
REMARK    1  A    between atoms: C_1  and  C_2
REMARK    2  A    between atoms: C_6  and  N_7
REMARK    3  A    between atoms: N_7  and  C_8
REMARK    4  A    between atoms: C_13  and  C_14
REMARK    5  A    between atoms: N_16  and  C_17
REMARK    6  A    between atoms: C_17  and  C_18
REMARK    7  A    between atoms: C_18  and  C_19
REMARK    8  A    between atoms: C_19  and  C_20
REMARK    9  A    between atoms: C_20  and  C_21
REMARK   10  A    between atoms: C_21  and  C_22
REMARK   11  A    between atoms: N_24  and  C_25
REMARK   12  A    between atoms: C_25  and  C_26
REMARK   13  A    between atoms: C_26  and  C_27
REMARK   14  A    between atoms: C_27  and  C_28
REMARK   15  A    between atoms: C_28  and  C_29
REMARK   16  A    between atoms: C_29  and  C_30
REMARK   17  A    between atoms: C_30  and  N_31
REMARK   18  A    between atoms: N_31  and  C_32
REMARK   19  A    between atoms: C_47  and  C_48
REMARK                            x       y       z     vdW  Elec       q    Type
REMARK                         _______ _______ _______ _____ _____    ______ ____
ROOT
ATOM      1  C   UNL A   1      43.286 -20.574 -35.782  0.00  0.00    +0.213 C 
ATOM      2  O   UNL A   1      44.353 -20.483 -35.181  0.00  0.00    -0.276 OA
ATOM      3  N   UNL A   1      42.061 -20.663 -35.158  0.00  0.00    -0.315 N 
ATOM      4  H   UNL A   1      41.258 -20.861 -35.691  0.00  0.00    +0.000 HD
ENDROOT
BRANCH   1   5
ATOM      5  C   UNL A   1      43.214 -20.540 -37.294  0.00  0.00    +0.024 C 
BRANCH   5   6
ATOM      6  C   UNL A   1      43.736 -19.205 -37.820  0.00  0.00    -0.045 C 
BRANCH   6   7
ATOM      7  C   UNL A   1      42.816 -18.022 -37.513  0.00  0.00    -0.051 C 
BRANCH   7   8
ATOM      8  C   UNL A   1      43.253 -16.716 -38.183  0.00  0.00    -0.037 C 
BRANCH   8   9
ATOM      9  C   UNL A   1      44.121 -15.855 -37.259  0.00  0.00    +0.012 C 
BRANCH   9  12
ATOM     10  C   UNL A   1      46.474 -16.078 -38.155  0.00  0.00    +0.246 C 
ATOM     11  O   UNL A   1      47.194 -15.804 -39.109  0.00  0.00    -0.270 OA
ATOM     12  N   UNL A   1      45.319 -15.365 -37.928  0.00  0.00    -0.311 N 
ATOM     13  H   UNL A   1      45.300 -14.434 -38.250  0.00  0.00    +0.000 HD
BRANCH  10  19
ATOM     14  C   UNL A   1      47.189 -18.458 -37.710  0.00  0.00    +0.044 A 
ATOM     15  C   UNL A   1      47.535 -19.429 -36.757  0.00  0.00    -0.040 A 
ATOM     16  C   UNL A   1      47.491 -19.152 -35.387  0.00  0.00    -0.060 A 
ATOM     17  C   UNL A   1      47.099 -17.892 -34.938  0.00  0.00    -0.061 A 
ATOM     18  C   UNL A   1      46.772 -16.903 -35.862  0.00  0.00    -0.048 A 
ATOM     19  C   UNL A   1      46.844 -17.175 -37.236  0.00  0.00    +0.058 A 
BRANCH  14  20
ATOM     20  N   UNL A   1      47.222 -18.756 -39.093  0.00  0.00    -0.314 N 
ATOM     21  H   UNL A   1      47.758 -18.134 -39.636  0.00  0.00    +0.000 HD
BRANCH  20  27
ATOM     22  C   UNL A   1      44.034 -20.263 -42.643  0.00  0.00    -0.039 C 
ATOM     23  C   UNL A   1      45.034 -20.536 -41.552  0.00  0.00    -0.046 A 
ATOM     24  C   UNL A   1      45.323 -21.869 -41.228  0.00  0.00    -0.058 A 
ATOM     25  C   UNL A   1      46.232 -22.174 -40.220  0.00  0.00    -0.060 A 
ATOM     26  C   UNL A   1      46.861 -21.149 -39.520  0.00  0.00    -0.040 A 
ATOM     27  C   UNL A   1      46.608 -19.804 -39.822  0.00  0.00    +0.035 A 
ATOM     28  C   UNL A   1      45.701 -19.492 -40.866  0.00  0.00    -0.026 A 
ATOM     29  C   UNL A   1      45.411 -18.048 -41.206  0.00  0.00    -0.038 C 
ENDBRANCH  20  27
ENDBRANCH  14  20
ENDBRANCH  10  19
ENDBRANCH   9  12
ENDBRANCH   8   9
ENDBRANCH   7   8
ENDBRANCH   6   7
ENDBRANCH   5   6
ENDBRANCH   1   5
BRANCH   3  30
ATOM     30  C   UNL A   1      41.941 -20.470 -33.727  0.00  0.00    +0.012 C 
BRANCH  30  31
ATOM     31  C   UNL A   1      41.938 -18.979 -33.391  0.00  0.00    -0.037 C 
BRANCH  31  32
ATOM     32  C   UNL A   1      40.559 -18.322 -33.480  0.00  0.00    -0.052 C 
BRANCH  32  33
ATOM     33  C   UNL A   1      40.550 -17.090 -34.390  0.00  0.00    -0.052 C 
BRANCH  33  34
ATOM     34  C   UNL A   1      39.187 -16.894 -35.054  0.00  0.00    -0.037 C 
BRANCH  34  35
ATOM     35  C   UNL A   1      39.149 -17.531 -36.445  0.00  0.00    +0.009 C 
BRANCH  35  36
ATOM     36  N   UNL A   1      38.062 -18.520 -36.485  0.00  0.00    -0.343 N 
ATOM     37  H   UNL A   1      37.108 -18.286 -36.544  0.00  0.00    +0.000 HD
BRANCH  36  38
ATOM     38  C   UNL A   1      38.553 -19.858 -36.428  0.00  0.00    +0.041 A 
ATOM     39  C   UNL A   1      38.268 -20.679 -35.318  0.00  0.00    -0.005 A 
ATOM     40  C   UNL A   1      38.735 -21.996 -35.350  0.00  0.00    +0.047 A 
ATOM     41  N   UNL A   1      39.390 -22.526 -36.411  0.00  0.00    -0.251 NA
ATOM     42  C   UNL A   1      39.648 -21.752 -37.471  0.00  0.00    +0.074 A 
ATOM     43  C   UNL A   1      40.330 -22.316 -38.539  0.00  0.00    -0.017 A 
ATOM     44  C   UNL A   1      40.652 -21.569 -39.669  0.00  0.00    +0.043 A 
ATOM     45 CL   UNL A   1      41.497 -22.308 -40.973  0.00  0.00    -0.083 Cl
ATOM     46  C   UNL A   1      40.300 -20.230 -39.748  0.00  0.00    -0.043 A 
ATOM     47  C   UNL A   1      39.613 -19.648 -38.685  0.00  0.00    -0.049 A 
ATOM     48  C   UNL A   1      39.261 -20.399 -37.538  0.00  0.00    +0.022 A 
ATOM     49  C   UNL A   1      38.488 -22.956 -34.215  0.00  0.00    -0.010 C 
ATOM     50  C   UNL A   1      38.167 -22.259 -32.899  0.00  0.00    -0.047 C 
ATOM     51  C   UNL A   1      37.077 -21.222 -33.122  0.00  0.00    -0.049 C 
ATOM     52  C   UNL A   1      37.554 -20.146 -34.097  0.00  0.00    -0.024 C 
ENDBRANCH  36  38
ENDBRANCH  35  36
ENDBRANCH  34  35
ENDBRANCH  33  34
ENDBRANCH  32  33
ENDBRANCH  31  32
ENDBRANCH  30  31
ENDBRANCH   3  30
TORSDOF 17
ENDMDL
MODEL 4
REMARK VINA RESULT:    -5.775      1.492      2.001
REMARK INTER + INTRA:         -18.631
REMARK INTER:                 -12.978
REMARK INTRA:                  -5.652
REMARK UNBOUND:                -7.116
REMARK  Name = cpd15.pdb
REMARK  19 active torsions:
REMARK  status: ('A' for Active; 'I' for Inactive)
REMARK    1  A    between atoms: C_1  and  C_2
REMARK    2  A    between atoms: C_6  and  N_7
REMARK    3  A    between atoms: N_7  and  C_8
REMARK    4  A    between atoms: C_13  and  C_14
REMARK    5  A    between atoms: N_16  and  C_17
REMARK    6  A    between atoms: C_17  and  C_18
REMARK    7  A    between atoms: C_18  and  C_19
REMARK    8  A    between atoms: C_19  and  C_20
REMARK    9  A    between atoms: C_20  and  C_21
REMARK   10  A    between atoms: C_21  and  C_22
REMARK   11  A    between atoms: N_24  and  C_25
REMARK   12  A    between atoms: C_25  and  C_26
REMARK   13  A    between atoms: C_26  and  C_27
REMARK   14  A    between atoms: C_27  and  C_28
REMARK   15  A    between atoms: C_28  and  C_29
REMARK   16  A    between atoms: C_29  and  C_30
REMARK   17  A    between atoms: C_30  and  N_31
REMARK   18  A    between atoms: N_31  and  C_32
REMARK   19  A    between atoms: C_47  and  C_48
REMARK                            x       y       z     vdW  Elec       q    Type
REMARK                         _______ _______ _______ _____ _____    ______ ____
ROOT
ATOM      1  C   UNL A   1      39.355 -16.153 -38.771  0.00  0.00    +0.213 C 
ATOM      2  O   UNL A   1      38.484 -16.033 -39.628  0.00  0.00    -0.276 OA
ATOM      3  N   UNL A   1      40.705 -16.148 -39.048  0.00  0.00    -0.315 N 
ATOM      4  H   UNL A   1      41.348 -16.375 -38.338  0.00  0.00    +0.000 HD
ENDROOT
BRANCH   1   5
ATOM      5  C   UNL A   1      39.022 -16.267 -37.300  0.00  0.00    +0.024 C 
BRANCH   5   6
ATOM      6  C   UNL A   1      39.609 -17.554 -36.722  0.00  0.00    -0.045 C 
BRANCH   6   7
ATOM      7  C   UNL A   1      38.842 -18.089 -35.512  0.00  0.00    -0.051 C 
BRANCH   7   8
ATOM      8  C   UNL A   1      38.263 -19.491 -35.724  0.00  0.00    -0.037 C 
BRANCH   8   9
ATOM      9  C   UNL A   1      38.758 -20.129 -37.026  0.00  0.00    +0.012 C 
BRANCH   9  12
ATOM     10  C   UNL A   1      39.837 -22.410 -37.176  0.00  0.00    +0.246 C 
ATOM     11  O   UNL A   1      39.892 -23.509 -36.635  0.00  0.00    -0.270 OA
ATOM     12  N   UNL A   1      38.757 -21.584 -36.962  0.00  0.00    -0.311 N 
ATOM     13  H   UNL A   1      37.900 -22.019 -36.744  0.00  0.00    +0.000 HD
BRANCH  10  19
ATOM     14  C   UNL A   1      42.146 -21.464 -37.557  0.00  0.00    +0.044 A 
ATOM     15  C   UNL A   1      43.125 -21.075 -38.485  0.00  0.00    -0.040 A 
ATOM     16  C   UNL A   1      42.885 -21.132 -39.862  0.00  0.00    -0.060 A 
ATOM     17  C   UNL A   1      41.657 -21.582 -40.342  0.00  0.00    -0.061 A 
ATOM     18  C   UNL A   1      40.676 -21.996 -39.445  0.00  0.00    -0.048 A 
ATOM     19  C   UNL A   1      40.929 -21.963 -38.066  0.00  0.00    +0.058 A 
BRANCH  14  20
ATOM     20  N   UNL A   1      42.394 -21.386 -36.167  0.00  0.00    -0.314 N 
ATOM     21  H   UNL A   1      42.675 -22.232 -35.750  0.00  0.00    +0.000 HD
BRANCH  20  27
ATOM     22  C   UNL A   1      40.442 -19.292 -32.063  0.00  0.00    -0.039 C 
ATOM     23  C   UNL A   1      41.334 -19.261 -33.275  0.00  0.00    -0.046 A 
ATOM     24  C   UNL A   1      42.056 -18.089 -33.544  0.00  0.00    -0.058 A 
ATOM     25  C   UNL A   1      42.886 -18.006 -34.657  0.00  0.00    -0.060 A 
ATOM     26  C   UNL A   1      43.001 -19.094 -35.519  0.00  0.00    -0.040 A 
ATOM     27  C   UNL A   1      42.305 -20.286 -35.277  0.00  0.00    +0.035 A 
ATOM     28  C   UNL A   1      41.478 -20.381 -34.129  0.00  0.00    -0.026 A 
ATOM     29  C   UNL A   1      40.717 -21.656 -33.852  0.00  0.00    -0.038 C 
ENDBRANCH  20  27
ENDBRANCH  14  20
ENDBRANCH  10  19
ENDBRANCH   9  12
ENDBRANCH   8   9
ENDBRANCH   7   8
ENDBRANCH   6   7
ENDBRANCH   5   6
ENDBRANCH   1   5
BRANCH   3  30
ATOM     30  C   UNL A   1      41.191 -15.811 -40.372  0.00  0.00    +0.012 C 
BRANCH  30  31
ATOM     31  C   UNL A   1      41.366 -14.299 -40.504  0.00  0.00    -0.037 C 
BRANCH  31  32
ATOM     32  C   UNL A   1      42.737 -13.873 -41.034  0.00  0.00    -0.052 C 
BRANCH  32  33
ATOM     33  C   UNL A   1      43.892 -14.423 -40.191  0.00  0.00    -0.052 C 
BRANCH  33  34
ATOM     34  C   UNL A   1      45.196 -14.466 -40.987  0.00  0.00    -0.037 C 
BRANCH  34  35
ATOM     35  C   UNL A   1      45.912 -15.806 -40.809  0.00  0.00    +0.009 C 
BRANCH  35  36
ATOM     36  N   UNL A   1      45.014 -16.735 -40.109  0.00  0.00    -0.343 N 
ATOM     37  H   UNL A   1      44.045 -16.595 -40.013  0.00  0.00    +0.000 HD
BRANCH  36  38
ATOM     38  C   UNL A   1      45.713 -17.863 -39.585  0.00  0.00    +0.041 A 
ATOM     39  C   UNL A   1      46.203 -17.851 -38.263  0.00  0.00    -0.005 A 
ATOM     40  C   UNL A   1      46.832 -19.009 -37.796  0.00  0.00    +0.047 A 
ATOM     41  N   UNL A   1      46.939 -20.143 -38.529  0.00  0.00    -0.251 NA
ATOM     42  C   UNL A   1      46.462 -20.160 -39.779  0.00  0.00    +0.074 A 
ATOM     43  C   UNL A   1      46.594 -21.330 -40.511  0.00  0.00    -0.017 A 
ATOM     44  C   UNL A   1      46.140 -21.419 -41.824  0.00  0.00    +0.043 A 
ATOM     45 CL   UNL A   1      46.322 -22.890 -42.697  0.00  0.00    -0.083 Cl
ATOM     46  C   UNL A   1      45.546 -20.325 -42.435  0.00  0.00    -0.043 A 
ATOM     47  C   UNL A   1      45.403 -19.142 -41.713  0.00  0.00    -0.049 A 
ATOM     48  C   UNL A   1      45.842 -19.043 -40.371  0.00  0.00    +0.022 A 
ATOM     49  C   UNL A   1      47.393 -19.102 -36.400  0.00  0.00    -0.010 C 
ATOM     50  C   UNL A   1      47.664 -17.741 -35.771  0.00  0.00    -0.047 C 
ATOM     51  C   UNL A   1      46.437 -16.856 -35.920  0.00  0.00    -0.049 C 
ATOM     52  C   UNL A   1      46.128 -16.615 -37.398  0.00  0.00    -0.024 C 
ENDBRANCH  36  38
ENDBRANCH  35  36
ENDBRANCH  34  35
ENDBRANCH  33  34
ENDBRANCH  32  33
ENDBRANCH  31  32
ENDBRANCH  30  31
ENDBRANCH   3  30
TORSDOF 17
ENDMDL
MODEL 5
REMARK VINA RESULT:    -5.764      2.159      6.469
REMARK INTER + INTRA:         -18.607
REMARK INTER:                 -13.046
REMARK INTRA:                  -5.561
REMARK UNBOUND:                -7.116
REMARK  Name = cpd15.pdb
REMARK  19 active torsions:
REMARK  status: ('A' for Active; 'I' for Inactive)
REMARK    1  A    between atoms: C_1  and  C_2
REMARK    2  A    between atoms: C_6  and  N_7
REMARK    3  A    between atoms: N_7  and  C_8
REMARK    4  A    between atoms: C_13  and  C_14
REMARK    5  A    between atoms: N_16  and  C_17
REMARK    6  A    between atoms: C_17  and  C_18
REMARK    7  A    between atoms: C_18  and  C_19
REMARK    8  A    between atoms: C_19  and  C_20
REMARK    9  A    between atoms: C_20  and  C_21
REMARK   10  A    between atoms: C_21  and  C_22
REMARK   11  A    between atoms: N_24  and  C_25
REMARK   12  A    between atoms: C_25  and  C_26
REMARK   13  A    between atoms: C_26  and  C_27
REMARK   14  A    between atoms: C_27  and  C_28
REMARK   15  A    between atoms: C_28  and  C_29
REMARK   16  A    between atoms: C_29  and  C_30
REMARK   17  A    between atoms: C_30  and  N_31
REMARK   18  A    between atoms: N_31  and  C_32
REMARK   19  A    between atoms: C_47  and  C_48
REMARK                            x       y       z     vdW  Elec       q    Type
REMARK                         _______ _______ _______ _____ _____    ______ ____
ROOT
ATOM      1  C   UNL A   1      39.366 -16.220 -37.999  0.00  0.00    +0.213 C 
ATOM      2  O   UNL A   1      38.989 -15.130 -37.577  0.00  0.00    -0.276 OA
ATOM      3  N   UNL A   1      38.748 -17.413 -37.695  0.00  0.00    -0.315 N 
ATOM      4  H   UNL A   1      39.171 -18.261 -37.959  0.00  0.00    +0.000 HD
ENDROOT
BRANCH   1   5
ATOM      5  C   UNL A   1      40.534 -16.349 -38.952  0.00  0.00    +0.024 C 
BRANCH   5   6
ATOM      6  C   UNL A   1      41.681 -17.106 -38.284  0.00  0.00    -0.045 C 
BRANCH   6   7
ATOM      7  C   UNL A   1      42.507 -16.247 -37.325  0.00  0.00    -0.051 C 
BRANCH   7   8
ATOM      8  C   UNL A   1      43.878 -15.852 -37.882  0.00  0.00    -0.037 C 
BRANCH   8   9
ATOM      9  C   UNL A   1      43.858 -14.467 -38.537  0.00  0.00    +0.012 C 
BRANCH   9  12
ATOM     10  C   UNL A   1      43.905 -15.049 -40.996  0.00  0.00    +0.246 C 
ATOM     11  O   UNL A   1      43.222 -15.482 -41.917  0.00  0.00    -0.270 OA
ATOM     12  N   UNL A   1      43.305 -14.502 -39.884  0.00  0.00    -0.311 N 
ATOM     13  H   UNL A   1      42.417 -14.096 -40.012  0.00  0.00    +0.000 HD
BRANCH  10  19
ATOM     14  C   UNL A   1      46.091 -16.299 -40.825  0.00  0.00    +0.044 A 
ATOM     15  C   UNL A   1      47.490 -16.253 -40.933  0.00  0.00    -0.040 A 
ATOM     16  C   UNL A   1      48.158 -15.059 -41.227  0.00  0.00    -0.060 A 
ATOM     17  C   UNL A   1      47.438 -13.882 -41.420  0.00  0.00    -0.061 A 
ATOM     18  C   UNL A   1      46.048 -13.903 -41.340  0.00  0.00    -0.048 A 
ATOM     19  C   UNL A   1      45.380 -15.107 -41.073  0.00  0.00    +0.058 A 
BRANCH  14  20
ATOM     20  N   UNL A   1      45.429 -17.509 -40.511  0.00  0.00    -0.314 N 
ATOM     21  H   UNL A   1      45.011 -17.531 -39.620  0.00  0.00    +0.000 HD
BRANCH  20  27
ATOM     22  C   UNL A   1      46.821 -22.203 -41.547  0.00  0.00    -0.039 C 
ATOM     23  C   UNL A   1      45.965 -20.987 -41.783  0.00  0.00    -0.046 A 
ATOM     24  C   UNL A   1      45.018 -21.026 -42.817  0.00  0.00    -0.058 A 
ATOM     25  C   UNL A   1      44.211 -19.926 -43.083  0.00  0.00    -0.060 A 
ATOM     26  C   UNL A   1      44.342 -18.768 -42.320  0.00  0.00    -0.040 A 
ATOM     27  C   UNL A   1      45.269 -18.694 -41.271  0.00  0.00    +0.035 A 
ATOM     28  C   UNL A   1      46.075 -19.824 -40.983  0.00  0.00    -0.026 A 
ATOM     29  C   UNL A   1      47.081 -19.764 -39.858  0.00  0.00    -0.038 C 
ENDBRANCH  20  27
ENDBRANCH  14  20
ENDBRANCH  10  19
ENDBRANCH   9  12
ENDBRANCH   8   9
ENDBRANCH   7   8
ENDBRANCH   6   7
ENDBRANCH   5   6
ENDBRANCH   1   5
BRANCH   3  30
ATOM     30  C   UNL A   1      37.481 -17.435 -36.991  0.00  0.00    +0.012 C 
BRANCH  30  31
ATOM     31  C   UNL A   1      37.555 -18.383 -35.794  0.00  0.00    -0.037 C 
BRANCH  31  32
ATOM     32  C   UNL A   1      38.778 -19.301 -35.801  0.00  0.00    -0.052 C 
BRANCH  32  33
ATOM     33  C   UNL A   1      38.402 -20.786 -35.785  0.00  0.00    -0.052 C 
BRANCH  33  34
ATOM     34  C   UNL A   1      39.242 -21.566 -34.774  0.00  0.00    -0.037 C 
BRANCH  34  35
ATOM     35  C   UNL A   1      40.616 -20.923 -34.578  0.00  0.00    +0.009 C 
BRANCH  35  36
ATOM     36  N   UNL A   1      41.640 -21.804 -35.157  0.00  0.00    -0.343 N 
ATOM     37  H   UNL A   1      41.790 -22.734 -34.871  0.00  0.00    +0.000 HD
BRANCH  36  38
ATOM     38  C   UNL A   1      42.390 -21.153 -36.180  0.00  0.00    +0.041 A 
ATOM     39  C   UNL A   1      43.464 -20.301 -35.849  0.00  0.00    -0.005 A 
ATOM     40  C   UNL A   1      44.190 -19.737 -36.902  0.00  0.00    +0.047 A 
ATOM     41  N   UNL A   1      43.945 -20.013 -38.206  0.00  0.00    -0.251 NA
ATOM     42  C   UNL A   1      42.936 -20.833 -38.520  0.00  0.00    +0.074 A 
ATOM     43  C   UNL A   1      42.700 -21.091 -39.862  0.00  0.00    -0.017 A 
ATOM     44  C   UNL A   1      41.656 -21.917 -40.269  0.00  0.00    +0.043 A 
ATOM     45 CL   UNL A   1      41.399 -22.213 -41.944  0.00  0.00    -0.083 Cl
ATOM     46  C   UNL A   1      40.817 -22.500 -39.331  0.00  0.00    -0.043 A 
ATOM     47  C   UNL A   1      41.041 -22.253 -37.978  0.00  0.00    -0.049 A 
ATOM     48  C   UNL A   1      42.111 -21.431 -37.548  0.00  0.00    +0.022 A 
ATOM     49  C   UNL A   1      45.354 -18.811 -36.659  0.00  0.00    -0.010 C 
ATOM     50  C   UNL A   1      45.337 -18.175 -35.275  0.00  0.00    -0.047 C 
ATOM     51  C   UNL A   1      45.131 -19.251 -34.221  0.00  0.00    -0.049 C 
ATOM     52  C   UNL A   1      43.781 -19.941 -34.416  0.00  0.00    -0.024 C 
ENDBRANCH  36  38
ENDBRANCH  35  36
ENDBRANCH  34  35
ENDBRANCH  33  34
ENDBRANCH  32  33
ENDBRANCH  31  32
ENDBRANCH  30  31
ENDBRANCH   3  30
TORSDOF 17
ENDMDL
MODEL 6
REMARK VINA RESULT:    -5.746     19.757     23.442
REMARK INTER + INTRA:         -18.572
REMARK INTER:                 -12.010
REMARK INTRA:                  -6.562
REMARK UNBOUND:                -7.116
REMARK  Name = cpd15.pdb
REMARK  19 active torsions:
REMARK  status: ('A' for Active; 'I' for Inactive)
REMARK    1  A    between atoms: C_1  and  C_2
REMARK    2  A    between atoms: C_6  and  N_7
REMARK    3  A    between atoms: N_7  and  C_8
REMARK    4  A    between atoms: C_13  and  C_14
REMARK    5  A    between atoms: N_16  and  C_17
REMARK    6  A    between atoms: C_17  and  C_18
REMARK    7  A    between atoms: C_18  and  C_19
REMARK    8  A    between atoms: C_19  and  C_20
REMARK    9  A    between atoms: C_20  and  C_21
REMARK   10  A    between atoms: C_21  and  C_22
REMARK   11  A    between atoms: N_24  and  C_25
REMARK   12  A    between atoms: C_25  and  C_26
REMARK   13  A    between atoms: C_26  and  C_27
REMARK   14  A    between atoms: C_27  and  C_28
REMARK   15  A    between atoms: C_28  and  C_29
REMARK   16  A    between atoms: C_29  and  C_30
REMARK   17  A    between atoms: C_30  and  N_31
REMARK   18  A    between atoms: N_31  and  C_32
REMARK   19  A    between atoms: C_47  and  C_48
REMARK                            x       y       z     vdW  Elec       q    Type
REMARK                         _______ _______ _______ _____ _____    ______ ____
ROOT
ATOM      1  C   UNL A   1      34.180 -40.166 -32.745  0.00  0.00    +0.213 C 
ATOM      2  O   UNL A   1      34.231 -40.813 -33.788  0.00  0.00    -0.276 OA
ATOM      3  N   UNL A   1      33.046 -39.523 -32.298  0.00  0.00    -0.315 N 
ATOM      4  H   UNL A   1      33.104 -38.919 -31.524  0.00  0.00    +0.000 HD
ENDROOT
BRANCH   1   5
ATOM      5  C   UNL A   1      35.366 -40.057 -31.811  0.00  0.00    +0.024 C 
BRANCH   5   6
ATOM      6  C   UNL A   1      35.432 -41.278 -30.895  0.00  0.00    -0.045 C 
BRANCH   6   7
ATOM      7  C   UNL A   1      36.270 -41.056 -29.635  0.00  0.00    -0.051 C 
BRANCH   7   8
ATOM      8  C   UNL A   1      35.466 -41.170 -28.337  0.00  0.00    -0.037 C 
BRANCH   8   9
ATOM      9  C   UNL A   1      34.387 -40.087 -28.228  0.00  0.00    +0.012 C 
BRANCH   9  12
ATOM     10  C   UNL A   1      35.167 -37.978 -27.075  0.00  0.00    +0.246 C 
ATOM     11  O   UNL A   1      34.856 -37.148 -26.227  0.00  0.00    -0.270 OA
ATOM     12  N   UNL A   1      34.586 -39.226 -27.070  0.00  0.00    -0.311 N 
ATOM     13  H   UNL A   1      34.275 -39.569 -26.201  0.00  0.00    +0.000 HD
BRANCH  10  19
ATOM     14  C   UNL A   1      35.815 -37.005 -29.312  0.00  0.00    +0.044 A 
ATOM     15  C   UNL A   1      36.844 -36.724 -30.224  0.00  0.00    -0.040 A 
ATOM     16  C   UNL A   1      38.165 -37.109 -29.972  0.00  0.00    -0.060 A 
ATOM     17  C   UNL A   1      38.487 -37.785 -28.797  0.00  0.00    -0.061 A 
ATOM     18  C   UNL A   1      37.490 -38.057 -27.864  0.00  0.00    -0.048 A 
ATOM     19  C   UNL A   1      36.171 -37.646 -28.107  0.00  0.00    +0.058 A 
BRANCH  14  20
ATOM     20  N   UNL A   1      34.481 -36.625 -29.586  0.00  0.00    -0.314 N 
ATOM     21  H   UNL A   1      33.806 -37.033 -28.996  0.00  0.00    +0.000 HD
BRANCH  20  27
ATOM     22  C   UNL A   1      33.004 -32.047 -30.966  0.00  0.00    -0.039 C 
ATOM     23  C   UNL A   1      33.222 -33.512 -31.237  0.00  0.00    -0.046 A 
ATOM     24  C   UNL A   1      32.850 -34.023 -32.489  0.00  0.00    -0.058 A 
ATOM     25  C   UNL A   1      33.020 -35.371 -32.785  0.00  0.00    -0.060 A 
ATOM     26  C   UNL A   1      33.562 -36.228 -31.830  0.00  0.00    -0.040 A 
ATOM     27  C   UNL A   1      33.957 -35.753 -30.573  0.00  0.00    +0.035 A 
ATOM     28  C   UNL A   1      33.807 -34.374 -30.278  0.00  0.00    -0.026 A 
ATOM     29  C   UNL A   1      34.224 -33.842 -28.927  0.00  0.00    -0.038 C 
ENDBRANCH  20  27
ENDBRANCH  14  20
ENDBRANCH  10  19
ENDBRANCH   9  12
ENDBRANCH   8   9
ENDBRANCH   7   8
ENDBRANCH   6   7
ENDBRANCH   5   6
ENDBRANCH   1   5
BRANCH   3  30
ATOM     30  C   UNL A   1      31.770 -39.727 -32.953  0.00  0.00    +0.012 C 
BRANCH  30  31
ATOM     31  C   UNL A   1      31.473 -38.571 -33.908  0.00  0.00    -0.037 C 
BRANCH  31  32
ATOM     32  C   UNL A   1      30.032 -38.062 -33.841  0.00  0.00    -0.052 C 
BRANCH  32  33
ATOM     33  C   UNL A   1      29.791 -36.852 -34.750  0.00  0.00    -0.052 C 
BRANCH  33  34
ATOM     34  C   UNL A   1      28.816 -35.860 -34.117  0.00  0.00    -0.037 C 
BRANCH  34  35
ATOM     35  C   UNL A   1      29.471 -35.096 -32.964  0.00  0.00    +0.009 C 
BRANCH  35  36
ATOM     36  N   UNL A   1      28.590 -35.161 -31.790  0.00  0.00    -0.343 N 
ATOM     37  H   UNL A   1      27.646 -35.440 -31.825  0.00  0.00    +0.000 HD
BRANCH  36  38
ATOM     38  C   UNL A   1      29.262 -34.773 -30.593  0.00  0.00    +0.041 A 
ATOM     39  C   UNL A   1      30.019 -35.711 -29.861  0.00  0.00    -0.005 A 
ATOM     40  C   UNL A   1      30.695 -35.252 -28.727  0.00  0.00    +0.047 A 
ATOM     41  N   UNL A   1      30.701 -33.954 -28.340  0.00  0.00    -0.251 NA
ATOM     42  C   UNL A   1      29.995 -33.060 -29.043  0.00  0.00    +0.074 A 
ATOM     43  C   UNL A   1      30.010 -31.740 -28.619  0.00  0.00    -0.017 A 
ATOM     44  C   UNL A   1      29.285 -30.756 -29.287  0.00  0.00    +0.043 A 
ATOM     45 CL   UNL A   1      29.331 -29.129 -28.730  0.00  0.00    -0.083 Cl
ATOM     46  C   UNL A   1      28.520 -31.082 -30.398  0.00  0.00    -0.043 A 
ATOM     47  C   UNL A   1      28.496 -32.404 -30.838  0.00  0.00    -0.049 A 
ATOM     48  C   UNL A   1      29.243 -33.411 -30.181  0.00  0.00    +0.022 A 
ATOM     49  C   UNL A   1      31.529 -36.171 -27.871  0.00  0.00    -0.010 C 
ATOM     50  C   UNL A   1      31.166 -37.641 -28.039  0.00  0.00    -0.047 C 
ATOM     51  C   UNL A   1      31.122 -37.991 -29.518  0.00  0.00    -0.049 C 
ATOM     52  C   UNL A   1      30.042 -37.176 -30.230  0.00  0.00    -0.024 C 
ENDBRANCH  36  38
ENDBRANCH  35  36
ENDBRANCH  34  35
ENDBRANCH  33  34
ENDBRANCH  32  33
ENDBRANCH  31  32
ENDBRANCH  30  31
ENDBRANCH   3  30
TORSDOF 17
ENDMDL
MODEL 7
REMARK VINA RESULT:    -5.723      3.126      7.473
REMARK INTER + INTRA:         -18.527
REMARK INTER:                 -12.969
REMARK INTRA:                  -5.558
REMARK UNBOUND:                -7.116
REMARK  Name = cpd15.pdb
REMARK  19 active torsions:
REMARK  status: ('A' for Active; 'I' for Inactive)
REMARK    1  A    between atoms: C_1  and  C_2
REMARK    2  A    between atoms: C_6  and  N_7
REMARK    3  A    between atoms: N_7  and  C_8
REMARK    4  A    between atoms: C_13  and  C_14
REMARK    5  A    between atoms: N_16  and  C_17
REMARK    6  A    between atoms: C_17  and  C_18
REMARK    7  A    between atoms: C_18  and  C_19
REMARK    8  A    between atoms: C_19  and  C_20
REMARK    9  A    between atoms: C_20  and  C_21
REMARK   10  A    between atoms: C_21  and  C_22
REMARK   11  A    between atoms: N_24  and  C_25
REMARK   12  A    between atoms: C_25  and  C_26
REMARK   13  A    between atoms: C_26  and  C_27
REMARK   14  A    between atoms: C_27  and  C_28
REMARK   15  A    between atoms: C_28  and  C_29
REMARK   16  A    between atoms: C_29  and  C_30
REMARK   17  A    between atoms: C_30  and  N_31
REMARK   18  A    between atoms: N_31  and  C_32
REMARK   19  A    between atoms: C_47  and  C_48
REMARK                            x       y       z     vdW  Elec       q    Type
REMARK                         _______ _______ _______ _____ _____    ______ ____
ROOT
ATOM      1  C   UNL A   1      40.851 -15.773 -38.211  0.00  0.00    +0.213 C 
ATOM      2  O   UNL A   1      39.843 -16.457 -38.055  0.00  0.00    -0.276 OA
ATOM      3  N   UNL A   1      41.817 -15.603 -37.244  0.00  0.00    -0.315 N 
ATOM      4  H   UNL A   1      42.535 -14.944 -37.384  0.00  0.00    +0.000 HD
ENDROOT
BRANCH   1   5
ATOM      5  C   UNL A   1      41.157 -15.085 -39.524  0.00  0.00    +0.024 C 
BRANCH   5   6
ATOM      6  C   UNL A   1      41.878 -16.045 -40.469  0.00  0.00    -0.045 C 
BRANCH   6   7
ATOM      7  C   UNL A   1      43.391 -16.098 -40.254  0.00  0.00    -0.051 C 
BRANCH   7   8
ATOM      8  C   UNL A   1      44.181 -15.228 -41.237  0.00  0.00    -0.037 C 
BRANCH   8   9
ATOM      9  C   UNL A   1      45.148 -14.280 -40.521  0.00  0.00    +0.012 C 
BRANCH   9  12
ATOM     10  C   UNL A   1      47.311 -15.586 -40.553  0.00  0.00    +0.246 C 
ATOM     11  O   UNL A   1      48.225 -15.958 -41.281  0.00  0.00    -0.270 OA
ATOM     12  N   UNL A   1      46.533 -14.509 -40.910  0.00  0.00    -0.311 N 
ATOM     13  H   UNL A   1      46.953 -13.827 -41.484  0.00  0.00    +0.000 HD
BRANCH  10  19
ATOM     14  C   UNL A   1      47.015 -17.699 -39.204  0.00  0.00    +0.044 A 
ATOM     15  C   UNL A   1      46.758 -18.272 -37.949  0.00  0.00    -0.040 A 
ATOM     16  C   UNL A   1      46.486 -17.480 -36.828  0.00  0.00    -0.060 A 
ATOM     17  C   UNL A   1      46.466 -16.092 -36.940  0.00  0.00    -0.061 A 
ATOM     18  C   UNL A   1      46.740 -15.495 -38.167  0.00  0.00    -0.048 A 
ATOM     19  C   UNL A   1      47.039 -16.291 -39.282  0.00  0.00    +0.058 A 
BRANCH  14  20
ATOM     20  N   UNL A   1      47.272 -18.512 -40.332  0.00  0.00    -0.314 N 
ATOM     21  H   UNL A   1      48.221 -18.571 -40.590  0.00  0.00    +0.000 HD
BRANCH  20  27
ATOM     22  C   UNL A   1      46.044 -22.803 -42.595  0.00  0.00    -0.039 C 
ATOM     23  C   UNL A   1      45.798 -21.354 -42.269  0.00  0.00    -0.046 A 
ATOM     24  C   UNL A   1      44.682 -20.721 -42.836  0.00  0.00    -0.058 A 
ATOM     25  C   UNL A   1      44.417 -19.381 -42.575  0.00  0.00    -0.060 A 
ATOM     26  C   UNL A   1      45.267 -18.654 -41.746  0.00  0.00    -0.040 A 
ATOM     27  C   UNL A   1      46.386 -19.254 -41.152  0.00  0.00    +0.035 A 
ATOM     28  C   UNL A   1      46.643 -20.626 -41.397  0.00  0.00    -0.026 A 
ATOM     29  C   UNL A   1      47.845 -21.291 -40.768  0.00  0.00    -0.038 C 
ENDBRANCH  20  27
ENDBRANCH  14  20
ENDBRANCH  10  19
ENDBRANCH   9  12
ENDBRANCH   8   9
ENDBRANCH   7   8
ENDBRANCH   6   7
ENDBRANCH   5   6
ENDBRANCH   1   5
BRANCH   3  30
ATOM     30  C   UNL A   1      41.791 -16.383 -36.022  0.00  0.00    +0.012 C 
BRANCH  30  31
ATOM     31  C   UNL A   1      43.056 -16.130 -35.203  0.00  0.00    -0.037 C 
BRANCH  31  32
ATOM     32  C   UNL A   1      43.012 -16.713 -33.790  0.00  0.00    -0.052 C 
BRANCH  32  33
ATOM     33  C   UNL A   1      44.391 -17.158 -33.292  0.00  0.00    -0.052 C 
BRANCH  33  34
ATOM     34  C   UNL A   1      44.379 -18.616 -32.833  0.00  0.00    -0.037 C 
BRANCH  34  35
ATOM     35  C   UNL A   1      44.687 -19.566 -33.991  0.00  0.00    +0.009 C 
BRANCH  35  36
ATOM     36  N   UNL A   1      43.659 -20.615 -34.032  0.00  0.00    -0.343 N 
ATOM     37  H   UNL A   1      43.720 -21.465 -33.539  0.00  0.00    +0.000 HD
BRANCH  36  38
ATOM     38  C   UNL A   1      42.562 -20.257 -34.871  0.00  0.00    +0.041 A 
ATOM     39  C   UNL A   1      42.714 -20.223 -36.273  0.00  0.00    -0.005 A 
ATOM     40  C   UNL A   1      41.585 -19.915 -37.037  0.00  0.00    +0.047 A 
ATOM     41  N   UNL A   1      40.358 -19.709 -36.502  0.00  0.00    -0.251 NA
ATOM     42  C   UNL A   1      40.210 -19.756 -35.173  0.00  0.00    +0.074 A 
ATOM     43  C   UNL A   1      38.945 -19.530 -34.650  0.00  0.00    -0.017 A 
ATOM     44  C   UNL A   1      38.716 -19.544 -33.277  0.00  0.00    +0.043 A 
ATOM     45 CL   UNL A   1      37.132 -19.260 -32.669  0.00  0.00    -0.083 Cl
ATOM     46  C   UNL A   1      39.760 -19.779 -32.394  0.00  0.00    -0.043 A 
ATOM     47  C   UNL A   1      41.036 -20.010 -32.903  0.00  0.00    -0.049 A 
ATOM     48  C   UNL A   1      41.281 -20.019 -34.297  0.00  0.00    +0.022 A 
ATOM     49  C   UNL A   1      41.638 -19.849 -38.542  0.00  0.00    -0.010 C 
ATOM     50  C   UNL A   1      43.046 -19.641 -39.085  0.00  0.00    -0.047 C 
ATOM     51  C   UNL A   1      43.994 -20.643 -38.444  0.00  0.00    -0.049 C 
ATOM     52  C   UNL A   1      44.057 -20.430 -36.932  0.00  0.00    -0.024 C 
ENDBRANCH  36  38
ENDBRANCH  35  36
ENDBRANCH  34  35
ENDBRANCH  33  34
ENDBRANCH  32  33
ENDBRANCH  31  32
ENDBRANCH  30  31
ENDBRANCH   3  30
TORSDOF 17
ENDMDL
MODEL 8
REMARK VINA RESULT:    -5.578      3.499      8.388
REMARK INTER + INTRA:         -18.237
REMARK INTER:                 -12.193
REMARK INTRA:                  -6.044
REMARK UNBOUND:                -7.116
REMARK  Name = cpd15.pdb
REMARK  19 active torsions:
REMARK  status: ('A' for Active; 'I' for Inactive)
REMARK    1  A    between atoms: C_1  and  C_2
REMARK    2  A    between atoms: C_6  and  N_7
REMARK    3  A    between atoms: N_7  and  C_8
REMARK    4  A    between atoms: C_13  and  C_14
REMARK    5  A    between atoms: N_16  and  C_17
REMARK    6  A    between atoms: C_17  and  C_18
REMARK    7  A    between atoms: C_18  and  C_19
REMARK    8  A    between atoms: C_19  and  C_20
REMARK    9  A    between atoms: C_20  and  C_21
REMARK   10  A    between atoms: C_21  and  C_22
REMARK   11  A    between atoms: N_24  and  C_25
REMARK   12  A    between atoms: C_25  and  C_26
REMARK   13  A    between atoms: C_26  and  C_27
REMARK   14  A    between atoms: C_27  and  C_28
REMARK   15  A    between atoms: C_28  and  C_29
REMARK   16  A    between atoms: C_29  and  C_30
REMARK   17  A    between atoms: C_30  and  N_31
REMARK   18  A    between atoms: N_31  and  C_32
REMARK   19  A    between atoms: C_47  and  C_48
REMARK                            x       y       z     vdW  Elec       q    Type
REMARK                         _______ _______ _______ _____ _____    ______ ____
ROOT
ATOM      1  C   UNL A   1      42.442 -15.462 -33.830  0.00  0.00    +0.213 C 
ATOM      2  O   UNL A   1      41.733 -14.650 -34.417  0.00  0.00    -0.276 OA
ATOM      3  N   UNL A   1      41.963 -16.611 -33.241  0.00  0.00    -0.315 N 
ATOM      4  H   UNL A   1      42.561 -17.155 -32.679  0.00  0.00    +0.000 HD
ENDROOT
BRANCH   1   5
ATOM      5  C   UNL A   1      43.944 -15.297 -33.743  0.00  0.00    +0.024 C 
BRANCH   5   6
ATOM      6  C   UNL A   1      44.548 -16.400 -32.876  0.00  0.00    -0.045 C 
BRANCH   6   7
ATOM      7  C   UNL A   1      45.441 -17.371 -33.650  0.00  0.00    -0.051 C 
BRANCH   7   8
ATOM      8  C   UNL A   1      44.784 -18.729 -33.913  0.00  0.00    -0.037 C 
BRANCH   8   9
ATOM      9  C   UNL A   1      45.284 -19.370 -35.212  0.00  0.00    +0.012 C 
BRANCH   9  12
ATOM     10  C   UNL A   1      43.594 -20.269 -36.862  0.00  0.00    +0.246 C 
ATOM     11  O   UNL A   1      43.257 -21.276 -37.475  0.00  0.00    -0.270 OA
ATOM     12  N   UNL A   1      44.359 -20.372 -35.723  0.00  0.00    -0.311 N 
ATOM     13  H   UNL A   1      44.272 -21.205 -35.202  0.00  0.00    +0.000 HD
BRANCH  10  19
ATOM     14  C   UNL A   1      43.841 -18.285 -38.403  0.00  0.00    +0.044 A 
ATOM     15  C   UNL A   1      43.363 -17.023 -38.789  0.00  0.00    -0.040 A 
ATOM     16  C   UNL A   1      42.301 -16.409 -38.116  0.00  0.00    -0.060 A 
ATOM     17  C   UNL A   1      41.692 -17.047 -37.038  0.00  0.00    -0.061 A 
ATOM     18  C   UNL A   1      42.131 -18.309 -36.646  0.00  0.00    -0.048 A 
ATOM     19  C   UNL A   1      43.177 -18.934 -37.341  0.00  0.00    +0.058 A 
BRANCH  14  20
ATOM     20  N   UNL A   1      44.926 -18.887 -39.080  0.00  0.00    -0.314 N 
ATOM     21  H   UNL A   1      45.816 -18.630 -38.744  0.00  0.00    +0.000 HD
BRANCH  20  27
ATOM     22  C   UNL A   1      46.674 -23.079 -41.180  0.00  0.00    -0.039 C 
ATOM     23  C   UNL A   1      45.812 -21.845 -41.194  0.00  0.00    -0.046 A 
ATOM     24  C   UNL A   1      45.042 -21.579 -42.335  0.00  0.00    -0.058 A 
ATOM     25  C   UNL A   1      44.238 -20.447 -42.402  0.00  0.00    -0.060 A 
ATOM     26  C   UNL A   1      44.195 -19.561 -41.327  0.00  0.00    -0.040 A 
ATOM     27  C   UNL A   1      44.941 -19.799 -40.165  0.00  0.00    +0.035 A 
ATOM     28  C   UNL A   1      45.742 -20.966 -40.086  0.00  0.00    -0.026 A 
ATOM     29  C   UNL A   1      46.556 -21.239 -38.843  0.00  0.00    -0.038 C 
ENDBRANCH  20  27
ENDBRANCH  14  20
ENDBRANCH  10  19
ENDBRANCH   9  12
ENDBRANCH   8   9
ENDBRANCH   7   8
ENDBRANCH   6   7
ENDBRANCH   5   6
ENDBRANCH   1   5
BRANCH   3  30
ATOM     30  C   UNL A   1      40.590 -17.032 -33.441  0.00  0.00    +0.012 C 
BRANCH  30  31
ATOM     31  C   UNL A   1      40.357 -18.401 -32.805  0.00  0.00    -0.037 C 
BRANCH  31  32
ATOM     32  C   UNL A   1      41.289 -19.498 -33.325  0.00  0.00    -0.052 C 
BRANCH  32  33
ATOM     33  C   UNL A   1      41.232 -20.772 -32.476  0.00  0.00    -0.052 C 
BRANCH  33  34
ATOM     34  C   UNL A   1      40.714 -21.961 -33.285  0.00  0.00    -0.037 C 
BRANCH  34  35
ATOM     35  C   UNL A   1      40.687 -21.646 -34.782  0.00  0.00    +0.009 C 
BRANCH  35  36
ATOM     36  N   UNL A   1      39.338 -21.914 -35.300  0.00  0.00    -0.343 N 
ATOM     37  H   UNL A   1      38.934 -22.810 -35.344  0.00  0.00    +0.000 HD
BRANCH  36  38
ATOM     38  C   UNL A   1      38.683 -20.722 -35.729  0.00  0.00    +0.041 A 
ATOM     39  C   UNL A   1      38.909 -20.207 -37.023  0.00  0.00    -0.005 A 
ATOM     40  C   UNL A   1      38.195 -19.065 -37.397  0.00  0.00    +0.047 A 
ATOM     41  N   UNL A   1      37.268 -18.475 -36.606  0.00  0.00    -0.251 NA
ATOM     42  C   UNL A   1      37.042 -18.972 -35.384  0.00  0.00    +0.074 A 
ATOM     43  C   UNL A   1      36.096 -18.342 -34.590  0.00  0.00    -0.017 A 
ATOM     44  C   UNL A   1      35.819 -18.788 -33.300  0.00  0.00    +0.043 A 
ATOM     45 CL   UNL A   1      34.636 -17.980 -32.348  0.00  0.00    -0.083 Cl
ATOM     46  C   UNL A   1      36.496 -19.879 -32.776  0.00  0.00    -0.043 A 
ATOM     47  C   UNL A   1      37.449 -20.525 -33.561  0.00  0.00    -0.049 A 
ATOM     48  C   UNL A   1      37.727 -20.095 -34.881  0.00  0.00    +0.022 A 
ATOM     49  C   UNL A   1      38.364 -18.432 -38.755  0.00  0.00    -0.010 C 
ATOM     50  C   UNL A   1      39.674 -18.809 -39.435  0.00  0.00    -0.047 C 
ATOM     51  C   UNL A   1      39.855 -20.318 -39.394  0.00  0.00    -0.049 C 
ATOM     52  C   UNL A   1      39.939 -20.809 -37.949  0.00  0.00    -0.024 C 
ENDBRANCH  36  38
ENDBRANCH  35  36
ENDBRANCH  34  35
ENDBRANCH  33  34
ENDBRANCH  32  33
ENDBRANCH  31  32
ENDBRANCH  30  31
ENDBRANCH   3  30
TORSDOF 17
ENDMDL
MODEL 9
REMARK VINA RESULT:    -5.547      2.812      5.201
REMARK INTER + INTRA:         -18.175
REMARK INTER:                 -12.122
REMARK INTRA:                  -6.054
REMARK UNBOUND:                -7.116
REMARK  Name = cpd15.pdb
REMARK  19 active torsions:
REMARK  status: ('A' for Active; 'I' for Inactive)
REMARK    1  A    between atoms: C_1  and  C_2
REMARK    2  A    between atoms: C_6  and  N_7
REMARK    3  A    between atoms: N_7  and  C_8
REMARK    4  A    between atoms: C_13  and  C_14
REMARK    5  A    between atoms: N_16  and  C_17
REMARK    6  A    between atoms: C_17  and  C_18
REMARK    7  A    between atoms: C_18  and  C_19
REMARK    8  A    between atoms: C_19  and  C_20
REMARK    9  A    between atoms: C_20  and  C_21
REMARK   10  A    between atoms: C_21  and  C_22
REMARK   11  A    between atoms: N_24  and  C_25
REMARK   12  A    between atoms: C_25  and  C_26
REMARK   13  A    between atoms: C_26  and  C_27
REMARK   14  A    between atoms: C_27  and  C_28
REMARK   15  A    between atoms: C_28  and  C_29
REMARK   16  A    between atoms: C_29  and  C_30
REMARK   17  A    between atoms: C_30  and  N_31
REMARK   18  A    between atoms: N_31  and  C_32
REMARK   19  A    between atoms: C_47  and  C_48
REMARK                            x       y       z     vdW  Elec       q    Type
REMARK                         _______ _______ _______ _____ _____    ______ ____
ROOT
ATOM      1  C   UNL A   1      44.626 -16.998 -33.538  0.00  0.00    +0.213 C 
ATOM      2  O   UNL A   1      45.819 -16.936 -33.252  0.00  0.00    -0.276 OA
ATOM      3  N   UNL A   1      44.060 -16.333 -34.603  0.00  0.00    -0.315 N 
ATOM      4  H   UNL A   1      43.081 -16.322 -34.703  0.00  0.00    +0.000 HD
ENDROOT
BRANCH   1   5
ATOM      5  C   UNL A   1      43.661 -17.870 -32.763  0.00  0.00    +0.024 C 
BRANCH   5   6
ATOM      6  C   UNL A   1      42.664 -18.529 -33.714  0.00  0.00    -0.045 C 
BRANCH   6   7
ATOM      7  C   UNL A   1      41.804 -19.606 -33.051  0.00  0.00    -0.051 C 
BRANCH   7   8
ATOM      8  C   UNL A   1      42.399 -21.014 -33.155  0.00  0.00    -0.037 C 
BRANCH   8   9
ATOM      9  C   UNL A   1      41.408 -22.094 -32.709  0.00  0.00    +0.012 C 
BRANCH   9  12
ATOM     10  C   UNL A   1      40.084 -22.695 -34.777  0.00  0.00    +0.246 C 
ATOM     11  O   UNL A   1      40.172 -23.212 -35.885  0.00  0.00    -0.270 OA
ATOM     12  N   UNL A   1      41.020 -22.971 -33.805  0.00  0.00    -0.311 N 
ATOM     13  H   UNL A   1      41.470 -23.846 -33.856  0.00  0.00    +0.000 HD
BRANCH  10  19
ATOM     14  C   UNL A   1      38.846 -20.521 -35.110  0.00  0.00    +0.044 A 
ATOM     15  C   UNL A   1      37.746 -19.722 -34.759  0.00  0.00    -0.040 A 
ATOM     16  C   UNL A   1      36.835 -20.128 -33.778  0.00  0.00    -0.060 A 
ATOM     17  C   UNL A   1      37.005 -21.347 -33.125  0.00  0.00    -0.061 A 
ATOM     18  C   UNL A   1      38.074 -22.170 -33.469  0.00  0.00    -0.048 A 
ATOM     19  C   UNL A   1      38.970 -21.773 -34.472  0.00  0.00    +0.058 A 
BRANCH  14  20
ATOM     20  N   UNL A   1      39.769 -20.092 -36.092  0.00  0.00    -0.314 N 
ATOM     21  H   UNL A   1      40.686 -20.428 -35.970  0.00  0.00    +0.000 HD
BRANCH  20  27
ATOM     22  C   UNL A   1      39.745 -15.521 -38.129  0.00  0.00    -0.039 C 
ATOM     23  C   UNL A   1      39.563 -17.013 -38.210  0.00  0.00    -0.046 A 
ATOM     24  C   UNL A   1      39.160 -17.573 -39.430  0.00  0.00    -0.058 A 
ATOM     25  C   UNL A   1      38.968 -18.945 -39.554  0.00  0.00    -0.060 A 
ATOM     26  C   UNL A   1      39.173 -19.776 -38.455  0.00  0.00    -0.040 A 
ATOM     27  C   UNL A   1      39.588 -19.255 -37.222  0.00  0.00    +0.035 A 
ATOM     28  C   UNL A   1      39.808 -17.860 -37.101  0.00  0.00    -0.026 A 
ATOM     29  C   UNL A   1      40.253 -17.278 -35.780  0.00  0.00    -0.038 C 
ENDBRANCH  20  27
ENDBRANCH  14  20
ENDBRANCH  10  19
ENDBRANCH   9  12
ENDBRANCH   8   9
ENDBRANCH   7   8
ENDBRANCH   6   7
ENDBRANCH   5   6
ENDBRANCH   1   5
BRANCH   3  30
ATOM     30  C   UNL A   1      44.887 -15.651 -35.578  0.00  0.00    +0.012 C 
BRANCH  30  31
ATOM     31  C   UNL A   1      44.098 -15.402 -36.862  0.00  0.00    -0.037 C 
BRANCH  31  32
ATOM     32  C   UNL A   1      43.405 -16.647 -37.420  0.00  0.00    -0.052 C 
BRANCH  32  33
ATOM     33  C   UNL A   1      43.190 -16.574 -38.935  0.00  0.00    -0.052 C 
BRANCH  33  34
ATOM     34  C   UNL A   1      44.519 -16.579 -39.691  0.00  0.00    -0.037 C 
BRANCH  34  35
ATOM     35  C   UNL A   1      44.555 -17.686 -40.746  0.00  0.00    +0.009 C 
BRANCH  35  36
ATOM     36  N   UNL A   1      45.518 -18.713 -40.324  0.00  0.00    -0.343 N 
ATOM     37  H   UNL A   1      46.378 -18.879 -40.775  0.00  0.00    +0.000 HD
BRANCH  36  38
ATOM     38  C   UNL A   1      45.060 -19.441 -39.187  0.00  0.00    +0.041 A 
ATOM     39  C   UNL A   1      45.674 -19.264 -37.929  0.00  0.00    -0.005 A 
ATOM     40  C   UNL A   1      45.142 -19.970 -36.846  0.00  0.00    +0.047 A 
ATOM     41  N   UNL A   1      44.045 -20.760 -36.939  0.00  0.00    -0.251 NA
ATOM     42  C   UNL A   1      43.454 -20.916 -38.129  0.00  0.00    +0.074 A 
ATOM     43  C   UNL A   1      42.340 -21.739 -38.199  0.00  0.00    -0.017 A 
ATOM     44  C   UNL A   1      41.682 -21.967 -39.405  0.00  0.00    +0.043 A 
ATOM     45 CL   UNL A   1      40.302 -22.993 -39.449  0.00  0.00    -0.083 Cl
ATOM     46  C   UNL A   1      42.137 -21.376 -40.574  0.00  0.00    -0.043 A 
ATOM     47  C   UNL A   1      43.254 -20.545 -40.521  0.00  0.00    -0.049 A 
ATOM     48  C   UNL A   1      43.922 -20.287 -39.299  0.00  0.00    +0.022 A 
ATOM     49  C   UNL A   1      45.723 -19.855 -35.460  0.00  0.00    -0.010 C 
ATOM     50  C   UNL A   1      47.161 -19.350 -35.451  0.00  0.00    -0.047 C 
ATOM     51  C   UNL A   1      47.267 -18.098 -36.307  0.00  0.00    -0.049 C 
ATOM     52  C   UNL A   1      46.908 -18.409 -37.760  0.00  0.00    -0.024 C 
ENDBRANCH  36  38
ENDBRANCH  35  36
ENDBRANCH  34  35
ENDBRANCH  33  34
ENDBRANCH  32  33
ENDBRANCH  31  32
ENDBRANCH  30  31
ENDBRANCH   3  30
TORSDOF 17
ENDMDL
MODEL 10
REMARK VINA RESULT:    -5.546      2.450      4.796
REMARK INTER + INTRA:         -18.173
REMARK INTER:                 -12.864
REMARK INTRA:                  -5.309
REMARK UNBOUND:                -7.116
REMARK  Name = cpd15.pdb
REMARK  19 active torsions:
REMARK  status: ('A' for Active; 'I' for Inactive)
REMARK    1  A    between atoms: C_1  and  C_2
REMARK    2  A    between atoms: C_6  and  N_7
REMARK    3  A    between atoms: N_7  and  C_8
REMARK    4  A    between atoms: C_13  and  C_14
REMARK    5  A    between atoms: N_16  and  C_17
REMARK    6  A    between atoms: C_17  and  C_18
REMARK    7  A    between atoms: C_18  and  C_19
REMARK    8  A    between atoms: C_19  and  C_20
REMARK    9  A    between atoms: C_20  and  C_21
REMARK   10  A    between atoms: C_21  and  C_22
REMARK   11  A    between atoms: N_24  and  C_25
REMARK   12  A    between atoms: C_25  and  C_26
REMARK   13  A    between atoms: C_26  and  C_27
REMARK   14  A    between atoms: C_27  and  C_28
REMARK   15  A    between atoms: C_28  and  C_29
REMARK   16  A    between atoms: C_29  and  C_30
REMARK   17  A    between atoms: C_30  and  N_31
REMARK   18  A    between atoms: N_31  and  C_32
REMARK   19  A    between atoms: C_47  and  C_48
REMARK                            x       y       z     vdW  Elec       q    Type
REMARK                         _______ _______ _______ _____ _____    ______ ____
ROOT
ATOM      1  C   UNL A   1      41.155 -16.699 -37.074  0.00  0.00    +0.213 C 
ATOM      2  O   UNL A   1      41.604 -15.656 -37.541  0.00  0.00    -0.276 OA
ATOM      3  N   UNL A   1      41.292 -17.929 -37.680  0.00  0.00    -0.315 N 
ATOM      4  H   UNL A   1      40.803 -18.704 -37.322  0.00  0.00    +0.000 HD
ENDROOT
BRANCH   1   5
ATOM      5  C   UNL A   1      40.445 -16.739 -35.738  0.00  0.00    +0.024 C 
BRANCH   5   6
ATOM      6  C   UNL A   1      40.695 -18.077 -35.045  0.00  0.00    -0.045 C 
BRANCH   6   7
ATOM      7  C   UNL A   1      41.892 -18.062 -34.094  0.00  0.00    -0.051 C 
BRANCH   7   8
ATOM      8  C   UNL A   1      41.765 -19.052 -32.933  0.00  0.00    -0.037 C 
BRANCH   8   9
ATOM      9  C   UNL A   1      42.078 -20.489 -33.362  0.00  0.00    +0.012 C 
BRANCH   9  12
ATOM     10  C   UNL A   1      40.343 -22.275 -33.795  0.00  0.00    +0.246 C 
ATOM     11  O   UNL A   1      39.883 -23.325 -33.361  0.00  0.00    -0.270 OA
ATOM     12  N   UNL A   1      41.034 -21.423 -32.963  0.00  0.00    -0.311 N 
ATOM     13  H   UNL A   1      40.799 -21.447 -32.007  0.00  0.00    +0.000 HD
BRANCH  10  19
ATOM     14  C   UNL A   1      38.999 -21.243 -35.666  0.00  0.00    +0.044 A 
ATOM     15  C   UNL A   1      38.921 -20.934 -37.033  0.00  0.00    -0.040 A 
ATOM     16  C   UNL A   1      39.928 -21.318 -37.925  0.00  0.00    -0.060 A 
ATOM     17  C   UNL A   1      41.039 -22.022 -37.466  0.00  0.00    -0.061 A 
ATOM     18  C   UNL A   1      41.154 -22.322 -36.112  0.00  0.00    -0.048 A 
ATOM     19  C   UNL A   1      40.156 -21.912 -35.216  0.00  0.00    +0.058 A 
BRANCH  14  20
ATOM     20  N   UNL A   1      37.966 -20.864 -34.777  0.00  0.00    -0.314 N 
ATOM     21  H   UNL A   1      37.315 -21.575 -34.575  0.00  0.00    +0.000 HD
BRANCH  20  27
ATOM     22  C   UNL A   1      35.811 -16.348 -34.767  0.00  0.00    -0.039 C 
ATOM     23  C   UNL A   1      36.670 -17.412 -34.139  0.00  0.00    -0.046 A 
ATOM     24  C   UNL A   1      37.271 -17.143 -32.900  0.00  0.00    -0.058 A 
ATOM     25  C   UNL A   1      38.082 -18.088 -32.283  0.00  0.00    -0.060 A 
ATOM     26  C   UNL A   1      38.307 -19.317 -32.899  0.00  0.00    -0.040 A 
ATOM     27  C   UNL A   1      37.716 -19.628 -34.131  0.00  0.00    +0.035 A 
ATOM     28  C   UNL A   1      36.869 -18.675 -34.749  0.00  0.00    -0.026 A 
ATOM     29  C   UNL A   1      36.223 -18.989 -36.078  0.00  0.00    -0.038 C 
ENDBRANCH  20  27
ENDBRANCH  14  20
ENDBRANCH  10  19
ENDBRANCH   9  12
ENDBRANCH   8   9
ENDBRANCH   7   8
ENDBRANCH   6   7
ENDBRANCH   5   6
ENDBRANCH   1   5
BRANCH   3  30
ATOM     30  C   UNL A   1      42.148 -18.095 -38.839  0.00  0.00    +0.012 C 
BRANCH  30  31
ATOM     31  C   UNL A   1      43.313 -19.027 -38.508  0.00  0.00    -0.037 C 
BRANCH  31  32
ATOM     32  C   UNL A   1      43.846 -18.877 -37.082  0.00  0.00    -0.052 C 
BRANCH  32  33
ATOM     33  C   UNL A   1      44.025 -20.224 -36.375  0.00  0.00    -0.052 C 
BRANCH  33  34
ATOM     34  C   UNL A   1      45.445 -20.388 -35.831  0.00  0.00    -0.037 C 
BRANCH  34  35
ATOM     35  C   UNL A   1      46.264 -19.110 -36.024  0.00  0.00    +0.009 C 
BRANCH  35  36
ATOM     36  N   UNL A   1      47.376 -19.393 -36.943  0.00  0.00    -0.343 N 
ATOM     37  H   UNL A   1      48.217 -19.827 -36.672  0.00  0.00    +0.000 HD
BRANCH  36  38
ATOM     38  C   UNL A   1      47.093 -18.964 -38.273  0.00  0.00    +0.041 A 
ATOM     39  C   UNL A   1      47.119 -17.593 -38.605  0.00  0.00    -0.005 A 
ATOM     40  C   UNL A   1      46.884 -17.246 -39.938  0.00  0.00    +0.047 A 
ATOM     41  N   UNL A   1      46.692 -18.159 -40.921  0.00  0.00    -0.251 NA
ATOM     42  C   UNL A   1      46.683 -19.460 -40.610  0.00  0.00    +0.074 A 
ATOM     43  C   UNL A   1      46.474 -20.373 -41.633  0.00  0.00    -0.017 A 
ATOM     44  C   UNL A   1      46.431 -21.742 -41.385  0.00  0.00    +0.043 A 
ATOM     45 CL   UNL A   1      46.172 -22.841 -42.683  0.00  0.00    -0.083 Cl
ATOM     46  C   UNL A   1      46.591 -22.226 -40.096  0.00  0.00    -0.043 A 
ATOM     47  C   UNL A   1      46.804 -21.323 -39.056  0.00  0.00    -0.049 A 
ATOM     48  C   UNL A   1      46.870 -19.929 -39.295  0.00  0.00    +0.022 A 
ATOM     49  C   UNL A   1      46.885 -15.811 -40.399  0.00  0.00    -0.010 C 
ATOM     50  C   UNL A   1      46.657 -14.817 -39.267  0.00  0.00    -0.047 C 
ATOM     51  C   UNL A   1      47.598 -15.131 -38.114  0.00  0.00    -0.049 C 
ATOM     52  C   UNL A   1      47.312 -16.525 -37.554  0.00  0.00    -0.024 C 
ENDBRANCH  36  38
ENDBRANCH  35  36
ENDBRANCH  34  35
ENDBRANCH  33  34
ENDBRANCH  32  33
ENDBRANCH  31  32
ENDBRANCH  30  31
ENDBRANCH   3  30
TORSDOF 17
ENDMDL
MODEL 11
REMARK VINA RESULT:    -5.507      2.595      6.780
REMARK INTER + INTRA:         -18.097
REMARK INTER:                 -11.758
REMARK INTRA:                  -6.339
REMARK UNBOUND:                -7.116
REMARK  Name = cpd15.pdb
REMARK  19 active torsions:
REMARK  status: ('A' for Active; 'I' for Inactive)
REMARK    1  A    between atoms: C_1  and  C_2
REMARK    2  A    between atoms: C_6  and  N_7
REMARK    3  A    between atoms: N_7  and  C_8
REMARK    4  A    between atoms: C_13  and  C_14
REMARK    5  A    between atoms: N_16  and  C_17
REMARK    6  A    between atoms: C_17  and  C_18
REMARK    7  A    between atoms: C_18  and  C_19
REMARK    8  A    between atoms: C_19  and  C_20
REMARK    9  A    between atoms: C_20  and  C_21
REMARK   10  A    between atoms: C_21  and  C_22
REMARK   11  A    between atoms: N_24  and  C_25
REMARK   12  A    between atoms: C_25  and  C_26
REMARK   13  A    between atoms: C_26  and  C_27
REMARK   14  A    between atoms: C_27  and  C_28
REMARK   15  A    between atoms: C_28  and  C_29
REMARK   16  A    between atoms: C_29  and  C_30
REMARK   17  A    between atoms: C_30  and  N_31
REMARK   18  A    between atoms: N_31  and  C_32
REMARK   19  A    between atoms: C_47  and  C_48
REMARK                            x       y       z     vdW  Elec       q    Type
REMARK                         _______ _______ _______ _____ _____    ______ ____
ROOT
ATOM      1  C   UNL A   1      43.571 -16.581 -40.474  0.00  0.00    +0.213 C 
ATOM      2  O   UNL A   1      43.567 -15.666 -41.293  0.00  0.00    -0.276 OA
ATOM      3  N   UNL A   1      42.550 -16.809 -39.578  0.00  0.00    -0.315 N 
ATOM      4  H   UNL A   1      42.669 -17.477 -38.865  0.00  0.00    +0.000 HD
ENDROOT
BRANCH   1   5
ATOM      5  C   UNL A   1      44.694 -17.593 -40.409  0.00  0.00    +0.024 C 
BRANCH   5   6
ATOM      6  C   UNL A   1      44.340 -18.714 -39.434  0.00  0.00    -0.045 C 
BRANCH   6   7
ATOM      7  C   UNL A   1      45.038 -20.040 -39.743  0.00  0.00    -0.051 C 
BRANCH   7   8
ATOM      8  C   UNL A   1      46.249 -20.317 -38.848  0.00  0.00    -0.037 C 
BRANCH   8   9
ATOM      9  C   UNL A   1      45.852 -20.505 -37.380  0.00  0.00    +0.012 C 
BRANCH   9  12
ATOM     10  C   UNL A   1      47.210 -19.337 -35.597  0.00  0.00    +0.246 C 
ATOM     11  O   UNL A   1      47.862 -19.525 -34.575  0.00  0.00    -0.270 OA
ATOM     12  N   UNL A   1      46.990 -20.369 -36.480  0.00  0.00    -0.311 N 
ATOM     13  H   UNL A   1      47.667 -21.085 -36.507  0.00  0.00    +0.000 HD
BRANCH  10  19
ATOM     14  C   UNL A   1      45.583 -17.459 -35.156  0.00  0.00    +0.044 A 
ATOM     15  C   UNL A   1      45.139 -16.174 -35.507  0.00  0.00    -0.040 A 
ATOM     16  C   UNL A   1      45.708 -15.474 -36.575  0.00  0.00    -0.060 A 
ATOM     17  C   UNL A   1      46.737 -16.045 -37.319  0.00  0.00    -0.061 A 
ATOM     18  C   UNL A   1      47.213 -17.309 -36.980  0.00  0.00    -0.048 A 
ATOM     19  C   UNL A   1      46.659 -17.997 -35.891  0.00  0.00    +0.058 A 
BRANCH  14  20
ATOM     20  N   UNL A   1      44.988 -18.163 -34.084  0.00  0.00    -0.314 N 
ATOM     21  H   UNL A   1      45.538 -18.216 -33.269  0.00  0.00    +0.000 HD
BRANCH  20  27
ATOM     22  C   UNL A   1      40.281 -18.231 -32.384  0.00  0.00    -0.039 C 
ATOM     23  C   UNL A   1      41.429 -18.840 -33.145  0.00  0.00    -0.046 A 
ATOM     24  C   UNL A   1      41.247 -20.098 -33.736  0.00  0.00    -0.058 A 
ATOM     25  C   UNL A   1      42.279 -20.708 -34.440  0.00  0.00    -0.060 A 
ATOM     26  C   UNL A   1      43.511 -20.069 -34.560  0.00  0.00    -0.040 A 
ATOM     27  C   UNL A   1      43.728 -18.806 -33.993  0.00  0.00    +0.035 A 
ATOM     28  C   UNL A   1      42.668 -18.172 -33.296  0.00  0.00    -0.026 A 
ATOM     29  C   UNL A   1      42.883 -16.811 -32.675  0.00  0.00    -0.038 C 
ENDBRANCH  20  27
ENDBRANCH  14  20
ENDBRANCH  10  19
ENDBRANCH   9  12
ENDBRANCH   8   9
ENDBRANCH   7   8
ENDBRANCH   6   7
ENDBRANCH   5   6
ENDBRANCH   1   5
BRANCH   3  30
ATOM     30  C   UNL A   1      41.302 -16.077 -39.671  0.00  0.00    +0.012 C 
BRANCH  30  31
ATOM     31  C   UNL A   1      41.082 -15.242 -38.410  0.00  0.00    -0.037 C 
BRANCH  31  32
ATOM     32  C   UNL A   1      41.898 -15.707 -37.203  0.00  0.00    -0.052 C 
BRANCH  32  33
ATOM     33  C   UNL A   1      41.018 -16.138 -36.026  0.00  0.00    -0.052 C 
BRANCH  33  34
ATOM     34  C   UNL A   1      40.341 -17.482 -36.294  0.00  0.00    -0.037 C 
BRANCH  34  35
ATOM     35  C   UNL A   1      38.859 -17.445 -35.915  0.00  0.00    +0.009 C 
BRANCH  35  36
ATOM     36  N   UNL A   1      38.132 -18.416 -36.743  0.00  0.00    -0.343 N 
ATOM     37  H   UNL A   1      37.360 -18.187 -37.309  0.00  0.00    +0.000 HD
BRANCH  36  38
ATOM     38  C   UNL A   1      38.675 -19.730 -36.630  0.00  0.00    +0.041 A 
ATOM     39  C   UNL A   1      38.314 -20.564 -35.552  0.00  0.00    -0.005 A 
ATOM     40  C   UNL A   1      38.844 -21.858 -35.531  0.00  0.00    +0.047 A 
ATOM     41  N   UNL A   1      39.630 -22.356 -36.516  0.00  0.00    -0.251 NA
ATOM     42  C   UNL A   1      39.961 -21.569 -37.546  0.00  0.00    +0.074 A 
ATOM     43  C   UNL A   1      40.776 -22.100 -38.535  0.00  0.00    -0.017 A 
ATOM     44  C   UNL A   1      41.179 -21.338 -39.628  0.00  0.00    +0.043 A 
ATOM     45 CL   UNL A   1      42.190 -22.035 -40.834  0.00  0.00    -0.083 Cl
ATOM     46  C   UNL A   1      40.776 -20.017 -39.749  0.00  0.00    -0.043 A 
ATOM     47  C   UNL A   1      39.955 -19.468 -38.765  0.00  0.00    -0.049 A 
ATOM     48  C   UNL A   1      39.520 -20.236 -37.658  0.00  0.00    +0.022 A 
ATOM     49  C   UNL A   1      38.525 -22.830 -34.424  0.00  0.00    -0.010 C 
ATOM     50  C   UNL A   1      38.035 -22.150 -33.151  0.00  0.00    -0.047 C 
ATOM     51  C   UNL A   1      36.928 -21.165 -33.491  0.00  0.00    -0.049 C 
ATOM     52  C   UNL A   1      37.453 -20.066 -34.415  0.00  0.00    -0.024 C 
ENDBRANCH  36  38
ENDBRANCH  35  36
ENDBRANCH  34  35
ENDBRANCH  33  34
ENDBRANCH  32  33
ENDBRANCH  31  32
ENDBRANCH  30  31
ENDBRANCH   3  30
TORSDOF 17
ENDMDL
MODEL 12
REMARK VINA RESULT:    -5.450      2.407      7.400
REMARK INTER + INTRA:         -17.982
REMARK INTER:                 -12.440
REMARK INTRA:                  -5.543
REMARK UNBOUND:                -7.116
REMARK  Name = cpd15.pdb
REMARK  19 active torsions:
REMARK  status: ('A' for Active; 'I' for Inactive)
REMARK    1  A    between atoms: C_1  and  C_2
REMARK    2  A    between atoms: C_6  and  N_7
REMARK    3  A    between atoms: N_7  and  C_8
REMARK    4  A    between atoms: C_13  and  C_14
REMARK    5  A    between atoms: N_16  and  C_17
REMARK    6  A    between atoms: C_17  and  C_18
REMARK    7  A    between atoms: C_18  and  C_19
REMARK    8  A    between atoms: C_19  and  C_20
REMARK    9  A    between atoms: C_20  and  C_21
REMARK   10  A    between atoms: C_21  and  C_22
REMARK   11  A    between atoms: N_24  and  C_25
REMARK   12  A    between atoms: C_25  and  C_26
REMARK   13  A    between atoms: C_26  and  C_27
REMARK   14  A    between atoms: C_27  and  C_28
REMARK   15  A    between atoms: C_28  and  C_29
REMARK   16  A    between atoms: C_29  and  C_30
REMARK   17  A    between atoms: C_30  and  N_31
REMARK   18  A    between atoms: N_31  and  C_32
REMARK   19  A    between atoms: C_47  and  C_48
REMARK                            x       y       z     vdW  Elec       q    Type
REMARK                         _______ _______ _______ _____ _____    ______ ____
ROOT
ATOM      1  C   UNL A   1      44.427 -18.322 -35.777  0.00  0.00    +0.213 C 
ATOM      2  O   UNL A   1      43.751 -19.334 -35.936  0.00  0.00    -0.276 OA
ATOM      3  N   UNL A   1      44.045 -17.265 -34.979  0.00  0.00    -0.315 N 
ATOM      4  H   UNL A   1      44.568 -16.432 -34.993  0.00  0.00    +0.000 HD
ENDROOT
BRANCH   1   5
ATOM      5  C   UNL A   1      45.792 -18.161 -36.411  0.00  0.00    +0.024 C 
BRANCH   5   6
ATOM      6  C   UNL A   1      46.571 -17.046 -35.716  0.00  0.00    -0.045 C 
BRANCH   6   7
ATOM      7  C   UNL A   1      47.365 -16.161 -36.676  0.00  0.00    -0.051 C 
BRANCH   7   8
ATOM      8  C   UNL A   1      46.874 -16.234 -38.125  0.00  0.00    -0.037 C 
BRANCH   8   9
ATOM      9  C   UNL A   1      46.226 -14.923 -38.582  0.00  0.00    +0.012 C 
BRANCH   9  12
ATOM     10  C   UNL A   1      44.738 -15.252 -40.598  0.00  0.00    +0.246 C 
ATOM     11  O   UNL A   1      44.423 -14.765 -41.678  0.00  0.00    -0.270 OA
ATOM     12  N   UNL A   1      45.937 -14.920 -40.010  0.00  0.00    -0.311 N 
ATOM     13  H   UNL A   1      46.671 -14.655 -40.612  0.00  0.00    +0.000 HD
BRANCH  10  19
ATOM     14  C   UNL A   1      44.006 -17.600 -40.032  0.00  0.00    +0.044 A 
ATOM     15  C   UNL A   1      43.100 -18.421 -39.341  0.00  0.00    -0.040 A 
ATOM     16  C   UNL A   1      42.037 -17.878 -38.611  0.00  0.00    -0.060 A 
ATOM     17  C   UNL A   1      41.857 -16.498 -38.555  0.00  0.00    -0.061 A 
ATOM     18  C   UNL A   1      42.753 -15.659 -39.211  0.00  0.00    -0.048 A 
ATOM     19  C   UNL A   1      43.834 -16.205 -39.920  0.00  0.00    +0.058 A 
BRANCH  14  20
ATOM     20  N   UNL A   1      45.066 -18.162 -40.780  0.00  0.00    -0.314 N 
ATOM     21  H   UNL A   1      45.439 -17.571 -41.474  0.00  0.00    +0.000 HD
BRANCH  20  27
ATOM     22  C   UNL A   1      45.863 -22.713 -42.702  0.00  0.00    -0.039 C 
ATOM     23  C   UNL A   1      46.052 -21.670 -41.634  0.00  0.00    -0.046 A 
ATOM     24  C   UNL A   1      46.820 -21.996 -40.507  0.00  0.00    -0.058 A 
ATOM     25  C   UNL A   1      47.016 -21.072 -39.487  0.00  0.00    -0.060 A 
ATOM     26  C   UNL A   1      46.442 -19.806 -39.579  0.00  0.00    -0.040 A 
ATOM     27  C   UNL A   1      45.678 -19.437 -40.695  0.00  0.00    +0.035 A 
ATOM     28  C   UNL A   1      45.498 -20.371 -41.746  0.00  0.00    -0.026 A 
ATOM     29  C   UNL A   1      44.676 -19.994 -42.956  0.00  0.00    -0.038 C 
ENDBRANCH  20  27
ENDBRANCH  14  20
ENDBRANCH  10  19
ENDBRANCH   9  12
ENDBRANCH   8   9
ENDBRANCH   7   8
ENDBRANCH   6   7
ENDBRANCH   5   6
ENDBRANCH   1   5
BRANCH   3  30
ATOM     30  C   UNL A   1      42.882 -17.366 -34.120  0.00  0.00    +0.012 C 
BRANCH  30  31
ATOM     31  C   UNL A   1      41.702 -16.613 -34.734  0.00  0.00    -0.037 C 
BRANCH  31  32
ATOM     32  C   UNL A   1      40.548 -17.515 -35.176  0.00  0.00    -0.052 C 
BRANCH  32  33
ATOM     33  C   UNL A   1      39.361 -16.724 -35.734  0.00  0.00    -0.052 C 
BRANCH  33  34
ATOM     34  C   UNL A   1      38.547 -17.557 -36.723  0.00  0.00    -0.037 C 
BRANCH  34  35
ATOM     35  C   UNL A   1      37.553 -18.467 -35.998  0.00  0.00    +0.009 C 
BRANCH  35  36
ATOM     36  N   UNL A   1      37.555 -19.785 -36.647  0.00  0.00    -0.343 N 
ATOM     37  H   UNL A   1      36.800 -20.143 -37.168  0.00  0.00    +0.000 HD
BRANCH  36  38
ATOM     38  C   UNL A   1      38.779 -20.486 -36.434  0.00  0.00    +0.041 A 
ATOM     39  C   UNL A   1      39.132 -20.934 -35.144  0.00  0.00    -0.005 A 
ATOM     40  C   UNL A   1      40.320 -21.659 -35.014  0.00  0.00    +0.047 A 
ATOM     41  N   UNL A   1      41.105 -21.993 -36.066  0.00  0.00    -0.251 NA
ATOM     42  C   UNL A   1      40.763 -21.581 -37.292  0.00  0.00    +0.074 A 
ATOM     43  C   UNL A   1      41.591 -21.927 -38.350  0.00  0.00    -0.017 A 
ATOM     44  C   UNL A   1      41.312 -21.519 -39.652  0.00  0.00    +0.043 A 
ATOM     45 CL   UNL A   1      42.364 -21.972 -40.936  0.00  0.00    -0.083 Cl
ATOM     46  C   UNL A   1      40.194 -20.743 -39.919  0.00  0.00    -0.043 A 
ATOM     47  C   UNL A   1      39.351 -20.387 -38.867  0.00  0.00    -0.049 A 
ATOM     48  C   UNL A   1      39.610 -20.812 -37.542  0.00  0.00    +0.022 A 
ATOM     49  C   UNL A   1      40.791 -22.182 -33.681  0.00  0.00    -0.010 C 
ATOM     50  C   UNL A   1      40.173 -21.449 -32.497  0.00  0.00    -0.047 C 
ATOM     51  C   UNL A   1      38.664 -21.377 -32.670  0.00  0.00    -0.049 C 
ATOM     52  C   UNL A   1      38.307 -20.584 -33.927  0.00  0.00    -0.024 C 
ENDBRANCH  36  38
ENDBRANCH  35  36
ENDBRANCH  34  35
ENDBRANCH  33  34
ENDBRANCH  32  33
ENDBRANCH  31  32
ENDBRANCH  30  31
ENDBRANCH   3  30
TORSDOF 17
ENDMDL
MODEL 13
REMARK VINA RESULT:    -5.433     19.214     22.947
REMARK INTER + INTRA:         -17.948
REMARK INTER:                 -12.793
REMARK INTRA:                  -5.155
REMARK UNBOUND:                -7.116
REMARK  Name = cpd15.pdb
REMARK  19 active torsions:
REMARK  status: ('A' for Active; 'I' for Inactive)
REMARK    1  A    between atoms: C_1  and  C_2
REMARK    2  A    between atoms: C_6  and  N_7
REMARK    3  A    between atoms: N_7  and  C_8
REMARK    4  A    between atoms: C_13  and  C_14
REMARK    5  A    between atoms: N_16  and  C_17
REMARK    6  A    between atoms: C_17  and  C_18
REMARK    7  A    between atoms: C_18  and  C_19
REMARK    8  A    between atoms: C_19  and  C_20
REMARK    9  A    between atoms: C_20  and  C_21
REMARK   10  A    between atoms: C_21  and  C_22
REMARK   11  A    between atoms: N_24  and  C_25
REMARK   12  A    between atoms: C_25  and  C_26
REMARK   13  A    between atoms: C_26  and  C_27
REMARK   14  A    between atoms: C_27  and  C_28
REMARK   15  A    between atoms: C_28  and  C_29
REMARK   16  A    between atoms: C_29  and  C_30
REMARK   17  A    between atoms: C_30  and  N_31
REMARK   18  A    between atoms: N_31  and  C_32
REMARK   19  A    between atoms: C_47  and  C_48
REMARK                            x       y       z     vdW  Elec       q    Type
REMARK                         _______ _______ _______ _____ _____    ______ ____
ROOT
ATOM      1  C   UNL A   1      32.329 -41.390 -34.261  0.00  0.00    +0.213 C 
ATOM      2  O   UNL A   1      32.765 -41.643 -35.381  0.00  0.00    -0.276 OA
ATOM      3  N   UNL A   1      31.098 -40.817 -34.031  0.00  0.00    -0.315 N 
ATOM      4  H   UNL A   1      30.860 -40.524 -33.123  0.00  0.00    +0.000 HD
ENDROOT
BRANCH   1   5
ATOM      5  C   UNL A   1      33.097 -41.741 -33.005  0.00  0.00    +0.024 C 
BRANCH   5   6
ATOM      6  C   UNL A   1      33.682 -40.479 -32.373  0.00  0.00    -0.045 C 
BRANCH   6   7
ATOM      7  C   UNL A   1      35.001 -40.716 -31.637  0.00  0.00    -0.051 C 
BRANCH   7   8
ATOM      8  C   UNL A   1      35.085 -40.003 -30.284  0.00  0.00    -0.037 C 
BRANCH   8   9
ATOM      9  C   UNL A   1      36.375 -40.343 -29.531  0.00  0.00    +0.012 C 
BRANCH   9  12
ATOM     10  C   UNL A   1      36.772 -38.318 -28.070  0.00  0.00    +0.246 C 
ATOM     11  O   UNL A   1      36.353 -37.716 -27.088  0.00  0.00    -0.270 OA
ATOM     12  N   UNL A   1      36.466 -39.648 -28.254  0.00  0.00    -0.311 N 
ATOM     13  H   UNL A   1      36.292 -40.180 -27.443  0.00  0.00    +0.000 HD
BRANCH  10  19
ATOM     14  C   UNL A   1      37.066 -36.731 -30.011  0.00  0.00    +0.044 A 
ATOM     15  C   UNL A   1      37.952 -36.112 -30.907  0.00  0.00    -0.040 A 
ATOM     16  C   UNL A   1      39.320 -36.404 -30.896  0.00  0.00    -0.060 A 
ATOM     17  C   UNL A   1      39.834 -37.324 -29.985  0.00  0.00    -0.061 A 
ATOM     18  C   UNL A   1      38.982 -37.936 -29.070  0.00  0.00    -0.048 A 
ATOM     19  C   UNL A   1      37.615 -37.622 -29.065  0.00  0.00    +0.058 A 
BRANCH  14  20
ATOM     20  N   UNL A   1      35.683 -36.441 -30.044  0.00  0.00    -0.314 N 
ATOM     21  H   UNL A   1      35.183 -36.725 -29.245  0.00  0.00    +0.000 HD
BRANCH  20  27
ATOM     22  C   UNL A   1      33.583 -32.299 -31.910  0.00  0.00    -0.039 C 
ATOM     23  C   UNL A   1      33.862 -33.778 -31.941  0.00  0.00    -0.046 A 
ATOM     24  C   UNL A   1      33.287 -34.546 -32.964  0.00  0.00    -0.058 A 
ATOM     25  C   UNL A   1      33.504 -35.918 -33.031  0.00  0.00    -0.060 A 
ATOM     26  C   UNL A   1      34.298 -36.542 -32.072  0.00  0.00    -0.040 A 
ATOM     27  C   UNL A   1      34.899 -35.808 -31.041  0.00  0.00    +0.035 A 
ATOM     28  C   UNL A   1      34.699 -34.405 -30.986  0.00  0.00    -0.026 A 
ATOM     29  C   UNL A   1      35.336 -33.595 -29.881  0.00  0.00    -0.038 C 
ENDBRANCH  20  27
ENDBRANCH  14  20
ENDBRANCH  10  19
ENDBRANCH   9  12
ENDBRANCH   8   9
ENDBRANCH   7   8
ENDBRANCH   6   7
ENDBRANCH   5   6
ENDBRANCH   1   5
BRANCH   3  30
ATOM     30  C   UNL A   1      30.147 -40.641 -35.112  0.00  0.00    +0.012 C 
BRANCH  30  31
ATOM     31  C   UNL A   1      30.316 -39.261 -35.747  0.00  0.00    -0.037 C 
BRANCH  31  32
ATOM     32  C   UNL A   1      30.691 -38.159 -34.754  0.00  0.00    -0.052 C 
BRANCH  32  33
ATOM     33  C   UNL A   1      29.608 -37.082 -34.633  0.00  0.00    -0.052 C 
BRANCH  33  34
ATOM     34  C   UNL A   1      30.069 -35.921 -33.750  0.00  0.00    -0.037 C 
BRANCH  34  35
ATOM     35  C   UNL A   1      28.927 -34.938 -33.485  0.00  0.00    +0.009 C 
BRANCH  35  36
ATOM     36  N   UNL A   1      28.578 -34.989 -32.058  0.00  0.00    -0.343 N 
ATOM     37  H   UNL A   1      27.875 -35.567 -31.684  0.00  0.00    +0.000 HD
BRANCH  36  38
ATOM     38  C   UNL A   1      29.380 -34.103 -31.279  0.00  0.00    +0.041 A 
ATOM     39  C   UNL A   1      29.171 -32.709 -31.338  0.00  0.00    -0.005 A 
ATOM     40  C   UNL A   1      29.956 -31.902 -30.510  0.00  0.00    +0.047 A 
ATOM     41  N   UNL A   1      30.855 -32.397 -29.625  0.00  0.00    -0.251 NA
ATOM     42  C   UNL A   1      31.042 -33.720 -29.557  0.00  0.00    +0.074 A 
ATOM     43  C   UNL A   1      31.975 -34.200 -28.650  0.00  0.00    -0.017 A 
ATOM     44  C   UNL A   1      32.240 -35.562 -28.535  0.00  0.00    +0.043 A 
ATOM     45 CL   UNL A   1      33.405 -36.116 -27.396  0.00  0.00    -0.083 Cl
ATOM     46  C   UNL A   1      31.575 -36.476 -29.338  0.00  0.00    -0.043 A 
ATOM     47  C   UNL A   1      30.632 -36.011 -30.254  0.00  0.00    -0.049 A 
ATOM     48  C   UNL A   1      30.338 -34.631 -30.368  0.00  0.00    +0.022 A 
ATOM     49  C   UNL A   1      29.817 -30.401 -30.497  0.00  0.00    -0.010 C 
ATOM     50  C   UNL A   1      29.164 -29.849 -31.758  0.00  0.00    -0.047 C 
ATOM     51  C   UNL A   1      27.886 -30.618 -32.051  0.00  0.00    -0.049 C 
ATOM     52  C   UNL A   1      28.196 -32.092 -32.313  0.00  0.00    -0.024 C 
ENDBRANCH  36  38
ENDBRANCH  35  36
ENDBRANCH  34  35
ENDBRANCH  33  34
ENDBRANCH  32  33
ENDBRANCH  31  32
ENDBRANCH  30  31
ENDBRANCH   3  30
TORSDOF 17
ENDMDL
MODEL 14
REMARK VINA RESULT:    -5.421      2.524      4.610
REMARK INTER + INTRA:         -17.924
REMARK INTER:                 -12.249
REMARK INTRA:                  -5.675
REMARK UNBOUND:                -7.116
REMARK  Name = cpd15.pdb
REMARK  19 active torsions:
REMARK  status: ('A' for Active; 'I' for Inactive)
REMARK    1  A    between atoms: C_1  and  C_2
REMARK    2  A    between atoms: C_6  and  N_7
REMARK    3  A    between atoms: N_7  and  C_8
REMARK    4  A    between atoms: C_13  and  C_14
REMARK    5  A    between atoms: N_16  and  C_17
REMARK    6  A    between atoms: C_17  and  C_18
REMARK    7  A    between atoms: C_18  and  C_19
REMARK    8  A    between atoms: C_19  and  C_20
REMARK    9  A    between atoms: C_20  and  C_21
REMARK   10  A    between atoms: C_21  and  C_22
REMARK   11  A    between atoms: N_24  and  C_25
REMARK   12  A    between atoms: C_25  and  C_26
REMARK   13  A    between atoms: C_26  and  C_27
REMARK   14  A    between atoms: C_27  and  C_28
REMARK   15  A    between atoms: C_28  and  C_29
REMARK   16  A    between atoms: C_29  and  C_30
REMARK   17  A    between atoms: C_30  and  N_31
REMARK   18  A    between atoms: N_31  and  C_32
REMARK   19  A    between atoms: C_47  and  C_48
REMARK                            x       y       z     vdW  Elec       q    Type
REMARK                         _______ _______ _______ _____ _____    ______ ____
ROOT
ATOM      1  C   UNL A   1      42.023 -16.525 -39.306  0.00  0.00    +0.213 C 
ATOM      2  O   UNL A   1      41.745 -15.909 -40.331  0.00  0.00    -0.276 OA
ATOM      3  N   UNL A   1      42.579 -15.940 -38.190  0.00  0.00    -0.315 N 
ATOM      4  H   UNL A   1      42.896 -16.507 -37.450  0.00  0.00    +0.000 HD
ENDROOT
BRANCH   1   5
ATOM      5  C   UNL A   1      41.727 -18.002 -39.154  0.00  0.00    +0.024 C 
BRANCH   5   6
ATOM      6  C   UNL A   1      42.685 -18.632 -38.144  0.00  0.00    -0.045 C 
BRANCH   6   7
ATOM      7  C   UNL A   1      42.606 -20.158 -38.093  0.00  0.00    -0.051 C 
BRANCH   7   8
ATOM      8  C   UNL A   1      41.460 -20.740 -38.926  0.00  0.00    -0.037 C 
BRANCH   8   9
ATOM      9  C   UNL A   1      40.522 -21.614 -38.087  0.00  0.00    +0.012 C 
BRANCH   9  12
ATOM     10  C   UNL A   1      39.080 -20.433 -36.378  0.00  0.00    +0.246 C 
ATOM     11  O   UNL A   1      38.368 -19.452 -36.202  0.00  0.00    -0.270 OA
ATOM     12  N   UNL A   1      39.336 -20.887 -37.652  0.00  0.00    -0.311 N 
ATOM     13  H   UNL A   1      38.651 -20.704 -38.336  0.00  0.00    +0.000 HD
BRANCH  10  19
ATOM     14  C   UNL A   1      40.848 -20.689 -34.594  0.00  0.00    +0.044 A 
ATOM     15  C   UNL A   1      41.320 -21.427 -33.497  0.00  0.00    -0.040 A 
ATOM     16  C   UNL A   1      40.677 -22.594 -33.073  0.00  0.00    -0.060 A 
ATOM     17  C   UNL A   1      39.541 -23.050 -33.738  0.00  0.00    -0.061 A 
ATOM     18  C   UNL A   1      39.037 -22.327 -34.816  0.00  0.00    -0.048 A 
ATOM     19  C   UNL A   1      39.669 -21.142 -35.222  0.00  0.00    +0.058 A 
BRANCH  14  20
ATOM     20  N   UNL A   1      41.517 -19.520 -35.024  0.00  0.00    -0.314 N 
ATOM     21  H   UNL A   1      41.611 -19.434 -36.001  0.00  0.00    +0.000 HD
BRANCH  20  27
ATOM     22  C   UNL A   1      45.530 -17.185 -33.157  0.00  0.00    -0.039 C 
ATOM     23  C   UNL A   1      44.044 -17.322 -33.354  0.00  0.00    -0.046 A 
ATOM     24  C   UNL A   1      43.198 -16.388 -32.739  0.00  0.00    -0.058 A 
ATOM     25  C   UNL A   1      41.818 -16.478 -32.881  0.00  0.00    -0.060 A 
ATOM     26  C   UNL A   1      41.264 -17.507 -33.638  0.00  0.00    -0.040 A 
ATOM     27  C   UNL A   1      42.076 -18.453 -34.278  0.00  0.00    +0.035 A 
ATOM     28  C   UNL A   1      43.484 -18.348 -34.154  0.00  0.00    -0.026 A 
ATOM     29  C   UNL A   1      44.378 -19.359 -34.834  0.00  0.00    -0.038 C 
ENDBRANCH  20  27
ENDBRANCH  14  20
ENDBRANCH  10  19
ENDBRANCH   9  12
ENDBRANCH   8   9
ENDBRANCH   7   8
ENDBRANCH   6   7
ENDBRANCH   5   6
ENDBRANCH   1   5
BRANCH   3  30
ATOM     30  C   UNL A   1      42.703 -14.499 -38.090  0.00  0.00    +0.012 C 
BRANCH  30  31
ATOM     31  C   UNL A   1      44.163 -14.080 -38.254  0.00  0.00    -0.037 C 
BRANCH  31  32
ATOM     32  C   UNL A   1      44.423 -13.187 -39.469  0.00  0.00    -0.052 C 
BRANCH  32  33
ATOM     33  C   UNL A   1      44.683 -13.990 -40.747  0.00  0.00    -0.052 C 
BRANCH  33  34
ATOM     34  C   UNL A   1      46.174 -14.261 -40.945  0.00  0.00    -0.037 C 
BRANCH  34  35
ATOM     35  C   UNL A   1      46.475 -15.761 -40.916  0.00  0.00    +0.009 C 
BRANCH  35  36
ATOM     36  N   UNL A   1      45.237 -16.488 -40.602  0.00  0.00    -0.343 N 
ATOM     37  H   UNL A   1      44.334 -16.122 -40.741  0.00  0.00    +0.000 HD
BRANCH  36  38
ATOM     38  C   UNL A   1      45.497 -17.787 -40.073  0.00  0.00    +0.041 A 
ATOM     39  C   UNL A   1      45.165 -18.941 -40.813  0.00  0.00    -0.005 A 
ATOM     40  C   UNL A   1      45.496 -20.181 -40.258  0.00  0.00    +0.047 A 
ATOM     41  N   UNL A   1      46.161 -20.318 -39.086  0.00  0.00    -0.251 NA
ATOM     42  C   UNL A   1      46.489 -19.222 -38.391  0.00  0.00    +0.074 A 
ATOM     43  C   UNL A   1      47.161 -19.391 -37.190  0.00  0.00    -0.017 A 
ATOM     44  C   UNL A   1      47.519 -18.301 -36.400  0.00  0.00    +0.043 A 
ATOM     45 CL   UNL A   1      48.352 -18.553 -34.917  0.00  0.00    -0.083 Cl
ATOM     46  C   UNL A   1      47.202 -17.012 -36.801  0.00  0.00    -0.043 A 
ATOM     47  C   UNL A   1      46.529 -16.824 -38.007  0.00  0.00    -0.049 A 
ATOM     48  C   UNL A   1      46.176 -17.921 -38.830  0.00  0.00    +0.022 A 
ATOM     49  C   UNL A   1      45.184 -21.476 -40.963  0.00  0.00    -0.010 C 
ATOM     50  C   UNL A   1      44.083 -21.340 -42.009  0.00  0.00    -0.047 C 
ATOM     51  C   UNL A   1      44.387 -20.161 -42.920  0.00  0.00    -0.049 C 
ATOM     52  C   UNL A   1      44.411 -18.858 -42.119  0.00  0.00    -0.024 C 
ENDBRANCH  36  38
ENDBRANCH  35  36
ENDBRANCH  34  35
ENDBRANCH  33  34
ENDBRANCH  32  33
ENDBRANCH  31  32
ENDBRANCH  30  31
ENDBRANCH   3  30
TORSDOF 17
ENDMDL
MODEL 15
REMARK VINA RESULT:    -5.401      2.873      8.217
REMARK INTER + INTRA:         -17.884
REMARK INTER:                 -13.169
REMARK INTRA:                  -4.715
REMARK UNBOUND:                -7.116
REMARK  Name = cpd15.pdb
REMARK  19 active torsions:
REMARK  status: ('A' for Active; 'I' for Inactive)
REMARK    1  A    between atoms: C_1  and  C_2
REMARK    2  A    between atoms: C_6  and  N_7
REMARK    3  A    between atoms: N_7  and  C_8
REMARK    4  A    between atoms: C_13  and  C_14
REMARK    5  A    between atoms: N_16  and  C_17
REMARK    6  A    between atoms: C_17  and  C_18
REMARK    7  A    between atoms: C_18  and  C_19
REMARK    8  A    between atoms: C_19  and  C_20
REMARK    9  A    between atoms: C_20  and  C_21
REMARK   10  A    between atoms: C_21  and  C_22
REMARK   11  A    between atoms: N_24  and  C_25
REMARK   12  A    between atoms: C_25  and  C_26
REMARK   13  A    between atoms: C_26  and  C_27
REMARK   14  A    between atoms: C_27  and  C_28
REMARK   15  A    between atoms: C_28  and  C_29
REMARK   16  A    between atoms: C_29  and  C_30
REMARK   17  A    between atoms: C_30  and  N_31
REMARK   18  A    between atoms: N_31  and  C_32
REMARK   19  A    between atoms: C_47  and  C_48
REMARK                            x       y       z     vdW  Elec       q    Type
REMARK                         _______ _______ _______ _____ _____    ______ ____
ROOT
ATOM      1  C   UNL A   1      45.296 -18.079 -33.757  0.00  0.00    +0.213 C 
ATOM      2  O   UNL A   1      45.260 -16.914 -33.369  0.00  0.00    -0.276 OA
ATOM      3  N   UNL A   1      44.315 -19.007 -33.481  0.00  0.00    -0.315 N 
ATOM      4  H   UNL A   1      44.462 -19.952 -33.712  0.00  0.00    +0.000 HD
ENDROOT
BRANCH   1   5
ATOM      5  C   UNL A   1      46.415 -18.597 -34.634  0.00  0.00    +0.024 C 
BRANCH   5   6
ATOM      6  C   UNL A   1      46.085 -20.001 -35.138  0.00  0.00    -0.045 C 
BRANCH   6   7
ATOM      7  C   UNL A   1      45.723 -20.051 -36.623  0.00  0.00    -0.051 C 
BRANCH   7   8
ATOM      8  C   UNL A   1      44.226 -19.873 -36.895  0.00  0.00    -0.037 C 
BRANCH   8   9
ATOM      9  C   UNL A   1      43.898 -19.953 -38.389  0.00  0.00    +0.012 C 
BRANCH   9  12
ATOM     10  C   UNL A   1      43.545 -17.584 -39.198  0.00  0.00    +0.246 C 
ATOM     11  O   UNL A   1      42.917 -16.901 -40.001  0.00  0.00    -0.270 OA
ATOM     12  N   UNL A   1      43.084 -18.829 -38.835  0.00  0.00    -0.311 N 
ATOM     13  H   UNL A   1      42.111 -18.975 -38.881  0.00  0.00    +0.000 HD
BRANCH  10  19
ATOM     14  C   UNL A   1      46.053 -17.296 -39.221  0.00  0.00    +0.044 A 
ATOM     15  C   UNL A   1      47.186 -16.761 -38.588  0.00  0.00    -0.040 A 
ATOM     16  C   UNL A   1      47.086 -16.075 -37.373  0.00  0.00    -0.060 A 
ATOM     17  C   UNL A   1      45.845 -15.909 -36.763  0.00  0.00    -0.061 A 
ATOM     18  C   UNL A   1      44.701 -16.409 -37.378  0.00  0.00    -0.048 A 
ATOM     19  C   UNL A   1      44.801 -17.073 -38.610  0.00  0.00    +0.058 A 
BRANCH  14  20
ATOM     20  N   UNL A   1      46.170 -18.003 -40.440  0.00  0.00    -0.314 N 
ATOM     21  H   UNL A   1      46.162 -17.438 -41.247  0.00  0.00    +0.000 HD
BRANCH  20  27
ATOM     22  C   UNL A   1      44.693 -22.107 -42.894  0.00  0.00    -0.039 C 
ATOM     23  C   UNL A   1      45.558 -21.401 -41.884  0.00  0.00    -0.046 A 
ATOM     24  C   UNL A   1      46.478 -22.158 -41.145  0.00  0.00    -0.058 A 
ATOM     25  C   UNL A   1      47.292 -21.555 -40.193  0.00  0.00    -0.060 A 
ATOM     26  C   UNL A   1      47.195 -20.185 -39.964  0.00  0.00    -0.040 A 
ATOM     27  C   UNL A   1      46.296 -19.392 -40.690  0.00  0.00    +0.035 A 
ATOM     28  C   UNL A   1      45.482 -20.001 -41.679  0.00  0.00    -0.026 A 
ATOM     29  C   UNL A   1      44.505 -19.165 -42.471  0.00  0.00    -0.038 C 
ENDBRANCH  20  27
ENDBRANCH  14  20
ENDBRANCH  10  19
ENDBRANCH   9  12
ENDBRANCH   8   9
ENDBRANCH   7   8
ENDBRANCH   6   7
ENDBRANCH   5   6
ENDBRANCH   1   5
BRANCH   3  30
ATOM     30  C   UNL A   1      43.069 -18.608 -32.858  0.00  0.00    +0.012 C 
BRANCH  30  31
ATOM     31  C   UNL A   1      41.891 -19.313 -33.528  0.00  0.00    -0.037 C 
BRANCH  31  32
ATOM     32  C   UNL A   1      41.220 -20.375 -32.655  0.00  0.00    -0.052 C 
BRANCH  32  33
ATOM     33  C   UNL A   1      41.386 -21.791 -33.217  0.00  0.00    -0.052 C 
BRANCH  33  34
ATOM     34  C   UNL A   1      40.189 -22.676 -32.869  0.00  0.00    -0.037 C 
BRANCH  34  35
ATOM     35  C   UNL A   1      38.913 -21.847 -32.711  0.00  0.00    +0.009 C 
BRANCH  35  36
ATOM     36  N   UNL A   1      38.101 -21.988 -33.929  0.00  0.00    -0.343 N 
ATOM     37  H   UNL A   1      37.493 -22.743 -34.099  0.00  0.00    +0.000 HD
BRANCH  36  38
ATOM     38  C   UNL A   1      38.299 -20.903 -34.833  0.00  0.00    +0.041 A 
ATOM     39  C   UNL A   1      37.913 -19.594 -34.476  0.00  0.00    -0.005 A 
ATOM     40  C   UNL A   1      38.183 -18.570 -35.388  0.00  0.00    +0.047 A 
ATOM     41  N   UNL A   1      38.840 -18.768 -36.556  0.00  0.00    -0.251 NA
ATOM     42  C   UNL A   1      39.220 -20.007 -36.888  0.00  0.00    +0.074 A 
ATOM     43  C   UNL A   1      39.881 -20.184 -38.094  0.00  0.00    -0.017 A 
ATOM     44  C   UNL A   1      40.291 -21.446 -38.518  0.00  0.00    +0.043 A 
ATOM     45 CL   UNL A   1      41.110 -21.622 -40.020  0.00  0.00    -0.083 Cl
ATOM     46  C   UNL A   1      40.036 -22.564 -37.738  0.00  0.00    -0.043 A 
ATOM     47  C   UNL A   1      39.374 -22.404 -36.522  0.00  0.00    -0.049 A 
ATOM     48  C   UNL A   1      38.969 -21.125 -36.068  0.00  0.00    +0.022 A 
ATOM     49  C   UNL A   1      37.809 -17.137 -35.107  0.00  0.00    -0.010 C 
ATOM     50  C   UNL A   1      36.718 -16.996 -34.053  0.00  0.00    -0.047 C 
ATOM     51  C   UNL A   1      37.078 -17.825 -32.831  0.00  0.00    -0.049 C 
ATOM     52  C   UNL A   1      37.164 -19.308 -33.196  0.00  0.00    -0.024 C 
ENDBRANCH  36  38
ENDBRANCH  35  36
ENDBRANCH  34  35
ENDBRANCH  33  34
ENDBRANCH  32  33
ENDBRANCH  31  32
ENDBRANCH  30  31
ENDBRANCH   3  30
TORSDOF 17
ENDMDL
MODEL 16
REMARK VINA RESULT:    -5.388      2.819      7.169
REMARK INTER + INTRA:         -17.859
REMARK INTER:                 -12.441
REMARK INTRA:                  -5.419
REMARK UNBOUND:                -7.116
REMARK  Name = cpd15.pdb
REMARK  19 active torsions:
REMARK  status: ('A' for Active; 'I' for Inactive)
REMARK    1  A    between atoms: C_1  and  C_2
REMARK    2  A    between atoms: C_6  and  N_7
REMARK    3  A    between atoms: N_7  and  C_8
REMARK    4  A    between atoms: C_13  and  C_14
REMARK    5  A    between atoms: N_16  and  C_17
REMARK    6  A    between atoms: C_17  and  C_18
REMARK    7  A    between atoms: C_18  and  C_19
REMARK    8  A    between atoms: C_19  and  C_20
REMARK    9  A    between atoms: C_20  and  C_21
REMARK   10  A    between atoms: C_21  and  C_22
REMARK   11  A    between atoms: N_24  and  C_25
REMARK   12  A    between atoms: C_25  and  C_26
REMARK   13  A    between atoms: C_26  and  C_27
REMARK   14  A    between atoms: C_27  and  C_28
REMARK   15  A    between atoms: C_28  and  C_29
REMARK   16  A    between atoms: C_29  and  C_30
REMARK   17  A    between atoms: C_30  and  N_31
REMARK   18  A    between atoms: N_31  and  C_32
REMARK   19  A    between atoms: C_47  and  C_48
REMARK                            x       y       z     vdW  Elec       q    Type
REMARK                         _______ _______ _______ _____ _____    ______ ____
ROOT
ATOM      1  C   UNL A   1      43.465 -14.408 -35.415  0.00  0.00    +0.213 C 
ATOM      2  O   UNL A   1      43.500 -13.181 -35.414  0.00  0.00    -0.276 OA
ATOM      3  N   UNL A   1      43.263 -15.168 -34.284  0.00  0.00    -0.315 N 
ATOM      4  H   UNL A   1      43.372 -16.145 -34.329  0.00  0.00    +0.000 HD
ENDROOT
BRANCH   1   5
ATOM      5  C   UNL A   1      43.588 -15.213 -36.691  0.00  0.00    +0.024 C 
BRANCH   5   6
ATOM      6  C   UNL A   1      44.979 -15.033 -37.298  0.00  0.00    -0.045 C 
BRANCH   6   7
ATOM      7  C   UNL A   1      46.100 -15.638 -36.452  0.00  0.00    -0.051 C 
BRANCH   7   8
ATOM      8  C   UNL A   1      47.176 -16.347 -37.279  0.00  0.00    -0.037 C 
BRANCH   8   9
ATOM      9  C   UNL A   1      47.149 -15.921 -38.750  0.00  0.00    +0.012 C 
BRANCH   9  12
ATOM     10  C   UNL A   1      46.428 -17.485 -40.600  0.00  0.00    +0.246 C 
ATOM     11  O   UNL A   1      46.820 -18.065 -41.606  0.00  0.00    -0.270 OA
ATOM     12  N   UNL A   1      47.328 -17.049 -39.654  0.00  0.00    -0.311 N 
ATOM     13  H   UNL A   1      48.174 -17.548 -39.582  0.00  0.00    +0.000 HD
BRANCH  10  19
ATOM     14  C   UNL A   1      44.117 -18.283 -39.970  0.00  0.00    +0.044 A 
ATOM     15  C   UNL A   1      42.763 -17.958 -39.791  0.00  0.00    -0.040 A 
ATOM     16  C   UNL A   1      42.280 -16.674 -40.067  0.00  0.00    -0.060 A 
ATOM     17  C   UNL A   1      43.145 -15.684 -40.529  0.00  0.00    -0.061 A 
ATOM     18  C   UNL A   1      44.497 -15.972 -40.695  0.00  0.00    -0.048 A 
ATOM     19  C   UNL A   1      44.983 -17.252 -40.391  0.00  0.00    +0.058 A 
BRANCH  14  20
ATOM     20  N   UNL A   1      44.590 -19.589 -39.704  0.00  0.00    -0.314 N 
ATOM     21  H   UNL A   1      44.631 -19.826 -38.750  0.00  0.00    +0.000 HD
BRANCH  20  27
ATOM     22  C   UNL A   1      47.746 -23.309 -40.820  0.00  0.00    -0.039 C 
ATOM     23  C   UNL A   1      46.571 -22.422 -41.136  0.00  0.00    -0.046 A 
ATOM     24  C   UNL A   1      45.914 -22.594 -42.363  0.00  0.00    -0.058 A 
ATOM     25  C   UNL A   1      44.831 -21.794 -42.708  0.00  0.00    -0.060 A 
ATOM     26  C   UNL A   1      44.391 -20.807 -41.829  0.00  0.00    -0.040 A 
ATOM     27  C   UNL A   1      45.013 -20.612 -40.589  0.00  0.00    +0.035 A 
ATOM     28  C   UNL A   1      46.102 -21.444 -40.226  0.00  0.00    -0.026 A 
ATOM     29  C   UNL A   1      46.789 -21.249 -38.895  0.00  0.00    -0.038 C 
ENDBRANCH  20  27
ENDBRANCH  14  20
ENDBRANCH  10  19
ENDBRANCH   9  12
ENDBRANCH   8   9
ENDBRANCH   7   8
ENDBRANCH   6   7
ENDBRANCH   5   6
ENDBRANCH   1   5
BRANCH   3  30
ATOM     30  C   UNL A   1      42.893 -14.547 -33.028  0.00  0.00    +0.012 C 
BRANCH  30  31
ATOM     31  C   UNL A   1      41.459 -14.922 -32.653  0.00  0.00    -0.037 C 
BRANCH  31  32
ATOM     32  C   UNL A   1      40.850 -16.015 -33.533  0.00  0.00    -0.052 C 
BRANCH  32  33
ATOM     33  C   UNL A   1      39.491 -16.499 -33.017  0.00  0.00    -0.052 C 
BRANCH  33  34
ATOM     34  C   UNL A   1      39.375 -18.022 -33.087  0.00  0.00    -0.037 C 
BRANCH  34  35
ATOM     35  C   UNL A   1      39.893 -18.558 -34.423  0.00  0.00    +0.009 C 
BRANCH  35  36
ATOM     36  N   UNL A   1      40.555 -19.850 -34.192  0.00  0.00    -0.343 N 
ATOM     37  H   UNL A   1      40.349 -20.445 -33.435  0.00  0.00    +0.000 HD
BRANCH  36  38
ATOM     38  C   UNL A   1      41.528 -20.140 -35.193  0.00  0.00    +0.041 A 
ATOM     39  C   UNL A   1      41.149 -20.752 -36.405  0.00  0.00    -0.005 A 
ATOM     40  C   UNL A   1      42.145 -20.960 -37.364  0.00  0.00    +0.047 A 
ATOM     41  N   UNL A   1      43.428 -20.554 -37.203  0.00  0.00    -0.251 NA
ATOM     42  C   UNL A   1      43.785 -19.960 -36.059  0.00  0.00    +0.074 A 
ATOM     43  C   UNL A   1      45.106 -19.564 -35.916  0.00  0.00    -0.017 A 
ATOM     44  C   UNL A   1      45.559 -18.957 -34.747  0.00  0.00    +0.043 A 
ATOM     45 CL   UNL A   1      47.206 -18.479 -34.610  0.00  0.00    -0.083 Cl
ATOM     46  C   UNL A   1      44.690 -18.741 -33.688  0.00  0.00    -0.043 A 
ATOM     47  C   UNL A   1      43.358 -19.131 -33.816  0.00  0.00    -0.049 A 
ATOM     48  C   UNL A   1      42.879 -19.731 -35.005  0.00  0.00    +0.022 A 
ATOM     49  C   UNL A   1      41.848 -21.608 -38.692  0.00  0.00    -0.010 C 
ATOM     50  C   UNL A   1      40.568 -22.434 -38.684  0.00  0.00    -0.047 C 
ATOM     51  C   UNL A   1      39.433 -21.612 -38.093  0.00  0.00    -0.049 C 
ATOM     52  C   UNL A   1      39.739 -21.241 -36.642  0.00  0.00    -0.024 C 
ENDBRANCH  36  38
ENDBRANCH  35  36
ENDBRANCH  34  35
ENDBRANCH  33  34
ENDBRANCH  32  33
ENDBRANCH  31  32
ENDBRANCH  30  31
ENDBRANCH   3  30
TORSDOF 17
ENDMDL
MODEL 17
REMARK VINA RESULT:    -5.288      2.969      7.293
REMARK INTER + INTRA:         -17.659
REMARK INTER:                 -12.014
REMARK INTRA:                  -5.644
REMARK UNBOUND:                -7.116
REMARK  Name = cpd15.pdb
REMARK  19 active torsions:
REMARK  status: ('A' for Active; 'I' for Inactive)
REMARK    1  A    between atoms: C_1  and  C_2
REMARK    2  A    between atoms: C_6  and  N_7
REMARK    3  A    between atoms: N_7  and  C_8
REMARK    4  A    between atoms: C_13  and  C_14
REMARK    5  A    between atoms: N_16  and  C_17
REMARK    6  A    between atoms: C_17  and  C_18
REMARK    7  A    between atoms: C_18  and  C_19
REMARK    8  A    between atoms: C_19  and  C_20
REMARK    9  A    between atoms: C_20  and  C_21
REMARK   10  A    between atoms: C_21  and  C_22
REMARK   11  A    between atoms: N_24  and  C_25
REMARK   12  A    between atoms: C_25  and  C_26
REMARK   13  A    between atoms: C_26  and  C_27
REMARK   14  A    between atoms: C_27  and  C_28
REMARK   15  A    between atoms: C_28  and  C_29
REMARK   16  A    between atoms: C_29  and  C_30
REMARK   17  A    between atoms: C_30  and  N_31
REMARK   18  A    between atoms: N_31  and  C_32
REMARK   19  A    between atoms: C_47  and  C_48
REMARK                            x       y       z     vdW  Elec       q    Type
REMARK                         _______ _______ _______ _____ _____    ______ ____
ROOT
ATOM      1  C   UNL A   1      40.478 -18.179 -38.396  0.00  0.00    +0.213 C 
ATOM      2  O   UNL A   1      41.155 -17.550 -39.205  0.00  0.00    -0.276 OA
ATOM      3  N   UNL A   1      39.988 -17.641 -37.226  0.00  0.00    -0.315 N 
ATOM      4  H   UNL A   1      39.562 -18.228 -36.562  0.00  0.00    +0.000 HD
ENDROOT
BRANCH   1   5
ATOM      5  C   UNL A   1      40.066 -19.614 -38.641  0.00  0.00    +0.024 C 
BRANCH   5   6
ATOM      6  C   UNL A   1      41.117 -20.329 -39.488  0.00  0.00    -0.045 C 
BRANCH   6   7
ATOM      7  C   UNL A   1      42.041 -21.240 -38.680  0.00  0.00    -0.051 C 
BRANCH   7   8
ATOM      8  C   UNL A   1      43.457 -20.681 -38.510  0.00  0.00    -0.037 C 
BRANCH   8   9
ATOM      9  C   UNL A   1      43.605 -19.864 -37.222  0.00  0.00    +0.012 C 
BRANCH   9  12
ATOM     10  C   UNL A   1      44.834 -17.682 -37.564  0.00  0.00    +0.246 C 
ATOM     11  O   UNL A   1      44.863 -16.667 -38.252  0.00  0.00    -0.270 OA
ATOM     12  N   UNL A   1      43.683 -18.433 -37.484  0.00  0.00    -0.311 N 
ATOM     13  H   UNL A   1      42.830 -17.957 -37.616  0.00  0.00    +0.000 HD
BRANCH  10  19
ATOM     14  C   UNL A   1      47.162 -18.649 -37.458  0.00  0.00    +0.044 A 
ATOM     15  C   UNL A   1      48.255 -19.012 -36.655  0.00  0.00    -0.040 A 
ATOM     16  C   UNL A   1      48.209 -18.886 -35.263  0.00  0.00    -0.060 A 
ATOM     17  C   UNL A   1      47.065 -18.392 -34.641  0.00  0.00    -0.061 A 
ATOM     18  C   UNL A   1      45.974 -18.003 -35.414  0.00  0.00    -0.048 A 
ATOM     19  C   UNL A   1      46.033 -18.105 -36.812  0.00  0.00    +0.058 A 
BRANCH  14  20
ATOM     20  N   UNL A   1      47.215 -18.798 -38.864  0.00  0.00    -0.314 N 
ATOM     21  H   UNL A   1      47.638 -18.048 -39.342  0.00  0.00    +0.000 HD
BRANCH  20  27
ATOM     22  C   UNL A   1      44.619 -20.341 -42.854  0.00  0.00    -0.039 C 
ATOM     23  C   UNL A   1      45.473 -20.601 -41.642  0.00  0.00    -0.046 A 
ATOM     24  C   UNL A   1      45.780 -21.929 -41.312  0.00  0.00    -0.058 A 
ATOM     25  C   UNL A   1      46.556 -22.223 -40.196  0.00  0.00    -0.060 A 
ATOM     26  C   UNL A   1      47.034 -21.191 -39.392  0.00  0.00    -0.040 A 
ATOM     27  C   UNL A   1      46.758 -19.851 -39.695  0.00  0.00    +0.035 A 
ATOM     28  C   UNL A   1      45.988 -19.549 -40.846  0.00  0.00    -0.026 A 
ATOM     29  C   UNL A   1      45.678 -18.111 -41.189  0.00  0.00    -0.038 C 
ENDBRANCH  20  27
ENDBRANCH  14  20
ENDBRANCH  10  19
ENDBRANCH   9  12
ENDBRANCH   8   9
ENDBRANCH   7   8
ENDBRANCH   6   7
ENDBRANCH   5   6
ENDBRANCH   1   5
BRANCH   3  30
ATOM     30  C   UNL A   1      40.093 -16.219 -36.961  0.00  0.00    +0.012 C 
BRANCH  30  31
ATOM     31  C   UNL A   1      41.506 -15.869 -36.495  0.00  0.00    -0.037 C 
BRANCH  31  32
ATOM     32  C   UNL A   1      41.589 -15.432 -35.031  0.00  0.00    -0.052 C 
BRANCH  32  33
ATOM     33  C   UNL A   1      43.028 -15.397 -34.507  0.00  0.00    -0.052 C 
BRANCH  33  34
ATOM     34  C   UNL A   1      43.240 -16.414 -33.385  0.00  0.00    -0.037 C 
BRANCH  34  35
ATOM     35  C   UNL A   1      42.772 -17.809 -33.803  0.00  0.00    +0.009 C 
BRANCH  35  36
ATOM     36  N   UNL A   1      41.914 -18.359 -32.744  0.00  0.00    -0.343 N 
ATOM     37  H   UNL A   1      42.219 -18.534 -31.824  0.00  0.00    +0.000 HD
BRANCH  36  38
ATOM     38  C   UNL A   1      40.587 -18.609 -33.205  0.00  0.00    +0.041 A 
ATOM     39  C   UNL A   1      39.543 -17.711 -32.902  0.00  0.00    -0.005 A 
ATOM     40  C   UNL A   1      38.279 -17.989 -33.429  0.00  0.00    +0.047 A 
ATOM     41  N   UNL A   1      38.030 -19.037 -34.252  0.00  0.00    -0.251 NA
ATOM     42  C   UNL A   1      39.024 -19.880 -34.551  0.00  0.00    +0.074 A 
ATOM     43  C   UNL A   1      38.740 -20.951 -35.386  0.00  0.00    -0.017 A 
ATOM     44  C   UNL A   1      39.717 -21.882 -35.728  0.00  0.00    +0.043 A 
ATOM     45 CL   UNL A   1      39.324 -23.195 -36.769  0.00  0.00    -0.083 Cl
ATOM     46  C   UNL A   1      41.005 -21.762 -35.229  0.00  0.00    -0.043 A 
ATOM     47  C   UNL A   1      41.308 -20.692 -34.389  0.00  0.00    -0.049 A 
ATOM     48  C   UNL A   1      40.331 -19.725 -34.049  0.00  0.00    +0.022 A 
ATOM     49  C   UNL A   1      37.093 -17.097 -33.165  0.00  0.00    -0.010 C 
ATOM     50  C   UNL A   1      37.264 -16.220 -31.931  0.00  0.00    -0.047 C 
ATOM     51  C   UNL A   1      38.610 -15.514 -31.988  0.00  0.00    -0.049 C 
ATOM     52  C   UNL A   1      39.750 -16.532 -31.980  0.00  0.00    -0.024 C 
ENDBRANCH  36  38
ENDBRANCH  35  36
ENDBRANCH  34  35
ENDBRANCH  33  34
ENDBRANCH  32  33
ENDBRANCH  31  32
ENDBRANCH  30  31
ENDBRANCH   3  30
TORSDOF 17
ENDMDL
MODEL 18
REMARK VINA RESULT:    -5.258      2.494      6.503
REMARK INTER + INTRA:         -17.599
REMARK INTER:                 -11.424
REMARK INTRA:                  -6.176
REMARK UNBOUND:                -7.116
REMARK  Name = cpd15.pdb
REMARK  19 active torsions:
REMARK  status: ('A' for Active; 'I' for Inactive)
REMARK    1  A    between atoms: C_1  and  C_2
REMARK    2  A    between atoms: C_6  and  N_7
REMARK    3  A    between atoms: N_7  and  C_8
REMARK    4  A    between atoms: C_13  and  C_14
REMARK    5  A    between atoms: N_16  and  C_17
REMARK    6  A    between atoms: C_17  and  C_18
REMARK    7  A    between atoms: C_18  and  C_19
REMARK    8  A    between atoms: C_19  and  C_20
REMARK    9  A    between atoms: C_20  and  C_21
REMARK   10  A    between atoms: C_21  and  C_22
REMARK   11  A    between atoms: N_24  and  C_25
REMARK   12  A    between atoms: C_25  and  C_26
REMARK   13  A    between atoms: C_26  and  C_27
REMARK   14  A    between atoms: C_27  and  C_28
REMARK   15  A    between atoms: C_28  and  C_29
REMARK   16  A    between atoms: C_29  and  C_30
REMARK   17  A    between atoms: C_30  and  N_31
REMARK   18  A    between atoms: N_31  and  C_32
REMARK   19  A    between atoms: C_47  and  C_48
REMARK                            x       y       z     vdW  Elec       q    Type
REMARK                         _______ _______ _______ _____ _____    ______ ____
ROOT
ATOM      1  C   UNL A   1      43.745 -18.105 -40.236  0.00  0.00    +0.213 C 
ATOM      2  O   UNL A   1      43.300 -18.436 -39.140  0.00  0.00    -0.276 OA
ATOM      3  N   UNL A   1      43.779 -16.803 -40.685  0.00  0.00    -0.315 N 
ATOM      4  H   UNL A   1      44.029 -16.617 -41.619  0.00  0.00    +0.000 HD
ENDROOT
BRANCH   1   5
ATOM      5  C   UNL A   1      44.356 -19.108 -41.189  0.00  0.00    +0.024 C 
BRANCH   5   6
ATOM      6  C   UNL A   1      44.019 -20.531 -40.748  0.00  0.00    -0.045 C 
BRANCH   6   7
ATOM      7  C   UNL A   1      44.906 -21.050 -39.615  0.00  0.00    -0.051 C 
BRANCH   7   8
ATOM      8  C   UNL A   1      46.397 -20.775 -39.830  0.00  0.00    -0.037 C 
BRANCH   8   9
ATOM      9  C   UNL A   1      46.916 -19.660 -38.916  0.00  0.00    +0.012 C 
BRANCH   9  12
ATOM     10  C   UNL A   1      46.492 -19.490 -36.430  0.00  0.00    +0.246 C 
ATOM     11  O   UNL A   1      46.222 -20.147 -35.431  0.00  0.00    -0.270 OA
ATOM     12  N   UNL A   1      47.047 -20.099 -37.533  0.00  0.00    -0.311 N 
ATOM     13  H   UNL A   1      47.584 -20.909 -37.371  0.00  0.00    +0.000 HD
BRANCH  10  19
ATOM     14  C   UNL A   1      44.921 -17.516 -36.357  0.00  0.00    +0.044 A 
ATOM     15  C   UNL A   1      44.776 -16.120 -36.383  0.00  0.00    -0.040 A 
ATOM     16  C   UNL A   1      45.879 -15.277 -36.552  0.00  0.00    -0.060 A 
ATOM     17  C   UNL A   1      47.156 -15.814 -36.698  0.00  0.00    -0.061 A 
ATOM     18  C   UNL A   1      47.333 -17.194 -36.654  0.00  0.00    -0.048 A 
ATOM     19  C   UNL A   1      46.228 -18.036 -36.457  0.00  0.00    +0.058 A 
BRANCH  14  20
ATOM     20  N   UNL A   1      43.795 -18.358 -36.203  0.00  0.00    -0.314 N 
ATOM     21  H   UNL A   1      43.432 -18.719 -37.044  0.00  0.00    +0.000 HD
BRANCH  20  27
ATOM     22  C   UNL A   1      41.314 -21.877 -33.654  0.00  0.00    -0.039 C 
ATOM     23  C   UNL A   1      41.878 -20.489 -33.798  0.00  0.00    -0.046 A 
ATOM     24  C   UNL A   1      41.668 -19.571 -32.759  0.00  0.00    -0.058 A 
ATOM     25  C   UNL A   1      42.159 -18.273 -32.848  0.00  0.00    -0.060 A 
ATOM     26  C   UNL A   1      42.865 -17.874 -33.981  0.00  0.00    -0.040 A 
ATOM     27  C   UNL A   1      43.105 -18.766 -35.035  0.00  0.00    +0.035 A 
ATOM     28  C   UNL A   1      42.626 -20.097 -34.934  0.00  0.00    -0.026 A 
ATOM     29  C   UNL A   1      42.872 -21.073 -36.061  0.00  0.00    -0.038 C 
ENDBRANCH  20  27
ENDBRANCH  14  20
ENDBRANCH  10  19
ENDBRANCH   9  12
ENDBRANCH   8   9
ENDBRANCH   7   8
ENDBRANCH   6   7
ENDBRANCH   5   6
ENDBRANCH   1   5
BRANCH   3  30
ATOM     30  C   UNL A   1      43.451 -15.703 -39.800  0.00  0.00    +0.012 C 
BRANCH  30  31
ATOM     31  C   UNL A   1      42.548 -14.698 -40.514  0.00  0.00    -0.037 C 
BRANCH  31  32
ATOM     32  C   UNL A   1      41.094 -15.154 -40.651  0.00  0.00    -0.052 C 
BRANCH  32  33
ATOM     33  C   UNL A   1      40.663 -16.098 -39.524  0.00  0.00    -0.052 C 
BRANCH  33  34
ATOM     34  C   UNL A   1      39.161 -16.002 -39.257  0.00  0.00    -0.037 C 
BRANCH  34  35
ATOM     35  C   UNL A   1      38.818 -16.464 -37.840  0.00  0.00    +0.009 C 
BRANCH  35  36
ATOM     36  N   UNL A   1      39.979 -17.165 -37.274  0.00  0.00    -0.343 N 
ATOM     37  H   UNL A   1      40.891 -16.795 -37.260  0.00  0.00    +0.000 HD
BRANCH  36  38
ATOM     38  C   UNL A   1      39.630 -18.445 -36.749  0.00  0.00    +0.041 A 
ATOM     39  C   UNL A   1      39.003 -18.555 -35.491  0.00  0.00    -0.005 A 
ATOM     40  C   UNL A   1      38.640 -19.834 -35.059  0.00  0.00    +0.047 A 
ATOM     41  N   UNL A   1      38.810 -20.948 -35.811  0.00  0.00    -0.251 NA
ATOM     42  C   UNL A   1      39.391 -20.842 -37.012  0.00  0.00    +0.074 A 
ATOM     43  C   UNL A   1      39.563 -21.999 -37.757  0.00  0.00    -0.017 A 
ATOM     44  C   UNL A   1      40.176 -21.973 -39.007  0.00  0.00    +0.043 A 
ATOM     45 CL   UNL A   1      40.368 -23.431 -39.899  0.00  0.00    -0.083 Cl
ATOM     46  C   UNL A   1      40.639 -20.777 -39.534  0.00  0.00    -0.043 A 
ATOM     47  C   UNL A   1      40.473 -19.604 -38.800  0.00  0.00    -0.049 A 
ATOM     48  C   UNL A   1      39.833 -19.612 -37.537  0.00  0.00    +0.022 A 
ATOM     49  C   UNL A   1      37.968 -20.065 -33.730  0.00  0.00    -0.010 C 
ATOM     50  C   UNL A   1      38.184 -18.924 -32.743  0.00  0.00    -0.047 C 
ATOM     51  C   UNL A   1      37.860 -17.599 -33.414  0.00  0.00    -0.049 C 
ATOM     52  C   UNL A   1      38.798 -17.354 -34.597  0.00  0.00    -0.024 C 
ENDBRANCH  36  38
ENDBRANCH  35  36
ENDBRANCH  34  35
ENDBRANCH  33  34
ENDBRANCH  32  33
ENDBRANCH  31  32
ENDBRANCH  30  31
ENDBRANCH   3  30
TORSDOF 17
ENDMDL
MODEL 19
REMARK VINA RESULT:    -5.229      3.210      6.815
REMARK INTER + INTRA:         -17.541
REMARK INTER:                 -12.533
REMARK INTRA:                  -5.008
REMARK UNBOUND:                -7.116
REMARK  Name = cpd15.pdb
REMARK  19 active torsions:
REMARK  status: ('A' for Active; 'I' for Inactive)
REMARK    1  A    between atoms: C_1  and  C_2
REMARK    2  A    between atoms: C_6  and  N_7
REMARK    3  A    between atoms: N_7  and  C_8
REMARK    4  A    between atoms: C_13  and  C_14
REMARK    5  A    between atoms: N_16  and  C_17
REMARK    6  A    between atoms: C_17  and  C_18
REMARK    7  A    between atoms: C_18  and  C_19
REMARK    8  A    between atoms: C_19  and  C_20
REMARK    9  A    between atoms: C_20  and  C_21
REMARK   10  A    between atoms: C_21  and  C_22
REMARK   11  A    between atoms: N_24  and  C_25
REMARK   12  A    between atoms: C_25  and  C_26
REMARK   13  A    between atoms: C_26  and  C_27
REMARK   14  A    between atoms: C_27  and  C_28
REMARK   15  A    between atoms: C_28  and  C_29
REMARK   16  A    between atoms: C_29  and  C_30
REMARK   17  A    between atoms: C_30  and  N_31
REMARK   18  A    between atoms: N_31  and  C_32
REMARK   19  A    between atoms: C_47  and  C_48
REMARK                            x       y       z     vdW  Elec       q    Type
REMARK                         _______ _______ _______ _____ _____    ______ ____
ROOT
ATOM      1  C   UNL A   1      41.258 -16.583 -37.392  0.00  0.00    +0.213 C 
ATOM      2  O   UNL A   1      40.390 -15.753 -37.645  0.00  0.00    -0.276 OA
ATOM      3  N   UNL A   1      41.064 -17.944 -37.482  0.00  0.00    -0.315 N 
ATOM      4  H   UNL A   1      41.756 -18.557 -37.144  0.00  0.00    +0.000 HD
ENDROOT
BRANCH   1   5
ATOM      5  C   UNL A   1      42.663 -16.179 -37.001  0.00  0.00    +0.024 C 
BRANCH   5   6
ATOM      6  C   UNL A   1      43.520 -17.419 -36.752  0.00  0.00    -0.045 C 
BRANCH   6   7
ATOM      7  C   UNL A   1      44.999 -17.221 -37.088  0.00  0.00    -0.051 C 
BRANCH   7   8
ATOM      8  C   UNL A   1      45.643 -18.438 -37.757  0.00  0.00    -0.037 C 
BRANCH   8   9
ATOM      9  C   UNL A   1      44.752 -19.681 -37.675  0.00  0.00    +0.012 C 
BRANCH   9  12
ATOM     10  C   UNL A   1      43.909 -20.512 -39.909  0.00  0.00    +0.246 C 
ATOM     11  O   UNL A   1      42.906 -20.893 -40.503  0.00  0.00    -0.270 OA
ATOM     12  N   UNL A   1      43.795 -19.745 -38.772  0.00  0.00    -0.311 N 
ATOM     13  H   UNL A   1      42.988 -19.185 -38.692  0.00  0.00    +0.000 HD
BRANCH  10  19
ATOM     14  C   UNL A   1      46.003 -19.989 -41.218  0.00  0.00    +0.044 A 
ATOM     15  C   UNL A   1      47.272 -20.418 -41.637  0.00  0.00    -0.040 A 
ATOM     16  C   UNL A   1      47.754 -21.691 -41.313  0.00  0.00    -0.060 A 
ATOM     17  C   UNL A   1      46.974 -22.565 -40.559  0.00  0.00    -0.061 A 
ATOM     18  C   UNL A   1      45.721 -22.157 -40.110  0.00  0.00    -0.048 A 
ATOM     19  C   UNL A   1      45.252 -20.870 -40.413  0.00  0.00    +0.058 A 
BRANCH  14  20
ATOM     20  N   UNL A   1      45.521 -18.706 -41.567  0.00  0.00    -0.314 N 
ATOM     21  H   UNL A   1      44.846 -18.700 -42.283  0.00  0.00    +0.000 HD
BRANCH  20  27
ATOM     22  C   UNL A   1      44.088 -14.184 -39.972  0.00  0.00    -0.039 C 
ATOM     23  C   UNL A   1      45.145 -15.210 -40.286  0.00  0.00    -0.046 A 
ATOM     24  C   UNL A   1      46.491 -14.863 -40.102  0.00  0.00    -0.058 A 
ATOM     25  C   UNL A   1      47.504 -15.770 -40.388  0.00  0.00    -0.060 A 
ATOM     26  C   UNL A   1      47.185 -17.039 -40.866  0.00  0.00    -0.040 A 
ATOM     27  C   UNL A   1      45.851 -17.428 -41.052  0.00  0.00    +0.035 A 
ATOM     28  C   UNL A   1      44.816 -16.512 -40.737  0.00  0.00    -0.026 A 
ATOM     29  C   UNL A   1      43.372 -16.910 -40.933  0.00  0.00    -0.038 C 
ENDBRANCH  20  27
ENDBRANCH  14  20
ENDBRANCH  10  19
ENDBRANCH   9  12
ENDBRANCH   8   9
ENDBRANCH   7   8
ENDBRANCH   6   7
ENDBRANCH   5   6
ENDBRANCH   1   5
BRANCH   3  30
ATOM     30  C   UNL A   1      39.853 -18.485 -38.068  0.00  0.00    +0.012 C 
BRANCH  30  31
ATOM     31  C   UNL A   1      39.511 -19.831 -37.431  0.00  0.00    -0.037 C 
BRANCH  31  32
ATOM     32  C   UNL A   1      39.874 -21.040 -38.295  0.00  0.00    -0.052 C 
BRANCH  32  33
ATOM     33  C   UNL A   1      41.022 -21.864 -37.705  0.00  0.00    -0.052 C 
BRANCH  33  34
ATOM     34  C   UNL A   1      41.012 -21.826 -36.177  0.00  0.00    -0.037 C 
BRANCH  34  35
ATOM     35  C   UNL A   1      42.210 -21.046 -35.632  0.00  0.00    +0.009 C 
BRANCH  35  36
ATOM     36  N   UNL A   1      42.175 -21.085 -34.163  0.00  0.00    -0.343 N 
ATOM     37  H   UNL A   1      42.279 -21.908 -33.632  0.00  0.00    +0.000 HD
BRANCH  36  38
ATOM     38  C   UNL A   1      41.972 -19.792 -33.597  0.00  0.00    +0.041 A 
ATOM     39  C   UNL A   1      43.055 -18.905 -33.432  0.00  0.00    -0.005 A 
ATOM     40  C   UNL A   1      42.778 -17.634 -32.920  0.00  0.00    +0.047 A 
ATOM     41  N   UNL A   1      41.525 -17.206 -32.634  0.00  0.00    -0.251 NA
ATOM     42  C   UNL A   1      40.495 -18.042 -32.804  0.00  0.00    +0.074 A 
ATOM     43  C   UNL A   1      39.224 -17.582 -32.493  0.00  0.00    -0.017 A 
ATOM     44  C   UNL A   1      38.104 -18.400 -32.625  0.00  0.00    +0.043 A 
ATOM     45 CL   UNL A   1      36.545 -17.790 -32.230  0.00  0.00    -0.083 Cl
ATOM     46  C   UNL A   1      38.240 -19.707 -33.068  0.00  0.00    -0.043 A 
ATOM     47  C   UNL A   1      39.510 -20.184 -33.387  0.00  0.00    -0.049 A 
ATOM     48  C   UNL A   1      40.655 -19.359 -33.277  0.00  0.00    +0.022 A 
ATOM     49  C   UNL A   1      43.862 -16.610 -32.702  0.00  0.00    -0.010 C 
ATOM     50  C   UNL A   1      45.253 -17.222 -32.599  0.00  0.00    -0.047 C 
ATOM     51  C   UNL A   1      45.481 -18.172 -33.764  0.00  0.00    -0.049 C 
ATOM     52  C   UNL A   1      44.478 -19.325 -33.719  0.00  0.00    -0.024 C 
ENDBRANCH  36  38
ENDBRANCH  35  36
ENDBRANCH  34  35
ENDBRANCH  33  34
ENDBRANCH  32  33
ENDBRANCH  31  32
ENDBRANCH  30  31
ENDBRANCH   3  30
TORSDOF 17
ENDMDL
MODEL 20
REMARK VINA RESULT:    -5.219      2.358      4.020
REMARK INTER + INTRA:         -17.521
REMARK INTER:                 -11.304
REMARK INTRA:                  -6.217
REMARK UNBOUND:                -7.116
REMARK  Name = cpd15.pdb
REMARK  19 active torsions:
REMARK  status: ('A' for Active; 'I' for Inactive)
REMARK    1  A    between atoms: C_1  and  C_2
REMARK    2  A    between atoms: C_6  and  N_7
REMARK    3  A    between atoms: N_7  and  C_8
REMARK    4  A    between atoms: C_13  and  C_14
REMARK    5  A    between atoms: N_16  and  C_17
REMARK    6  A    between atoms: C_17  and  C_18
REMARK    7  A    between atoms: C_18  and  C_19
REMARK    8  A    between atoms: C_19  and  C_20
REMARK    9  A    between atoms: C_20  and  C_21
REMARK   10  A    between atoms: C_21  and  C_22
REMARK   11  A    between atoms: N_24  and  C_25
REMARK   12  A    between atoms: C_25  and  C_26
REMARK   13  A    between atoms: C_26  and  C_27
REMARK   14  A    between atoms: C_27  and  C_28
REMARK   15  A    between atoms: C_28  and  C_29
REMARK   16  A    between atoms: C_29  and  C_30
REMARK   17  A    between atoms: C_30  and  N_31
REMARK   18  A    between atoms: N_31  and  C_32
REMARK   19  A    between atoms: C_47  and  C_48
REMARK                            x       y       z     vdW  Elec       q    Type
REMARK                         _______ _______ _______ _____ _____    ______ ____
ROOT
ATOM      1  C   UNL A   1      39.721 -14.703 -36.558  0.00  0.00    +0.213 C 
ATOM      2  O   UNL A   1      39.187 -15.551 -37.267  0.00  0.00    -0.276 OA
ATOM      3  N   UNL A   1      40.349 -13.579 -37.050  0.00  0.00    -0.315 N 
ATOM      4  H   UNL A   1      40.866 -13.005 -36.441  0.00  0.00    +0.000 HD
ENDROOT
BRANCH   1   5
ATOM      5  C   UNL A   1      39.694 -14.788 -35.047  0.00  0.00    +0.024 C 
BRANCH   5   6
ATOM      6  C   UNL A   1      39.070 -16.110 -34.603  0.00  0.00    -0.045 C 
BRANCH   6   7
ATOM      7  C   UNL A   1      39.758 -16.737 -33.390  0.00  0.00    -0.051 C 
BRANCH   7   8
ATOM      8  C   UNL A   1      40.660 -17.923 -33.742  0.00  0.00    -0.037 C 
BRANCH   8   9
ATOM      9  C   UNL A   1      40.055 -18.802 -34.842  0.00  0.00    +0.012 C 
BRANCH   9  12
ATOM     10  C   UNL A   1      40.779 -21.164 -35.373  0.00  0.00    +0.246 C 
ATOM     11  O   UNL A   1      41.302 -22.164 -34.894  0.00  0.00    -0.270 OA
ATOM     12  N   UNL A   1      40.200 -20.223 -34.553  0.00  0.00    -0.311 N 
ATOM     13  H   UNL A   1      39.850 -20.539 -33.689  0.00  0.00    +0.000 HD
BRANCH  10  19
ATOM     14  C   UNL A   1      41.926 -20.612 -37.553  0.00  0.00    +0.044 A 
ATOM     15  C   UNL A   1      41.808 -20.454 -38.943  0.00  0.00    -0.040 A 
ATOM     16  C   UNL A   1      40.575 -20.590 -39.589  0.00  0.00    -0.060 A 
ATOM     17  C   UNL A   1      39.429 -20.890 -38.856  0.00  0.00    -0.061 A 
ATOM     18  C   UNL A   1      39.520 -21.074 -37.479  0.00  0.00    -0.048 A 
ATOM     19  C   UNL A   1      40.763 -20.964 -36.838  0.00  0.00    +0.058 A 
BRANCH  14  20
ATOM     20  N   UNL A   1      43.176 -20.455 -36.910  0.00  0.00    -0.314 N 
ATOM     21  H   UNL A   1      43.869 -21.095 -37.192  0.00  0.00    +0.000 HD
BRANCH  20  27
ATOM     22  C   UNL A   1      43.857 -15.717 -35.449  0.00  0.00    -0.039 C 
ATOM     23  C   UNL A   1      43.937 -17.203 -35.221  0.00  0.00    -0.046 A 
ATOM     24  C   UNL A   1      44.483 -17.667 -34.016  0.00  0.00    -0.058 A 
ATOM     25  C   UNL A   1      44.589 -19.030 -33.761  0.00  0.00    -0.060 A 
ATOM     26  C   UNL A   1      44.154 -19.949 -34.713  0.00  0.00    -0.040 A 
ATOM     27  C   UNL A   1      43.592 -19.525 -35.925  0.00  0.00    +0.035 A 
ATOM     28  C   UNL A   1      43.460 -18.136 -36.175  0.00  0.00    -0.026 A 
ATOM     29  C   UNL A   1      42.860 -17.658 -37.476  0.00  0.00    -0.038 C 
ENDBRANCH  20  27
ENDBRANCH  14  20
ENDBRANCH  10  19
ENDBRANCH   9  12
ENDBRANCH   8   9
ENDBRANCH   7   8
ENDBRANCH   6   7
ENDBRANCH   5   6
ENDBRANCH   1   5
BRANCH   3  30
ATOM     30  C   UNL A   1      40.255 -13.231 -38.454  0.00  0.00    +0.012 C 
BRANCH  30  31
ATOM     31  C   UNL A   1      41.563 -13.563 -39.171  0.00  0.00    -0.037 C 
BRANCH  31  32
ATOM     32  C   UNL A   1      41.396 -14.491 -40.376  0.00  0.00    -0.052 C 
BRANCH  32  33
ATOM     33  C   UNL A   1      42.463 -14.259 -41.451  0.00  0.00    -0.052 C 
BRANCH  33  34
ATOM     34  C   UNL A   1      43.317 -15.507 -41.672  0.00  0.00    -0.037 C 
BRANCH  34  35
ATOM     35  C   UNL A   1      44.084 -15.887 -40.404  0.00  0.00    +0.009 C 
BRANCH  35  36
ATOM     36  N   UNL A   1      45.348 -16.532 -40.788  0.00  0.00    -0.343 N 
ATOM     37  H   UNL A   1      45.992 -16.144 -41.422  0.00  0.00    +0.000 HD
BRANCH  36  38
ATOM     38  C   UNL A   1      45.530 -17.786 -40.133  0.00  0.00    +0.041 A 
ATOM     39  C   UNL A   1      45.178 -18.989 -40.778  0.00  0.00    -0.005 A 
ATOM     40  C   UNL A   1      45.431 -20.185 -40.100  0.00  0.00    +0.047 A 
ATOM     41  N   UNL A   1      46.043 -20.239 -38.892  0.00  0.00    -0.251 NA
ATOM     42  C   UNL A   1      46.391 -19.098 -38.286  0.00  0.00    +0.074 A 
ATOM     43  C   UNL A   1      47.006 -19.182 -37.046  0.00  0.00    -0.017 A 
ATOM     44  C   UNL A   1      47.379 -18.039 -36.344  0.00  0.00    +0.043 A 
ATOM     45 CL   UNL A   1      48.142 -18.186 -34.808  0.00  0.00    -0.083 Cl
ATOM     46  C   UNL A   1      47.135 -16.780 -36.873  0.00  0.00    -0.043 A 
ATOM     47  C   UNL A   1      46.520 -16.679 -38.119  0.00  0.00    -0.049 A 
ATOM     48  C   UNL A   1      46.152 -17.832 -38.853  0.00  0.00    +0.022 A 
ATOM     49  C   UNL A   1      45.091 -21.526 -40.698  0.00  0.00    -0.010 C 
ATOM     50  C   UNL A   1      44.040 -21.443 -41.798  0.00  0.00    -0.047 C 
ATOM     51  C   UNL A   1      44.431 -20.366 -42.798  0.00  0.00    -0.049 C 
ATOM     52  C   UNL A   1      44.480 -18.997 -42.118  0.00  0.00    -0.024 C 
ENDBRANCH  36  38
ENDBRANCH  35  36
ENDBRANCH  34  35
ENDBRANCH  33  34
ENDBRANCH  32  33
ENDBRANCH  31  32
ENDBRANCH  30  31
ENDBRANCH   3  30
TORSDOF 17
ENDMDL
