REMARK  Name = cpd102.pdb
REMARK  15 active torsions:
REMARK  status: ('A' for Active; 'I' for Inactive)
REMARK    1  A    between atoms: C_1  and  O_2
REMARK    2  A    between atoms: O_2  and  C_3
REMARK    3  A    between atoms: C_5  and  C_6
REMARK    4  A    between atoms: N_8  and  C_9
REMARK    5  A    between atoms: C_9  and  C_10
REMARK    6  A    between atoms: C_10  and  C_11
REMARK    7  A    between atoms: C_11  and  C_12
REMARK    8  A    between atoms: C_12  and  C_13
REMARK    9  A    between atoms: C_13  and  C_14
REMARK   10  A    between atoms: N_16  and  N_17
REMARK   11  A    between atoms: N_17  and  C_18
REMARK   12  A    between atoms: C_33  and  O_34
REMARK   13  A    between atoms: O_34  and  C_35
REMARK   14  A    between atoms: C_36  and  O_37
REMARK   15  A    between atoms: O_37  and  C_38
REMARK                            x       y       z     vdW  Elec       q    Type
REMARK                         _______ _______ _______ _____ _____    ______ ____
ROOT
ATOM      1  C   UNL A   1      -7.809  -2.754  -2.016  0.00  0.00    +0.025 C 
ENDROOT
BRANCH   1   2
ATOM      2  C   UNL A   1      -8.612  -2.541  -0.748  0.00  0.00    +0.229 C 
ATOM      3  O   UNL A   1      -8.513  -1.550  -0.029  0.00  0.00    -0.274 OA
ATOM      4  N   UNL A   1      -9.529  -3.551  -0.509  0.00  0.00    -0.236 N 
ATOM      5  H   UNL A   1      -9.731  -4.237  -1.185  0.00  0.00    +0.000 HD
BRANCH   4   6
ATOM      6  N   UNL A   1     -10.161  -3.545   0.759  0.00  0.00    -0.264 N 
ATOM      7  H   UNL A   1      -9.712  -3.356   1.615  0.00  0.00    +0.000 HD
BRANCH   6   8
ATOM      8  C   UNL A   1     -11.549  -3.855   0.609  0.00  0.00    +0.058 A 
ATOM      9  C   UNL A   1     -11.945  -5.204   0.724  0.00  0.00    -0.003 A 
ATOM     10  C   UNL A   1     -13.282  -5.510   0.483  0.00  0.00    +0.047 A 
ATOM     11  N   UNL A   1     -14.207  -4.573   0.169  0.00  0.00    -0.251 NA
ATOM     12  C   UNL A   1     -13.829  -3.291   0.057  0.00  0.00    +0.073 A 
ATOM     13  C   UNL A   1     -14.801  -2.358  -0.280  0.00  0.00    -0.036 A 
ATOM     14  C   UNL A   1     -14.505  -1.003  -0.435  0.00  0.00    -0.060 A 
ATOM     15  C   UNL A   1     -13.203  -0.563  -0.253  0.00  0.00    -0.061 A 
ATOM     16  C   UNL A   1     -12.210  -1.481   0.088  0.00  0.00    -0.051 A 
ATOM     17  C   UNL A   1     -12.503  -2.860   0.256  0.00  0.00    +0.023 A 
ATOM     18  C   UNL A   1     -13.810  -6.915   0.618  0.00  0.00    -0.010 C 
ATOM     19  C   UNL A   1     -12.718  -7.978   0.553  0.00  0.00    -0.047 C 
ATOM     20  C   UNL A   1     -11.577  -7.605   1.488  0.00  0.00    -0.049 C 
ATOM     21  C   UNL A   1     -10.943  -6.284   1.055  0.00  0.00    -0.024 C 
ENDBRANCH   6   8
ENDBRANCH   4   6
ENDBRANCH   1   2
BRANCH   1  22
ATOM     22  C   UNL A   1      -6.453  -2.051  -1.982  0.00  0.00    -0.045 C 
BRANCH  22  23
ATOM     23  C   UNL A   1      -5.478  -2.732  -1.016  0.00  0.00    -0.051 C 
BRANCH  23  24
ATOM     24  C   UNL A   1      -4.116  -2.037  -1.018  0.00  0.00    -0.037 C 
BRANCH  24  25
ATOM     25  C   UNL A   1      -3.138  -2.725  -0.067  0.00  0.00    +0.012 C 
BRANCH  25  28
ATOM     26  C   UNL A   1      -1.600  -0.944   0.657  0.00  0.00    +0.244 C 
ATOM     27  O   UNL A   1      -2.409  -0.447   1.431  0.00  0.00    -0.270 OA
ATOM     28  N   UNL A   1      -1.840  -2.081  -0.087  0.00  0.00    -0.311 N 
ATOM     29  H   UNL A   1      -1.119  -2.460  -0.640  0.00  0.00    +0.000 HD
BRANCH  26  32
ATOM     30  C   UNL A   1       2.082  -0.374  -0.038  0.00  0.00    +0.166 A 
ATOM     31  C   UNL A   1       0.871  -1.029   0.186  0.00  0.00    -0.004 A 
ATOM     32  C   UNL A   1      -0.290  -0.282   0.430  0.00  0.00    +0.044 A 
ATOM     33  C   UNL A   1      -0.247   1.118   0.477  0.00  0.00    -0.004 A 
ATOM     34  C   UNL A   1       0.952   1.789   0.247  0.00  0.00    +0.166 A 
ATOM     35  C   UNL A   1       2.113   1.034   0.002  0.00  0.00    +0.204 A 
BRANCH  30  37
ATOM     36  C   UNL A   1       3.285  -2.418  -0.335  0.00  0.00    +0.079 C 
ATOM     37  O   UNL A   1       3.277  -0.998  -0.288  0.00  0.00    -0.491 OA
ENDBRANCH  30  37
BRANCH  34  38
ATOM     38  O   UNL A   1       1.098   3.152   0.242  0.00  0.00    -0.491 OA
ATOM     39  C   UNL A   1      -0.070   3.936   0.447  0.00  0.00    +0.079 C 
ENDBRANCH  34  38
BRANCH  35  40
ATOM     40  O   UNL A   1       3.297   1.681  -0.279  0.00  0.00    -0.488 OA
ATOM     41  C   UNL A   1       3.992   1.969   0.933  0.00  0.00    +0.079 C 
ENDBRANCH  35  40
ENDBRANCH  26  32
ENDBRANCH  25  28
ENDBRANCH  24  25
ENDBRANCH  23  24
ENDBRANCH  22  23
ENDBRANCH   1  22
TORSDOF 12
