MODEL 1
REMARK VINA RESULT:    -8.067      0.000      0.000
REMARK INTER + INTRA:         -10.835
REMARK INTER:                 -10.189
REMARK INTRA:                  -0.645
REMARK UNBOUND:                -0.645
REMARK  Name = cpd313.pdb
REMARK  6 active torsions:
REMARK  status: ('A' for Active; 'I' for Inactive)
REMARK    1  A    between atoms: C_1  and  O_2
REMARK    2  A    between atoms: O_2  and  C_3
REMARK    3  A    between atoms: C_12  and  O_13
REMARK    4  A    between atoms: C_20  and  C_22
REMARK    5  A    between atoms: C_22  and  C_23
REMARK    6  A    between atoms: C_23  and  N_24
REMARK                            x       y       z     vdW  Elec       q    Type
REMARK                         _______ _______ _______ _____ _____    ______ ____
ROOT
ATOM      1  C   UNL     1      39.311 -36.102 -31.469  0.00  0.00    +0.162 A 
ATOM      2  C   UNL     1      39.458 -34.750 -31.777  0.00  0.00    -0.016 A 
ATOM      3  C   UNL     1      38.367 -33.868 -31.668  0.00  0.00    -0.053 A 
ATOM      4  C   UNL     1      37.092 -34.308 -31.264  0.00  0.00    -0.022 A 
ATOM      5  C   UNL     1      36.954 -35.666 -30.983  0.00  0.00    +0.016 A 
ATOM      6  C   UNL     1      38.048 -36.528 -31.080  0.00  0.00    +0.167 A 
ATOM      7  O   UNL     1      37.763 -37.823 -30.711  0.00  0.00    -0.484 OA
ATOM      8  C   UNL     1      36.318 -37.870 -30.728  0.00  0.00    +0.116 C 
ATOM      9  C   UNL     1      35.830 -38.900 -29.715  0.00  0.00    +0.015 C 
ATOM     10  C   UNL     1      36.108 -38.466 -28.280  0.00  0.00    +0.077 C 
ATOM     11  C   UNL     1      35.703 -37.051 -28.025  0.00  0.00    -0.059 C 
ATOM     12  C   UNL     1      35.540 -36.141 -28.998  0.00  0.00    -0.071 C 
ATOM     13  C   UNL     1      35.764 -36.429 -30.479  0.00  0.00    +0.056 C 
ATOM     14  C   UNL     1      34.457 -36.228 -31.282  0.00  0.00    -0.020 C 
ATOM     15  C   UNL     1      34.267 -34.849 -31.914  0.00  0.00    +0.016 C 
ATOM     16  N   UNL     1      34.627 -33.759 -31.019  0.00  0.00    -0.297 N 
ATOM     17  C   UNL     1      33.719 -33.044 -30.240  0.00  0.00    +0.217 C 
ATOM     18  O   UNL     1      34.055 -32.042 -29.609  0.00  0.00    -0.276 OA
ATOM     19  C   UNL     1      36.006 -33.272 -31.071  0.00  0.00    +0.040 C 
ENDROOT
BRANCH   1  21
ATOM     20  C   UNL     1      41.579 -36.626 -31.946  0.00  0.00    +0.079 C 
ATOM     21  O   UNL     1      40.292 -37.050 -31.518  0.00  0.00    -0.491 OA
ENDBRANCH   1  21
BRANCH  10  22
ATOM     22  O   UNL     1      35.355 -39.289 -27.397  0.00  0.00    -0.388 OA
ATOM     23  H   UNL     1      34.593 -39.659 -27.871  0.00  0.00    +0.000 HD
ENDBRANCH  10  22
BRANCH  17  24
ATOM     24  C   UNL     1      32.292 -33.566 -30.188  0.00  0.00    +0.037 C 
BRANCH  24  25
ATOM     25  C   UNL     1      31.530 -32.994 -28.990  0.00  0.00    +0.007 C 
BRANCH  25  26
ATOM     26  N   UNL     1      31.137 -31.594 -29.206  0.00  0.00    -0.302 N 
ATOM     27  C   UNL     1      30.426 -31.377 -30.470  0.00  0.00    -0.001 C 
ATOM     28  C   UNL     1      29.748 -30.028 -30.272  0.00  0.00    -0.039 C 
ATOM     29  C   UNL     1      29.663 -29.840 -28.762  0.00  0.00    -0.039 C 
ATOM     30  C   UNL     1      30.203 -31.133 -28.175  0.00  0.00    -0.001 C 
ATOM     31  H   UNL     1      32.021 -31.086 -29.194  0.00  0.00    +0.000 HD
ENDBRANCH  25  26
ENDBRANCH  24  25
ENDBRANCH  17  24
TORSDOF 5
ENDMDL
MODEL 2
REMARK VINA RESULT:    -7.703      1.454      2.367
REMARK INTER + INTRA:         -10.375
REMARK INTER:                  -9.217
REMARK INTRA:                  -1.159
REMARK UNBOUND:                -0.645
REMARK  Name = cpd313.pdb
REMARK  6 active torsions:
REMARK  status: ('A' for Active; 'I' for Inactive)
REMARK    1  A    between atoms: C_1  and  O_2
REMARK    2  A    between atoms: O_2  and  C_3
REMARK    3  A    between atoms: C_12  and  O_13
REMARK    4  A    between atoms: C_20  and  C_22
REMARK    5  A    between atoms: C_22  and  C_23
REMARK    6  A    between atoms: C_23  and  N_24
REMARK                            x       y       z     vdW  Elec       q    Type
REMARK                         _______ _______ _______ _____ _____    ______ ____
ROOT
ATOM      1  C   UNL     1      39.086 -36.048 -31.311  0.00  0.00    +0.162 A 
ATOM      2  C   UNL     1      39.204 -34.709 -31.681  0.00  0.00    -0.016 A 
ATOM      3  C   UNL     1      38.088 -33.853 -31.638  0.00  0.00    -0.053 A 
ATOM      4  C   UNL     1      36.817 -34.307 -31.239  0.00  0.00    -0.022 A 
ATOM      5  C   UNL     1      36.708 -35.653 -30.895  0.00  0.00    +0.016 A 
ATOM      6  C   UNL     1      37.826 -36.489 -30.927  0.00  0.00    +0.167 A 
ATOM      7  O   UNL     1      37.567 -37.772 -30.502  0.00  0.00    -0.484 OA
ATOM      8  C   UNL     1      36.124 -37.859 -30.546  0.00  0.00    +0.116 C 
ATOM      9  C   UNL     1      35.642 -38.852 -29.494  0.00  0.00    +0.015 C 
ATOM     10  C   UNL     1      35.878 -38.342 -28.076  0.00  0.00    +0.077 C 
ATOM     11  C   UNL     1      35.431 -36.927 -27.899  0.00  0.00    -0.059 C 
ATOM     12  C   UNL     1      35.265 -36.070 -28.918  0.00  0.00    -0.071 C 
ATOM     13  C   UNL     1      35.527 -36.423 -30.378  0.00  0.00    +0.056 C 
ATOM     14  C   UNL     1      34.234 -36.297 -31.217  0.00  0.00    -0.020 C 
ATOM     15  C   UNL     1      34.021 -34.955 -31.919  0.00  0.00    +0.016 C 
ATOM     16  N   UNL     1      34.333 -33.814 -31.071  0.00  0.00    -0.297 N 
ATOM     17  C   UNL     1      33.390 -33.088 -30.346  0.00  0.00    +0.217 C 
ATOM     18  O   UNL     1      33.686 -32.047 -29.758  0.00  0.00    -0.276 OA
ATOM     19  C   UNL     1      35.699 -33.293 -31.119  0.00  0.00    +0.040 C 
ENDROOT
BRANCH   1  21
ATOM     20  C   UNL     1      41.420 -36.479 -31.408  0.00  0.00    +0.079 C 
ATOM     21  O   UNL     1      40.092 -36.971 -31.295  0.00  0.00    -0.491 OA
ENDBRANCH   1  21
BRANCH  10  22
ATOM     22  O   UNL     1      35.127 -39.142 -27.170  0.00  0.00    -0.388 OA
ATOM     23  H   UNL     1      34.181 -38.961 -27.286  0.00  0.00    +0.000 HD
ENDBRANCH  10  22
BRANCH  17  24
ATOM     24  C   UNL     1      31.976 -33.645 -30.298  0.00  0.00    +0.037 C 
BRANCH  24  25
ATOM     25  C   UNL     1      31.335 -33.427 -28.924  0.00  0.00    +0.007 C 
BRANCH  25  26
ATOM     26  N   UNL     1      31.117 -34.696 -28.214  0.00  0.00    -0.302 N 
ATOM     27  C   UNL     1      31.369 -35.879 -29.043  0.00  0.00    -0.001 C 
ATOM     28  C   UNL     1      31.525 -37.001 -28.025  0.00  0.00    -0.039 C 
ATOM     29  C   UNL     1      31.896 -36.309 -26.718  0.00  0.00    -0.039 C 
ATOM     30  C   UNL     1      32.033 -34.840 -27.079  0.00  0.00    -0.001 C 
ATOM     31  H   UNL     1      30.138 -34.652 -27.930  0.00  0.00    +0.000 HD
ENDBRANCH  25  26
ENDBRANCH  24  25
ENDBRANCH  17  24
TORSDOF 5
ENDMDL
MODEL 3
REMARK VINA RESULT:    -7.558     15.838     18.221
REMARK INTER + INTRA:         -10.192
REMARK INTER:                  -9.143
REMARK INTRA:                  -1.049
REMARK UNBOUND:                -0.645
REMARK  Name = cpd313.pdb
REMARK  6 active torsions:
REMARK  status: ('A' for Active; 'I' for Inactive)
REMARK    1  A    between atoms: C_1  and  O_2
REMARK    2  A    between atoms: O_2  and  C_3
REMARK    3  A    between atoms: C_12  and  O_13
REMARK    4  A    between atoms: C_20  and  C_22
REMARK    5  A    between atoms: C_22  and  C_23
REMARK    6  A    between atoms: C_23  and  N_24
REMARK                            x       y       z     vdW  Elec       q    Type
REMARK                         _______ _______ _______ _____ _____    ______ ____
ROOT
ATOM      1  C   UNL     1      45.443 -21.569 -40.748  0.00  0.00    +0.162 A 
ATOM      2  C   UNL     1      46.676 -21.541 -40.096  0.00  0.00    -0.016 A 
ATOM      3  C   UNL     1      46.776 -21.081 -38.770  0.00  0.00    -0.053 A 
ATOM      4  C   UNL     1      45.653 -20.619 -38.057  0.00  0.00    -0.022 A 
ATOM      5  C   UNL     1      44.432 -20.629 -38.728  0.00  0.00    +0.016 A 
ATOM      6  C   UNL     1      44.344 -21.103 -40.039  0.00  0.00    +0.167 A 
ATOM      7  O   UNL     1      43.062 -21.104 -40.539  0.00  0.00    -0.484 OA
ATOM      8  C   UNL     1      42.341 -20.243 -39.627  0.00  0.00    +0.116 C 
ATOM      9  C   UNL     1      40.879 -20.671 -39.569  0.00  0.00    +0.015 C 
ATOM     10  C   UNL     1      40.710 -22.035 -38.906  0.00  0.00    +0.077 C 
ATOM     11  C   UNL     1      41.478 -22.145 -37.630  0.00  0.00    -0.059 C 
ATOM     12  C   UNL     1      42.520 -21.357 -37.322  0.00  0.00    -0.071 C 
ATOM     13  C   UNL     1      43.061 -20.265 -38.238  0.00  0.00    +0.056 C 
ATOM     14  C   UNL     1      42.942 -18.875 -37.570  0.00  0.00    -0.020 C 
ATOM     15  C   UNL     1      44.177 -18.393 -36.807  0.00  0.00    +0.016 C 
ATOM     16  N   UNL     1      44.783 -19.434 -35.989  0.00  0.00    -0.297 N 
ATOM     17  C   UNL     1      44.547 -19.603 -34.626  0.00  0.00    +0.217 C 
ATOM     18  O   UNL     1      45.191 -20.408 -33.953  0.00  0.00    -0.276 OA
ATOM     19  C   UNL     1      45.835 -20.244 -36.602  0.00  0.00    +0.040 C 
ENDROOT
BRANCH   1  21
ATOM     20  C   UNL     1      46.210 -22.833 -42.607  0.00  0.00    +0.079 C 
ATOM     21  O   UNL     1      45.215 -22.006 -42.020  0.00  0.00    -0.491 OA
ENDBRANCH   1  21
BRANCH  10  22
ATOM     22  O   UNL     1      39.335 -22.224 -38.592  0.00  0.00    -0.388 OA
ATOM     23  H   UNL     1      39.258 -22.694 -37.747  0.00  0.00    +0.000 HD
ENDBRANCH  10  22
BRANCH  17  24
ATOM     24  C   UNL     1      43.445 -18.760 -34.004  0.00  0.00    +0.037 C 
BRANCH  24  25
ATOM     25  C   UNL     1      42.637 -19.562 -32.980  0.00  0.00    +0.007 C 
BRANCH  25  26
ATOM     26  N   UNL     1      41.910 -20.677 -33.606  0.00  0.00    -0.302 N 
ATOM     27  C   UNL     1      41.444 -21.681 -32.644  0.00  0.00    -0.001 C 
ATOM     28  C   UNL     1      40.381 -22.449 -33.418  0.00  0.00    -0.039 C 
ATOM     29  C   UNL     1      39.936 -21.508 -34.531  0.00  0.00    -0.039 C 
ATOM     30  C   UNL     1      40.692 -20.215 -34.276  0.00  0.00    -0.001 C 
ATOM     31  H   UNL     1      42.589 -21.080 -34.252  0.00  0.00    +0.000 HD
ENDBRANCH  25  26
ENDBRANCH  24  25
ENDBRANCH  17  24
TORSDOF 5
ENDMDL
MODEL 4
REMARK VINA RESULT:    -7.185     17.439     19.857
REMARK INTER + INTRA:          -9.721
REMARK INTER:                  -9.106
REMARK INTRA:                  -0.614
REMARK UNBOUND:                -0.645
REMARK  Name = cpd313.pdb
REMARK  6 active torsions:
REMARK  status: ('A' for Active; 'I' for Inactive)
REMARK    1  A    between atoms: C_1  and  O_2
REMARK    2  A    between atoms: O_2  and  C_3
REMARK    3  A    between atoms: C_12  and  O_13
REMARK    4  A    between atoms: C_20  and  C_22
REMARK    5  A    between atoms: C_22  and  C_23
REMARK    6  A    between atoms: C_23  and  N_24
REMARK                            x       y       z     vdW  Elec       q    Type
REMARK                         _______ _______ _______ _____ _____    ______ ____
ROOT
ATOM      1  C   UNL     1      47.055 -17.159 -40.560  0.00  0.00    +0.162 A 
ATOM      2  C   UNL     1      46.815 -16.379 -39.430  0.00  0.00    -0.016 A 
ATOM      3  C   UNL     1      45.941 -16.827 -38.422  0.00  0.00    -0.053 A 
ATOM      4  C   UNL     1      45.268 -18.060 -38.516  0.00  0.00    -0.022 A 
ATOM      5  C   UNL     1      45.498 -18.818 -39.662  0.00  0.00    +0.016 A 
ATOM      6  C   UNL     1      46.380 -18.369 -40.647  0.00  0.00    +0.167 A 
ATOM      7  O   UNL     1      46.545 -19.258 -41.685  0.00  0.00    -0.484 OA
ATOM      8  C   UNL     1      45.430 -20.166 -41.535  0.00  0.00    +0.116 C 
ATOM      9  C   UNL     1      45.813 -21.539 -42.077  0.00  0.00    +0.015 C 
ATOM     10  C   UNL     1      46.880 -22.213 -41.219  0.00  0.00    +0.077 C 
ATOM     11  C   UNL     1      46.562 -22.148 -39.761  0.00  0.00    -0.059 C 
ATOM     12  C   UNL     1      45.717 -21.252 -39.227  0.00  0.00    -0.071 C 
ATOM     13  C   UNL     1      44.991 -20.181 -40.033  0.00  0.00    +0.056 C 
ATOM     14  C   UNL     1      43.458 -20.367 -39.941  0.00  0.00    -0.020 C 
ATOM     15  C   UNL     1      42.752 -19.562 -38.850  0.00  0.00    +0.016 C 
ATOM     16  N   UNL     1      43.463 -19.579 -37.580  0.00  0.00    -0.297 N 
ATOM     17  C   UNL     1      43.172 -20.439 -36.524  0.00  0.00    +0.217 C 
ATOM     18  O   UNL     1      43.709 -20.318 -35.422  0.00  0.00    -0.276 OA
ATOM     19  C   UNL     1      44.432 -18.510 -37.337  0.00  0.00    +0.040 C 
ENDROOT
BRANCH   1  21
ATOM     20  C   UNL     1      48.242 -15.475 -41.744  0.00  0.00    +0.079 C 
ATOM     21  O   UNL     1      47.889 -16.843 -41.593  0.00  0.00    -0.491 OA
ENDBRANCH   1  21
BRANCH  10  22
ATOM     22  O   UNL     1      46.953 -23.589 -41.577  0.00  0.00    -0.388 OA
ATOM     23  H   UNL     1      46.457 -24.118 -40.933  0.00  0.00    +0.000 HD
ENDBRANCH  10  22
BRANCH  17  24
ATOM     24  C   UNL     1      42.169 -21.551 -36.793  0.00  0.00    +0.037 C 
BRANCH  24  25
ATOM     25  C   UNL     1      40.949 -21.438 -35.876  0.00  0.00    +0.007 C 
BRANCH  25  26
ATOM     26  N   UNL     1      41.213 -21.994 -34.540  0.00  0.00    -0.302 N 
ATOM     27  C   UNL     1      40.965 -21.041 -33.453  0.00  0.00    -0.001 C 
ATOM     28  C   UNL     1      40.860 -21.926 -32.220  0.00  0.00    -0.039 C 
ATOM     29  C   UNL     1      40.507 -23.312 -32.748  0.00  0.00    -0.039 C 
ATOM     30  C   UNL     1      40.330 -23.126 -34.246  0.00  0.00    -0.001 C 
ATOM     31  H   UNL     1      42.197 -22.258 -34.575  0.00  0.00    +0.000 HD
ENDBRANCH  25  26
ENDBRANCH  24  25
ENDBRANCH  17  24
TORSDOF 5
ENDMDL
MODEL 5
REMARK VINA RESULT:    -7.165      2.681      7.997
REMARK INTER + INTRA:          -9.695
REMARK INTER:                  -9.290
REMARK INTRA:                  -0.406
REMARK UNBOUND:                -0.645
REMARK  Name = cpd313.pdb
REMARK  6 active torsions:
REMARK  status: ('A' for Active; 'I' for Inactive)
REMARK    1  A    between atoms: C_1  and  O_2
REMARK    2  A    between atoms: O_2  and  C_3
REMARK    3  A    between atoms: C_12  and  O_13
REMARK    4  A    between atoms: C_20  and  C_22
REMARK    5  A    between atoms: C_22  and  C_23
REMARK    6  A    between atoms: C_23  and  N_24
REMARK                            x       y       z     vdW  Elec       q    Type
REMARK                         _______ _______ _______ _____ _____    ______ ____
ROOT
ATOM      1  C   UNL     1      31.435 -32.816 -30.172  0.00  0.00    +0.162 A 
ATOM      2  C   UNL     1      32.356 -31.888 -29.688  0.00  0.00    -0.016 A 
ATOM      3  C   UNL     1      33.737 -32.148 -29.753  0.00  0.00    -0.053 A 
ATOM      4  C   UNL     1      34.244 -33.347 -30.288  0.00  0.00    -0.022 A 
ATOM      5  C   UNL     1      33.312 -34.277 -30.745  0.00  0.00    +0.016 A 
ATOM      6  C   UNL     1      31.944 -33.999 -30.690  0.00  0.00    +0.167 A 
ATOM      7  O   UNL     1      31.159 -34.990 -31.235  0.00  0.00    -0.484 OA
ATOM      8  C   UNL     1      32.051 -36.125 -31.315  0.00  0.00    +0.116 C 
ATOM      9  C   UNL     1      31.636 -37.020 -32.477  0.00  0.00    +0.015 C 
ATOM     10  C   UNL     1      31.870 -36.347 -33.827  0.00  0.00    +0.077 C 
ATOM     11  C   UNL     1      33.225 -35.728 -33.926  0.00  0.00    -0.059 C 
ATOM     12  C   UNL     1      33.970 -35.401 -32.858  0.00  0.00    -0.071 C 
ATOM     13  C   UNL     1      33.523 -35.603 -31.415  0.00  0.00    +0.056 C 
ATOM     14  C   UNL     1      34.471 -36.577 -30.676  0.00  0.00    -0.020 C 
ATOM     15  C   UNL     1      35.611 -35.930 -29.889  0.00  0.00    +0.016 C 
ATOM     16  N   UNL     1      36.263 -34.849 -30.615  0.00  0.00    -0.297 N 
ATOM     17  C   UNL     1      37.436 -34.990 -31.354  0.00  0.00    +0.217 C 
ATOM     18  O   UNL     1      38.021 -34.017 -31.831  0.00  0.00    -0.276 OA
ATOM     19  C   UNL     1      35.745 -33.496 -30.417  0.00  0.00    +0.040 C 
ENDROOT
BRANCH   1  21
ATOM     20  C   UNL     1      29.557 -31.474 -30.736  0.00  0.00    +0.079 C 
ATOM     21  O   UNL     1      30.077 -32.674 -30.181  0.00  0.00    -0.491 OA
ENDBRANCH   1  21
BRANCH  10  22
ATOM     22  O   UNL     1      31.775 -37.331 -34.851  0.00  0.00    -0.388 OA
ATOM     23  H   UNL     1      31.171 -37.020 -35.543  0.00  0.00    +0.000 HD
ENDBRANCH  10  22
BRANCH  17  24
ATOM     24  C   UNL     1      37.959 -36.403 -31.560  0.00  0.00    +0.037 C 
BRANCH  24  25
ATOM     25  C   UNL     1      39.034 -36.758 -30.529  0.00  0.00    +0.007 C 
BRANCH  25  26
ATOM     26  N   UNL     1      40.325 -37.060 -31.165  0.00  0.00    -0.302 N 
ATOM     27  C   UNL     1      41.027 -35.868 -31.653  0.00  0.00    -0.001 C 
ATOM     28  C   UNL     1      42.459 -36.348 -31.837  0.00  0.00    -0.039 C 
ATOM     29  C   UNL     1      42.590 -37.576 -30.943  0.00  0.00    -0.039 C 
ATOM     30  C   UNL     1      41.259 -37.675 -30.218  0.00  0.00    -0.001 C 
ATOM     31  H   UNL     1      40.079 -37.679 -31.937  0.00  0.00    +0.000 HD
ENDBRANCH  25  26
ENDBRANCH  24  25
ENDBRANCH  17  24
TORSDOF 5
ENDMDL
MODEL 6
REMARK VINA RESULT:    -7.149      2.061      2.794
REMARK INTER + INTRA:          -9.675
REMARK INTER:                  -8.624
REMARK INTRA:                  -1.051
REMARK UNBOUND:                -0.645
REMARK  Name = cpd313.pdb
REMARK  6 active torsions:
REMARK  status: ('A' for Active; 'I' for Inactive)
REMARK    1  A    between atoms: C_1  and  O_2
REMARK    2  A    between atoms: O_2  and  C_3
REMARK    3  A    between atoms: C_12  and  O_13
REMARK    4  A    between atoms: C_20  and  C_22
REMARK    5  A    between atoms: C_22  and  C_23
REMARK    6  A    between atoms: C_23  and  N_24
REMARK                            x       y       z     vdW  Elec       q    Type
REMARK                         _______ _______ _______ _____ _____    ______ ____
ROOT
ATOM      1  C   UNL     1      38.652 -37.994 -28.951  0.00  0.00    +0.162 A 
ATOM      2  C   UNL     1      39.129 -37.144 -29.949  0.00  0.00    -0.016 A 
ATOM      3  C   UNL     1      38.237 -36.438 -30.776  0.00  0.00    -0.053 A 
ATOM      4  C   UNL     1      36.841 -36.567 -30.646  0.00  0.00    -0.022 A 
ATOM      5  C   UNL     1      36.378 -37.439 -29.662  0.00  0.00    +0.016 A 
ATOM      6  C   UNL     1      37.274 -38.122 -28.837  0.00  0.00    +0.167 A 
ATOM      7  O   UNL     1      36.660 -38.895 -27.878  0.00  0.00    -0.484 OA
ATOM      8  C   UNL     1      35.296 -38.997 -28.347  0.00  0.00    +0.116 C 
ATOM      9  C   UNL     1      34.359 -39.163 -27.156  0.00  0.00    +0.015 C 
ATOM     10  C   UNL     1      34.297 -37.903 -26.298  0.00  0.00    +0.077 C 
ATOM     11  C   UNL     1      34.108 -36.667 -27.116  0.00  0.00    -0.059 C 
ATOM     12  C   UNL     1      34.399 -36.594 -28.424  0.00  0.00    -0.071 C 
ATOM     13  C   UNL     1      34.973 -37.750 -29.235  0.00  0.00    +0.056 C 
ATOM     14  C   UNL     1      34.008 -38.158 -30.372  0.00  0.00    -0.020 C 
ATOM     15  C   UNL     1      34.265 -37.506 -31.732  0.00  0.00    +0.016 C 
ATOM     16  N   UNL     1      34.555 -36.083 -31.635  0.00  0.00    -0.297 N 
ATOM     17  C   UNL     1      33.614 -35.072 -31.817  0.00  0.00    +0.217 C 
ATOM     18  O   UNL     1      33.939 -33.885 -31.864  0.00  0.00    -0.276 OA
ATOM     19  C   UNL     1      35.957 -35.689 -31.505  0.00  0.00    +0.040 C 
ENDROOT
BRANCH   1  21
ATOM     20  C   UNL     1      40.820 -38.684 -28.267  0.00  0.00    +0.079 C 
ATOM     21  O   UNL     1      39.412 -38.717 -28.079  0.00  0.00    -0.491 OA
ENDBRANCH   1  21
BRANCH  10  22
ATOM     22  O   UNL     1      33.185 -38.003 -25.416  0.00  0.00    -0.388 OA
ATOM     23  H   UNL     1      32.607 -37.233 -25.535  0.00  0.00    +0.000 HD
ENDBRANCH  10  22
BRANCH  17  24
ATOM     24  C   UNL     1      32.159 -35.494 -31.941  0.00  0.00    +0.037 C 
BRANCH  24  25
ATOM     25  C   UNL     1      31.434 -35.409 -30.596  0.00  0.00    +0.007 C 
BRANCH  25  26
ATOM     26  N   UNL     1      31.655 -34.114 -29.935  0.00  0.00    -0.302 N 
ATOM     27  C   UNL     1      30.764 -33.054 -30.417  0.00  0.00    -0.001 C 
ATOM     28  C   UNL     1      30.850 -31.993 -29.328  0.00  0.00    -0.039 C 
ATOM     29  C   UNL     1      31.324 -32.733 -28.083  0.00  0.00    -0.039 C 
ATOM     30  C   UNL     1      31.387 -34.194 -28.496  0.00  0.00    -0.001 C 
ATOM     31  H   UNL     1      32.628 -33.895 -30.144  0.00  0.00    +0.000 HD
ENDBRANCH  25  26
ENDBRANCH  24  25
ENDBRANCH  17  24
TORSDOF 5
ENDMDL
MODEL 7
REMARK VINA RESULT:    -7.090     17.035     19.366
REMARK INTER + INTRA:          -9.600
REMARK INTER:                  -9.101
REMARK INTRA:                  -0.499
REMARK UNBOUND:                -0.645
REMARK  Name = cpd313.pdb
REMARK  6 active torsions:
REMARK  status: ('A' for Active; 'I' for Inactive)
REMARK    1  A    between atoms: C_1  and  O_2
REMARK    2  A    between atoms: O_2  and  C_3
REMARK    3  A    between atoms: C_12  and  O_13
REMARK    4  A    between atoms: C_20  and  C_22
REMARK    5  A    between atoms: C_22  and  C_23
REMARK    6  A    between atoms: C_23  and  N_24
REMARK                            x       y       z     vdW  Elec       q    Type
REMARK                         _______ _______ _______ _____ _____    ______ ____
ROOT
ATOM      1  C   UNL     1      45.611 -21.590 -40.760  0.00  0.00    +0.162 A 
ATOM      2  C   UNL     1      46.851 -21.650 -40.123  0.00  0.00    -0.016 A 
ATOM      3  C   UNL     1      46.989 -21.240 -38.785  0.00  0.00    -0.053 A 
ATOM      4  C   UNL     1      45.901 -20.743 -38.043  0.00  0.00    -0.022 A 
ATOM      5  C   UNL     1      44.674 -20.664 -38.698  0.00  0.00    +0.016 A 
ATOM      6  C   UNL     1      44.547 -21.090 -40.023  0.00  0.00    +0.167 A 
ATOM      7  O   UNL     1      43.260 -21.005 -40.507  0.00  0.00    -0.484 OA
ATOM      8  C   UNL     1      42.598 -20.137 -39.559  0.00  0.00    +0.116 C 
ATOM      9  C   UNL     1      41.115 -20.488 -39.496  0.00  0.00    +0.015 C 
ATOM     10  C   UNL     1      40.880 -21.862 -38.875  0.00  0.00    +0.077 C 
ATOM     11  C   UNL     1      41.655 -22.056 -37.613  0.00  0.00    -0.059 C 
ATOM     12  C   UNL     1      42.741 -21.335 -37.293  0.00  0.00    -0.071 C 
ATOM     13  C   UNL     1      43.330 -20.244 -38.180  0.00  0.00    +0.056 C 
ATOM     14  C   UNL     1      43.293 -18.873 -37.465  0.00  0.00    -0.020 C 
ATOM     15  C   UNL     1      44.561 -18.483 -36.703  0.00  0.00    +0.016 C 
ATOM     16  N   UNL     1      45.118 -19.581 -35.927  0.00  0.00    -0.297 N 
ATOM     17  C   UNL     1      44.888 -19.783 -34.567  0.00  0.00    +0.217 C 
ATOM     18  O   UNL     1      45.495 -20.644 -33.929  0.00  0.00    -0.276 OA
ATOM     19  C   UNL     1      46.118 -20.426 -36.578  0.00  0.00    +0.040 C 
ENDROOT
BRANCH   1  21
ATOM     20  C   UNL     1      46.284 -22.838 -42.666  0.00  0.00    +0.079 C 
ATOM     21  O   UNL     1      45.346 -21.972 -42.043  0.00  0.00    -0.491 OA
ENDBRANCH   1  21
BRANCH  10  22
ATOM     22  O   UNL     1      39.500 -21.987 -38.550  0.00  0.00    -0.388 OA
ATOM     23  H   UNL     1      39.403 -22.108 -37.593  0.00  0.00    +0.000 HD
ENDBRANCH  10  22
BRANCH  17  24
ATOM     24  C   UNL     1      43.840 -18.903 -33.905  0.00  0.00    +0.037 C 
BRANCH  24  25
ATOM     25  C   UNL     1      44.431 -18.113 -32.734  0.00  0.00    +0.007 C 
BRANCH  25  26
ATOM     26  N   UNL     1      43.961 -16.720 -32.720  0.00  0.00    -0.302 N 
ATOM     27  C   UNL     1      44.553 -15.916 -31.646  0.00  0.00    -0.001 C 
ATOM     28  C   UNL     1      44.295 -14.483 -32.089  0.00  0.00    -0.039 C 
ATOM     29  C   UNL     1      44.083 -14.560 -33.596  0.00  0.00    -0.039 C 
ATOM     30  C   UNL     1      44.330 -16.017 -33.952  0.00  0.00    -0.001 C 
ATOM     31  H   UNL     1      42.952 -16.803 -32.599  0.00  0.00    +0.000 HD
ENDBRANCH  25  26
ENDBRANCH  24  25
ENDBRANCH  17  24
TORSDOF 5
ENDMDL
MODEL 8
REMARK VINA RESULT:    -6.917     16.589     19.821
REMARK INTER + INTRA:          -9.382
REMARK INTER:                  -8.402
REMARK INTRA:                  -0.980
REMARK UNBOUND:                -0.645
REMARK  Name = cpd313.pdb
REMARK  6 active torsions:
REMARK  status: ('A' for Active; 'I' for Inactive)
REMARK    1  A    between atoms: C_1  and  O_2
REMARK    2  A    between atoms: O_2  and  C_3
REMARK    3  A    between atoms: C_12  and  O_13
REMARK    4  A    between atoms: C_20  and  C_22
REMARK    5  A    between atoms: C_22  and  C_23
REMARK    6  A    between atoms: C_23  and  N_24
REMARK                            x       y       z     vdW  Elec       q    Type
REMARK                         _______ _______ _______ _____ _____    ______ ____
ROOT
ATOM      1  C   UNL     1      40.847 -21.096 -34.968  0.00  0.00    +0.162 A 
ATOM      2  C   UNL     1      40.188 -21.861 -35.930  0.00  0.00    -0.016 A 
ATOM      3  C   UNL     1      40.597 -21.826 -37.276  0.00  0.00    -0.053 A 
ATOM      4  C   UNL     1      41.666 -21.018 -37.708  0.00  0.00    -0.022 A 
ATOM      5  C   UNL     1      42.300 -20.240 -36.741  0.00  0.00    +0.016 A 
ATOM      6  C   UNL     1      41.894 -20.296 -35.405  0.00  0.00    +0.167 A 
ATOM      7  O   UNL     1      42.657 -19.517 -34.565  0.00  0.00    -0.484 OA
ATOM      8  C   UNL     1      43.361 -18.633 -35.468  0.00  0.00    +0.116 C 
ATOM      9  C   UNL     1      44.699 -18.237 -34.854  0.00  0.00    +0.015 C 
ATOM     10  C   UNL     1      45.660 -19.419 -34.767  0.00  0.00    +0.077 C 
ATOM     11  C   UNL     1      45.726 -20.192 -36.042  0.00  0.00    -0.059 C 
ATOM     12  C   UNL     1      44.769 -20.154 -36.982  0.00  0.00    -0.071 C 
ATOM     13  C   UNL     1      43.489 -19.333 -36.861  0.00  0.00    +0.056 C 
ATOM     14  C   UNL     1      43.405 -18.274 -37.985  0.00  0.00    -0.020 C 
ATOM     15  C   UNL     1      42.633 -18.689 -39.238  0.00  0.00    +0.016 C 
ATOM     16  N   UNL     1      42.941 -20.043 -39.674  0.00  0.00    -0.297 N 
ATOM     17  C   UNL     1      43.864 -20.361 -40.669  0.00  0.00    +0.217 C 
ATOM     18  O   UNL     1      43.984 -21.509 -41.097  0.00  0.00    -0.276 OA
ATOM     19  C   UNL     1      42.106 -21.125 -39.153  0.00  0.00    +0.040 C 
ENDROOT
BRANCH   1  21
ATOM     20  C   UNL     1      40.901 -22.200 -32.864  0.00  0.00    +0.079 C 
ATOM     21  O   UNL     1      40.557 -21.057 -33.635  0.00  0.00    -0.491 OA
ENDBRANCH   1  21
BRANCH  10  22
ATOM     22  O   UNL     1      46.968 -18.927 -34.499  0.00  0.00    -0.388 OA
ATOM     23  H   UNL     1      47.446 -19.564 -33.947  0.00  0.00    +0.000 HD
ENDBRANCH  10  22
BRANCH  17  24
ATOM     24  C   UNL     1      44.732 -19.229 -41.195  0.00  0.00    +0.037 C 
BRANCH  24  25
ATOM     25  C   UNL     1      46.163 -19.325 -40.660  0.00  0.00    +0.007 C 
BRANCH  25  26
ATOM     26  N   UNL     1      46.742 -20.659 -40.881  0.00  0.00    -0.302 N 
ATOM     27  C   UNL     1      47.843 -20.663 -41.850  0.00  0.00    -0.001 C 
ATOM     28  C   UNL     1      48.550 -21.984 -41.581  0.00  0.00    -0.039 C 
ATOM     29  C   UNL     1      48.159 -22.367 -40.158  0.00  0.00    -0.039 C 
ATOM     30  C   UNL     1      47.332 -21.197 -39.652  0.00  0.00    -0.001 C 
ATOM     31  H   UNL     1      45.957 -21.214 -41.219  0.00  0.00    +0.000 HD
ENDBRANCH  25  26
ENDBRANCH  24  25
ENDBRANCH  17  24
TORSDOF 5
ENDMDL
MODEL 9
REMARK VINA RESULT:    -6.882     15.176     18.134
REMARK INTER + INTRA:          -9.338
REMARK INTER:                  -8.704
REMARK INTRA:                  -0.634
REMARK UNBOUND:                -0.645
REMARK  Name = cpd313.pdb
REMARK  6 active torsions:
REMARK  status: ('A' for Active; 'I' for Inactive)
REMARK    1  A    between atoms: C_1  and  O_2
REMARK    2  A    between atoms: O_2  and  C_3
REMARK    3  A    between atoms: C_12  and  O_13
REMARK    4  A    between atoms: C_20  and  C_22
REMARK    5  A    between atoms: C_22  and  C_23
REMARK    6  A    between atoms: C_23  and  N_24
REMARK                            x       y       z     vdW  Elec       q    Type
REMARK                         _______ _______ _______ _____ _____    ______ ____
ROOT
ATOM      1  C   UNL     1      39.421 -23.398 -34.089  0.00  0.00    +0.162 A 
ATOM      2  C   UNL     1      39.680 -23.178 -32.737  0.00  0.00    -0.016 A 
ATOM      3  C   UNL     1      40.528 -22.131 -32.331  0.00  0.00    -0.053 A 
ATOM      4  C   UNL     1      41.156 -21.280 -33.260  0.00  0.00    -0.022 A 
ATOM      5  C   UNL     1      40.908 -21.526 -34.609  0.00  0.00    +0.016 A 
ATOM      6  C   UNL     1      40.052 -22.559 -34.998  0.00  0.00    +0.167 A 
ATOM      7  O   UNL     1      39.863 -22.634 -36.359  0.00  0.00    -0.484 OA
ATOM      8  C   UNL     1      40.943 -21.836 -36.896  0.00  0.00    +0.116 C 
ATOM      9  C   UNL     1      40.513 -21.226 -38.226  0.00  0.00    +0.015 C 
ATOM     10  C   UNL     1      39.415 -20.182 -38.048  0.00  0.00    +0.077 C 
ATOM     11  C   UNL     1      39.722 -19.216 -36.951  0.00  0.00    -0.059 C 
ATOM     12  C   UNL     1      40.595 -19.470 -35.964  0.00  0.00    -0.071 C 
ATOM     13  C   UNL     1      41.367 -20.777 -35.825  0.00  0.00    +0.056 C 
ATOM     14  C   UNL     1      42.891 -20.529 -35.916  0.00  0.00    -0.020 C 
ATOM     15  C   UNL     1      43.617 -20.338 -34.584  0.00  0.00    +0.016 C 
ATOM     16  N   UNL     1      42.895 -19.476 -33.660  0.00  0.00    -0.297 N 
ATOM     17  C   UNL     1      43.145 -18.115 -33.492  0.00  0.00    +0.217 C 
ATOM     18  O   UNL     1      42.603 -17.463 -32.598  0.00  0.00    -0.276 OA
ATOM     19  C   UNL     1      41.964 -20.114 -32.731  0.00  0.00    +0.040 C 
ENDROOT
BRANCH   1  21
ATOM     20  C   UNL     1      37.655 -24.946 -33.727  0.00  0.00    +0.079 C 
ATOM     21  O   UNL     1      38.608 -24.366 -34.606  0.00  0.00    -0.491 OA
ENDBRANCH   1  21
BRANCH  10  22
ATOM     22  O   UNL     1      39.294 -19.434 -39.253  0.00  0.00    -0.388 OA
ATOM     23  H   UNL     1      40.070 -18.862 -39.357  0.00  0.00    +0.000 HD
ENDBRANCH  10  22
BRANCH  17  24
ATOM     24  C   UNL     1      44.108 -17.462 -34.470  0.00  0.00    +0.037 C 
BRANCH  24  25
ATOM     25  C   UNL     1      45.509 -17.322 -33.869  0.00  0.00    +0.007 C 
BRANCH  25  26
ATOM     26  N   UNL     1      46.560 -17.465 -34.887  0.00  0.00    -0.302 N 
ATOM     27  C   UNL     1      47.502 -18.552 -34.603  0.00  0.00    -0.001 C 
ATOM     28  C   UNL     1      48.178 -18.798 -35.944  0.00  0.00    -0.039 C 
ATOM     29  C   UNL     1      47.216 -18.241 -36.987  0.00  0.00    -0.039 C 
ATOM     30  C   UNL     1      45.996 -17.799 -36.197  0.00  0.00    -0.001 C 
ATOM     31  H   UNL     1      47.034 -16.562 -34.878  0.00  0.00    +0.000 HD
ENDBRANCH  25  26
ENDBRANCH  24  25
ENDBRANCH  17  24
TORSDOF 5
ENDMDL
MODEL 10
REMARK VINA RESULT:    -6.828      2.865      8.053
REMARK INTER + INTRA:          -9.270
REMARK INTER:                  -8.506
REMARK INTRA:                  -0.764
REMARK UNBOUND:                -0.645
REMARK  Name = cpd313.pdb
REMARK  6 active torsions:
REMARK  status: ('A' for Active; 'I' for Inactive)
REMARK    1  A    between atoms: C_1  and  O_2
REMARK    2  A    between atoms: O_2  and  C_3
REMARK    3  A    between atoms: C_12  and  O_13
REMARK    4  A    between atoms: C_20  and  C_22
REMARK    5  A    between atoms: C_22  and  C_23
REMARK    6  A    between atoms: C_23  and  N_24
REMARK                            x       y       z     vdW  Elec       q    Type
REMARK                         _______ _______ _______ _____ _____    ______ ____
ROOT
ATOM      1  C   UNL     1      29.323 -33.135 -29.425  0.00  0.00    +0.162 A 
ATOM      2  C   UNL     1      28.932 -33.767 -28.244  0.00  0.00    -0.016 A 
ATOM      3  C   UNL     1      29.741 -34.761 -27.663  0.00  0.00    -0.053 A 
ATOM      4  C   UNL     1      30.956 -35.166 -28.246  0.00  0.00    -0.022 A 
ATOM      5  C   UNL     1      31.322 -34.544 -29.438  0.00  0.00    +0.016 A 
ATOM      6  C   UNL     1      30.518 -33.548 -29.996  0.00  0.00    +0.167 A 
ATOM      7  O   UNL     1      31.047 -32.990 -31.139  0.00  0.00    -0.484 OA
ATOM      8  C   UNL     1      32.069 -33.933 -31.535  0.00  0.00    +0.116 C 
ATOM      9  C   UNL     1      33.179 -33.199 -32.279  0.00  0.00    +0.015 C 
ATOM     10  C   UNL     1      33.960 -32.263 -31.362  0.00  0.00    +0.077 C 
ATOM     11  C   UNL     1      34.352 -32.921 -30.080  0.00  0.00    -0.059 C 
ATOM     12  C   UNL     1      33.742 -34.011 -29.589  0.00  0.00    -0.071 C 
ATOM     13  C   UNL     1      32.564 -34.703 -30.266  0.00  0.00    +0.056 C 
ATOM     14  C   UNL     1      32.925 -36.158 -30.648  0.00  0.00    -0.020 C 
ATOM     15  C   UNL     1      32.548 -37.230 -29.626  0.00  0.00    +0.016 C 
ATOM     16  N   UNL     1      32.858 -36.846 -28.257  0.00  0.00    -0.297 N 
ATOM     17  C   UNL     1      34.013 -37.222 -27.574  0.00  0.00    +0.217 C 
ATOM     18  O   UNL     1      34.162 -36.989 -26.374  0.00  0.00    -0.276 OA
ATOM     19  C   UNL     1      31.813 -36.163 -27.495  0.00  0.00    +0.040 C 
ENDROOT
BRANCH   1  21
ATOM     20  C   UNL     1      27.223 -32.276 -30.131  0.00  0.00    +0.079 C 
ATOM     21  O   UNL     1      28.637 -32.150 -30.075  0.00  0.00    -0.491 OA
ENDBRANCH   1  21
BRANCH  10  22
ATOM     22  O   UNL     1      35.157 -31.868 -32.021  0.00  0.00    -0.388 OA
ATOM     23  H   UNL     1      35.875 -32.473 -31.779  0.00  0.00    +0.000 HD
ENDBRANCH  10  22
BRANCH  17  24
ATOM     24  C   UNL     1      35.096 -37.923 -28.379  0.00  0.00    +0.037 C 
BRANCH  24  25
ATOM     25  C   UNL     1      36.492 -37.608 -27.834  0.00  0.00    +0.007 C 
BRANCH  25  26
ATOM     26  N   UNL     1      37.290 -36.826 -28.789  0.00  0.00    -0.302 N 
ATOM     27  C   UNL     1      38.485 -37.531 -29.266  0.00  0.00    -0.001 C 
ATOM     28  C   UNL     1      38.876 -36.762 -30.520  0.00  0.00    -0.039 C 
ATOM     29  C   UNL     1      37.606 -36.049 -30.967  0.00  0.00    -0.039 C 
ATOM     30  C   UNL     1      36.530 -36.526 -30.005  0.00  0.00    -0.001 C 
ATOM     31  H   UNL     1      37.547 -35.989 -28.266  0.00  0.00    +0.000 HD
ENDBRANCH  25  26
ENDBRANCH  24  25
ENDBRANCH  17  24
TORSDOF 5
ENDMDL
MODEL 11
REMARK VINA RESULT:    -6.663      2.007      4.415
REMARK INTER + INTRA:          -9.061
REMARK INTER:                  -8.436
REMARK INTRA:                  -0.626
REMARK UNBOUND:                -0.645
REMARK  Name = cpd313.pdb
REMARK  6 active torsions:
REMARK  status: ('A' for Active; 'I' for Inactive)
REMARK    1  A    between atoms: C_1  and  O_2
REMARK    2  A    between atoms: O_2  and  C_3
REMARK    3  A    between atoms: C_12  and  O_13
REMARK    4  A    between atoms: C_20  and  C_22
REMARK    5  A    between atoms: C_22  and  C_23
REMARK    6  A    between atoms: C_23  and  N_24
REMARK                            x       y       z     vdW  Elec       q    Type
REMARK                         _______ _______ _______ _____ _____    ______ ____
ROOT
ATOM      1  C   UNL     1      34.509 -40.665 -29.874  0.00  0.00    +0.162 A 
ATOM      2  C   UNL     1      33.362 -40.436 -30.634  0.00  0.00    -0.016 A 
ATOM      3  C   UNL     1      32.983 -39.127 -30.984  0.00  0.00    -0.053 A 
ATOM      4  C   UNL     1      33.727 -38.003 -30.577  0.00  0.00    -0.022 A 
ATOM      5  C   UNL     1      34.857 -38.244 -29.798  0.00  0.00    +0.016 A 
ATOM      6  C   UNL     1      35.230 -39.550 -29.470  0.00  0.00    +0.167 A 
ATOM      7  O   UNL     1      36.400 -39.623 -28.748  0.00  0.00    -0.484 OA
ATOM      8  C   UNL     1      36.593 -38.270 -28.276  0.00  0.00    +0.116 C 
ATOM      9  C   UNL     1      38.084 -37.997 -28.106  0.00  0.00    +0.015 C 
ATOM     10  C   UNL     1      38.814 -37.965 -29.445  0.00  0.00    +0.077 C 
ATOM     11  C   UNL     1      38.105 -37.130 -30.460  0.00  0.00    -0.059 C 
ATOM     12  C   UNL     1      36.802 -36.817 -30.382  0.00  0.00    -0.071 C 
ATOM     13  C   UNL     1      35.880 -37.286 -29.262  0.00  0.00    +0.056 C 
ATOM     14  C   UNL     1      35.313 -36.082 -28.474  0.00  0.00    -0.020 C 
ATOM     15  C   UNL     1      33.951 -35.563 -28.936  0.00  0.00    +0.016 C 
ATOM     16  N   UNL     1      33.836 -35.476 -30.384  0.00  0.00    -0.297 N 
ATOM     17  C   UNL     1      34.041 -34.312 -31.123  0.00  0.00    +0.217 C 
ATOM     18  O   UNL     1      33.794 -34.258 -32.328  0.00  0.00    -0.276 OA
ATOM     19  C   UNL     1      33.308 -36.643 -31.090  0.00  0.00    +0.040 C 
ENDROOT
BRANCH   1  21
ATOM     20  C   UNL     1      34.197 -42.623 -28.566  0.00  0.00    +0.079 C 
ATOM     21  O   UNL     1      34.987 -41.882 -29.486  0.00  0.00    -0.491 OA
ENDBRANCH   1  21
BRANCH  10  22
ATOM     22  O   UNL     1      40.103 -37.394 -29.250  0.00  0.00    -0.388 OA
ATOM     23  H   UNL     1      40.166 -37.037 -28.351  0.00  0.00    +0.000 HD
ENDBRANCH  10  22
BRANCH  17  24
ATOM     24  C   UNL     1      34.599 -33.109 -30.379  0.00  0.00    +0.037 C 
BRANCH  24  25
ATOM     25  C   UNL     1      33.491 -32.328 -29.667  0.00  0.00    +0.007 C 
BRANCH  25  26
ATOM     26  N   UNL     1      32.249 -32.297 -30.452  0.00  0.00    -0.302 N 
ATOM     27  C   UNL     1      31.090 -32.831 -29.730  0.00  0.00    -0.001 C 
ATOM     28  C   UNL     1      29.902 -32.299 -30.518  0.00  0.00    -0.039 C 
ATOM     29  C   UNL     1      30.432 -31.085 -31.273  0.00  0.00    -0.039 C 
ATOM     30  C   UNL     1      31.867 -30.926 -30.799  0.00  0.00    -0.001 C 
ATOM     31  H   UNL     1      32.462 -32.868 -31.270  0.00  0.00    +0.000 HD
ENDBRANCH  25  26
ENDBRANCH  24  25
ENDBRANCH  17  24
TORSDOF 5
ENDMDL
MODEL 12
REMARK VINA RESULT:    -6.635     15.664     18.197
REMARK INTER + INTRA:          -9.026
REMARK INTER:                  -8.383
REMARK INTRA:                  -0.643
REMARK UNBOUND:                -0.645
REMARK  Name = cpd313.pdb
REMARK  6 active torsions:
REMARK  status: ('A' for Active; 'I' for Inactive)
REMARK    1  A    between atoms: C_1  and  O_2
REMARK    2  A    between atoms: O_2  and  C_3
REMARK    3  A    between atoms: C_12  and  O_13
REMARK    4  A    between atoms: C_20  and  C_22
REMARK    5  A    between atoms: C_22  and  C_23
REMARK    6  A    between atoms: C_23  and  N_24
REMARK                            x       y       z     vdW  Elec       q    Type
REMARK                         _______ _______ _______ _____ _____    ______ ____
ROOT
ATOM      1  C   UNL     1      40.243 -22.820 -32.998  0.00  0.00    +0.162 A 
ATOM      2  C   UNL     1      39.394 -23.491 -33.878  0.00  0.00    -0.016 A 
ATOM      3  C   UNL     1      39.229 -23.037 -35.200  0.00  0.00    -0.053 A 
ATOM      4  C   UNL     1      39.892 -21.892 -35.682  0.00  0.00    -0.022 A 
ATOM      5  C   UNL     1      40.717 -21.217 -34.784  0.00  0.00    +0.016 A 
ATOM      6  C   UNL     1      40.885 -21.687 -33.480  0.00  0.00    +0.167 A 
ATOM      7  O   UNL     1      41.778 -20.947 -32.738  0.00  0.00    -0.484 OA
ATOM      8  C   UNL     1      41.913 -19.722 -33.495  0.00  0.00    +0.116 C 
ATOM      9  C   UNL     1      43.299 -19.130 -33.264  0.00  0.00    +0.015 C 
ATOM     10  C   UNL     1      44.397 -19.994 -33.876  0.00  0.00    +0.077 C 
ATOM     11  C   UNL     1      44.083 -20.405 -35.277  0.00  0.00    -0.059 C 
ATOM     12  C   UNL     1      42.841 -20.412 -35.786  0.00  0.00    -0.071 C 
ATOM     13  C   UNL     1      41.596 -20.020 -34.998  0.00  0.00    +0.056 C 
ATOM     14  C   UNL     1      40.903 -18.793 -35.636  0.00  0.00    -0.020 C 
ATOM     15  C   UNL     1      39.780 -19.101 -36.627  0.00  0.00    +0.016 C 
ATOM     16  N   UNL     1      40.111 -20.182 -37.544  0.00  0.00    -0.297 N 
ATOM     17  C   UNL     1      40.606 -20.000 -38.833  0.00  0.00    +0.217 C 
ATOM     18  O   UNL     1      40.736 -20.942 -39.616  0.00  0.00    -0.276 OA
ATOM     19  C   UNL     1      39.739 -21.540 -37.146  0.00  0.00    +0.040 C 
ENDROOT
BRANCH   1  21
ATOM     20  C   UNL     1      41.384 -24.260 -31.491  0.00  0.00    +0.079 C 
ATOM     21  O   UNL     1      40.499 -23.169 -31.703  0.00  0.00    -0.491 OA
ENDBRANCH   1  21
BRANCH  10  22
ATOM     22  O   UNL     1      45.605 -19.242 -33.914  0.00  0.00    -0.388 OA
ATOM     23  H   UNL     1      46.029 -19.355 -34.779  0.00  0.00    +0.000 HD
ENDBRANCH  10  22
BRANCH  17  24
ATOM     24  C   UNL     1      40.997 -18.586 -39.231  0.00  0.00    +0.037 C 
BRANCH  24  25
ATOM     25  C   UNL     1      42.492 -18.335 -39.014  0.00  0.00    +0.007 C 
BRANCH  25  26
ATOM     26  N   UNL     1      42.933 -17.076 -39.632  0.00  0.00    -0.302 N 
ATOM     27  C   UNL     1      43.667 -17.270 -40.887  0.00  0.00    -0.001 C 
ATOM     28  C   UNL     1      43.617 -15.898 -41.544  0.00  0.00    -0.039 C 
ATOM     29  C   UNL     1      42.425 -15.191 -40.910  0.00  0.00    -0.039 C 
ATOM     30  C   UNL     1      41.794 -16.231 -39.998  0.00  0.00    -0.001 C 
ATOM     31  H   UNL     1      43.530 -16.651 -38.923  0.00  0.00    +0.000 HD
ENDBRANCH  25  26
ENDBRANCH  24  25
ENDBRANCH  17  24
TORSDOF 5
ENDMDL
MODEL 13
REMARK VINA RESULT:    -6.623     25.233     28.174
REMARK INTER + INTRA:          -9.011
REMARK INTER:                  -7.872
REMARK INTRA:                  -1.139
REMARK UNBOUND:                -0.645
REMARK  Name = cpd313.pdb
REMARK  6 active torsions:
REMARK  status: ('A' for Active; 'I' for Inactive)
REMARK    1  A    between atoms: C_1  and  O_2
REMARK    2  A    between atoms: O_2  and  C_3
REMARK    3  A    between atoms: C_12  and  O_13
REMARK    4  A    between atoms: C_20  and  C_22
REMARK    5  A    between atoms: C_22  and  C_23
REMARK    6  A    between atoms: C_23  and  N_24
REMARK                            x       y       z     vdW  Elec       q    Type
REMARK                         _______ _______ _______ _____ _____    ______ ____
ROOT
ATOM      1  C   UNL     1      44.888 -36.595 -54.565  0.00  0.00    +0.162 A 
ATOM      2  C   UNL     1      44.868 -36.394 -53.185  0.00  0.00    -0.016 A 
ATOM      3  C   UNL     1      45.443 -35.241 -52.619  0.00  0.00    -0.053 A 
ATOM      4  C   UNL     1      46.069 -34.259 -53.409  0.00  0.00    -0.022 A 
ATOM      5  C   UNL     1      46.104 -34.483 -54.784  0.00  0.00    +0.016 A 
ATOM      6  C   UNL     1      45.516 -35.625 -55.334  0.00  0.00    +0.167 A 
ATOM      7  O   UNL     1      45.582 -35.670 -56.708  0.00  0.00    -0.484 OA
ATOM      8  C   UNL     1      46.588 -34.683 -57.033  0.00  0.00    +0.116 C 
ATOM      9  C   UNL     1      46.299 -34.094 -58.409  0.00  0.00    +0.015 C 
ATOM     10  C   UNL     1      45.026 -33.253 -58.415  0.00  0.00    +0.077 C 
ATOM     11  C   UNL     1      44.971 -32.298 -57.268  0.00  0.00    -0.059 C 
ATOM     12  C   UNL     1      45.689 -32.449 -56.144  0.00  0.00    -0.071 C 
ATOM     13  C   UNL     1      46.635 -33.616 -55.888  0.00  0.00    +0.056 C 
ATOM     14  C   UNL     1      48.087 -33.119 -55.702  0.00  0.00    -0.020 C 
ATOM     15  C   UNL     1      48.528 -32.870 -54.259  0.00  0.00    +0.016 C 
ATOM     16  N   UNL     1      47.521 -32.179 -53.468  0.00  0.00    -0.297 N 
ATOM     17  C   UNL     1      47.505 -30.804 -53.238  0.00  0.00    +0.217 C 
ATOM     18  O   UNL     1      46.714 -30.289 -52.447  0.00  0.00    -0.276 OA
ATOM     19  C   UNL     1      46.565 -33.001 -52.728  0.00  0.00    +0.040 C 
ENDROOT
BRANCH   1  21
ATOM     20  C   UNL     1      45.126 -38.849 -55.275  0.00  0.00    +0.079 C 
ATOM     21  O   UNL     1      44.353 -37.658 -55.232  0.00  0.00    -0.491 OA
ENDBRANCH   1  21
BRANCH  10  22
ATOM     22  O   UNL     1      44.992 -32.483 -59.611  0.00  0.00    -0.388 OA
ATOM     23  H   UNL     1      45.785 -31.926 -59.661  0.00  0.00    +0.000 HD
ENDBRANCH  10  22
BRANCH  17  24
ATOM     24  C   UNL     1      48.499 -29.960 -54.019  0.00  0.00    +0.037 C 
BRANCH  24  25
ATOM     25  C   UNL     1      47.907 -28.598 -54.390  0.00  0.00    +0.007 C 
BRANCH  25  26
ATOM     26  N   UNL     1      47.695 -28.467 -55.839  0.00  0.00    -0.302 N 
ATOM     27  C   UNL     1      48.237 -29.590 -56.611  0.00  0.00    -0.001 C 
ATOM     28  C   UNL     1      47.531 -29.473 -57.954  0.00  0.00    -0.039 C 
ATOM     29  C   UNL     1      46.270 -28.662 -57.677  0.00  0.00    -0.039 C 
ATOM     30  C   UNL     1      46.268 -28.445 -56.173  0.00  0.00    -0.001 C 
ATOM     31  H   UNL     1      48.171 -27.597 -56.079  0.00  0.00    +0.000 HD
ENDBRANCH  25  26
ENDBRANCH  24  25
ENDBRANCH  17  24
TORSDOF 5
ENDMDL
MODEL 14
REMARK VINA RESULT:    -6.517     16.041     19.070
REMARK INTER + INTRA:          -8.877
REMARK INTER:                  -7.612
REMARK INTRA:                  -1.265
REMARK UNBOUND:                -0.645
REMARK  Name = cpd313.pdb
REMARK  6 active torsions:
REMARK  status: ('A' for Active; 'I' for Inactive)
REMARK    1  A    between atoms: C_1  and  O_2
REMARK    2  A    between atoms: O_2  and  C_3
REMARK    3  A    between atoms: C_12  and  O_13
REMARK    4  A    between atoms: C_20  and  C_22
REMARK    5  A    between atoms: C_22  and  C_23
REMARK    6  A    between atoms: C_23  and  N_24
REMARK                            x       y       z     vdW  Elec       q    Type
REMARK                         _______ _______ _______ _____ _____    ______ ____
ROOT
ATOM      1  C   UNL     1      39.837 -21.729 -34.561  0.00  0.00    +0.162 A 
ATOM      2  C   UNL     1      39.549 -22.615 -35.598  0.00  0.00    -0.016 A 
ATOM      3  C   UNL     1      40.245 -22.541 -36.819  0.00  0.00    -0.053 A 
ATOM      4  C   UNL     1      41.239 -21.572 -37.050  0.00  0.00    -0.022 A 
ATOM      5  C   UNL     1      41.500 -20.676 -36.014  0.00  0.00    +0.016 A 
ATOM      6  C   UNL     1      40.813 -20.771 -34.802  0.00  0.00    +0.167 A 
ATOM      7  O   UNL     1      41.228 -19.855 -33.861  0.00  0.00    -0.484 OA
ATOM      8  C   UNL     1      41.968 -18.884 -34.636  0.00  0.00    +0.116 C 
ATOM      9  C   UNL     1      43.047 -18.252 -33.764  0.00  0.00    +0.015 C 
ATOM     10  C   UNL     1      44.140 -19.251 -33.394  0.00  0.00    +0.077 C 
ATOM     11  C   UNL     1      44.621 -20.029 -34.574  0.00  0.00    -0.059 C 
ATOM     12  C   UNL     1      43.912 -20.175 -35.704  0.00  0.00    -0.071 C 
ATOM     13  C   UNL     1      42.524 -19.583 -35.921  0.00  0.00    +0.056 C 
ATOM     14  C   UNL     1      42.530 -18.578 -37.097  0.00  0.00    -0.020 C 
ATOM     15  C   UNL     1      42.144 -19.146 -38.463  0.00  0.00    +0.016 C 
ATOM     16  N   UNL     1      42.758 -20.437 -38.737  0.00  0.00    -0.297 N 
ATOM     17  C   UNL     1      43.923 -20.615 -39.480  0.00  0.00    +0.217 C 
ATOM     18  O   UNL     1      44.322 -21.735 -39.801  0.00  0.00    -0.276 OA
ATOM     19  C   UNL     1      42.011 -21.634 -38.350  0.00  0.00    +0.040 C 
ENDROOT
BRANCH   1  21
ATOM     20  C   UNL     1      37.832 -21.581 -33.295  0.00  0.00    +0.079 C 
ATOM     21  O   UNL     1      39.246 -21.710 -33.330  0.00  0.00    -0.491 OA
ENDBRANCH   1  21
BRANCH  10  22
ATOM     22  O   UNL     1      45.254 -18.537 -32.872  0.00  0.00    -0.388 OA
ATOM     23  H   UNL     1      45.519 -18.926 -32.023  0.00  0.00    +0.000 HD
ENDBRANCH  10  22
BRANCH  17  24
ATOM     24  C   UNL     1      44.695 -19.363 -39.867  0.00  0.00    +0.037 C 
BRANCH  24  25
ATOM     25  C   UNL     1      46.112 -19.377 -39.289  0.00  0.00    +0.007 C 
BRANCH  25  26
ATOM     26  N   UNL     1      46.146 -18.875 -37.907  0.00  0.00    -0.302 N 
ATOM     27  C   UNL     1      47.446 -19.058 -37.253  0.00  0.00    -0.001 C 
ATOM     28  C   UNL     1      47.387 -18.100 -36.071  0.00  0.00    -0.039 C 
ATOM     29  C   UNL     1      46.328 -17.069 -36.441  0.00  0.00    -0.039 C 
ATOM     30  C   UNL     1      45.908 -17.430 -37.856  0.00  0.00    -0.001 C 
ATOM     31  H   UNL     1      45.421 -19.413 -37.433  0.00  0.00    +0.000 HD
ENDBRANCH  25  26
ENDBRANCH  24  25
ENDBRANCH  17  24
TORSDOF 5
ENDMDL
MODEL 15
REMARK VINA RESULT:    -6.428     17.108     20.130
REMARK INTER + INTRA:          -8.765
REMARK INTER:                  -7.739
REMARK INTRA:                  -1.026
REMARK UNBOUND:                -0.645
REMARK  Name = cpd313.pdb
REMARK  6 active torsions:
REMARK  status: ('A' for Active; 'I' for Inactive)
REMARK    1  A    between atoms: C_1  and  O_2
REMARK    2  A    between atoms: O_2  and  C_3
REMARK    3  A    between atoms: C_12  and  O_13
REMARK    4  A    between atoms: C_20  and  C_22
REMARK    5  A    between atoms: C_22  and  C_23
REMARK    6  A    between atoms: C_23  and  N_24
REMARK                            x       y       z     vdW  Elec       q    Type
REMARK                         _______ _______ _______ _____ _____    ______ ____
ROOT
ATOM      1  C   UNL     1      40.563 -21.336 -36.082  0.00  0.00    +0.162 A 
ATOM      2  C   UNL     1      40.194 -22.221 -37.094  0.00  0.00    -0.016 A 
ATOM      3  C   UNL     1      40.920 -22.276 -38.298  0.00  0.00    -0.053 A 
ATOM      4  C   UNL     1      42.028 -21.441 -38.537  0.00  0.00    -0.022 A 
ATOM      5  C   UNL     1      42.371 -20.544 -37.527  0.00  0.00    +0.016 A 
ATOM      6  C   UNL     1      41.651 -20.511 -36.331  0.00  0.00    +0.167 A 
ATOM      7  O   UNL     1      42.151 -19.615 -35.413  0.00  0.00    -0.484 OA
ATOM      8  C   UNL     1      43.018 -18.768 -36.202  0.00  0.00    +0.116 C 
ATOM      9  C   UNL     1      44.146 -18.235 -35.325  0.00  0.00    +0.015 C 
ATOM     10  C   UNL     1      45.103 -19.341 -34.891  0.00  0.00    +0.077 C 
ATOM     11  C   UNL     1      45.514 -20.216 -36.030  0.00  0.00    -0.059 C 
ATOM     12  C   UNL     1      44.818 -20.320 -37.173  0.00  0.00    -0.071 C 
ATOM     13  C   UNL     1      43.515 -19.576 -37.446  0.00  0.00    +0.056 C 
ATOM     14  C   UNL     1      43.667 -18.625 -38.656  0.00  0.00    -0.020 C 
ATOM     15  C   UNL     1      43.246 -19.195 -40.011  0.00  0.00    +0.016 C 
ATOM     16  N   UNL     1      43.708 -20.560 -40.223  0.00  0.00    -0.297 N 
ATOM     17  C   UNL     1      44.859 -20.902 -40.929  0.00  0.00    +0.217 C 
ATOM     18  O   UNL     1      45.129 -22.073 -41.199  0.00  0.00    -0.276 OA
ATOM     19  C   UNL     1      42.815 -21.644 -39.814  0.00  0.00    +0.040 C 
ENDROOT
BRANCH   1  21
ATOM     20  C   UNL     1      38.705 -20.519 -34.847  0.00  0.00    +0.079 C 
ATOM     21  O   UNL     1      39.952 -21.200 -34.869  0.00  0.00    -0.491 OA
ENDBRANCH   1  21
BRANCH  10  22
ATOM     22  O   UNL     1      46.284 -18.744 -34.366  0.00  0.00    -0.388 OA
ATOM     23  H   UNL     1      46.614 -18.077 -34.988  0.00  0.00    +0.000 HD
ENDBRANCH  10  22
BRANCH  17  24
ATOM     24  C   UNL     1      45.783 -19.766 -41.340  0.00  0.00    +0.037 C 
BRANCH  24  25
ATOM     25  C   UNL     1      46.958 -19.621 -40.370  0.00  0.00    +0.007 C 
BRANCH  25  26
ATOM     26  N   UNL     1      47.309 -18.212 -40.140  0.00  0.00    -0.302 N 
ATOM     27  C   UNL     1      46.491 -17.273 -40.914  0.00  0.00    -0.001 C 
ATOM     28  C   UNL     1      46.704 -15.944 -40.204  0.00  0.00    -0.039 C 
ATOM     29  C   UNL     1      47.163 -16.309 -38.797  0.00  0.00    -0.039 C 
ATOM     30  C   UNL     1      47.091 -17.825 -38.743  0.00  0.00    -0.001 C 
ATOM     31  H   UNL     1      48.289 -18.155 -40.417  0.00  0.00    +0.000 HD
ENDBRANCH  25  26
ENDBRANCH  24  25
ENDBRANCH  17  24
TORSDOF 5
ENDMDL
MODEL 16
REMARK VINA RESULT:    -6.369      2.975      8.354
REMARK INTER + INTRA:          -8.690
REMARK INTER:                  -8.073
REMARK INTRA:                  -0.617
REMARK UNBOUND:                -0.645
REMARK  Name = cpd313.pdb
REMARK  6 active torsions:
REMARK  status: ('A' for Active; 'I' for Inactive)
REMARK    1  A    between atoms: C_1  and  O_2
REMARK    2  A    between atoms: O_2  and  C_3
REMARK    3  A    between atoms: C_12  and  O_13
REMARK    4  A    between atoms: C_20  and  C_22
REMARK    5  A    between atoms: C_22  and  C_23
REMARK    6  A    between atoms: C_23  and  N_24
REMARK                            x       y       z     vdW  Elec       q    Type
REMARK                         _______ _______ _______ _____ _____    ______ ____
ROOT
ATOM      1  C   UNL     1      28.322 -31.187 -30.725  0.00  0.00    +0.162 A 
ATOM      2  C   UNL     1      29.050 -30.002 -30.831  0.00  0.00    -0.016 A 
ATOM      3  C   UNL     1      30.457 -30.024 -30.843  0.00  0.00    -0.053 A 
ATOM      4  C   UNL     1      31.183 -31.225 -30.735  0.00  0.00    -0.022 A 
ATOM      5  C   UNL     1      30.443 -32.399 -30.605  0.00  0.00    +0.016 A 
ATOM      6  C   UNL     1      29.047 -32.365 -30.611  0.00  0.00    +0.167 A 
ATOM      7  O   UNL     1      28.466 -33.610 -30.535  0.00  0.00    -0.484 OA
ATOM      8  C   UNL     1      29.546 -34.463 -30.091  0.00  0.00    +0.116 C 
ATOM      9  C   UNL     1      29.331 -35.876 -30.619  0.00  0.00    +0.015 C 
ATOM     10  C   UNL     1      29.484 -35.948 -32.135  0.00  0.00    +0.077 C 
ATOM     11  C   UNL     1      30.711 -35.247 -32.617  0.00  0.00    -0.059 C 
ATOM     12  C   UNL     1      31.354 -34.307 -31.906  0.00  0.00    -0.071 C 
ATOM     13  C   UNL     1      30.905 -33.825 -30.531  0.00  0.00    +0.056 C 
ATOM     14  C   UNL     1      31.987 -34.118 -29.464  0.00  0.00    -0.020 C 
ATOM     15  C   UNL     1      32.971 -32.982 -29.181  0.00  0.00    +0.016 C 
ATOM     16  N   UNL     1      33.444 -32.325 -30.391  0.00  0.00    -0.297 N 
ATOM     17  C   UNL     1      34.646 -32.620 -31.031  0.00  0.00    +0.217 C 
ATOM     18  O   UNL     1      35.065 -31.939 -31.967  0.00  0.00    -0.276 OA
ATOM     19  C   UNL     1      32.690 -31.165 -30.865  0.00  0.00    +0.040 C 
ENDROOT
BRANCH   1  21
ATOM     20  C   UNL     1      26.236 -30.388 -31.533  0.00  0.00    +0.079 C 
ATOM     21  O   UNL     1      26.962 -31.298 -30.719  0.00  0.00    -0.491 OA
ENDBRANCH   1  21
BRANCH  10  22
ATOM     22  O   UNL     1      29.596 -37.314 -32.520  0.00  0.00    -0.388 OA
ATOM     23  H   UNL     1      29.764 -37.858 -31.736  0.00  0.00    +0.000 HD
ENDBRANCH  10  22
BRANCH  17  24
ATOM     24  C   UNL     1      35.415 -33.833 -30.533  0.00  0.00    +0.037 C 
BRANCH  24  25
ATOM     25  C   UNL     1      35.387 -34.972 -31.555  0.00  0.00    +0.007 C 
BRANCH  25  26
ATOM     26  N   UNL     1      36.659 -35.710 -31.590  0.00  0.00    -0.302 N 
ATOM     27  C   UNL     1      37.832 -34.842 -31.735  0.00  0.00    -0.001 C 
ATOM     28  C   UNL     1      38.989 -35.731 -31.302  0.00  0.00    -0.039 C 
ATOM     29  C   UNL     1      38.359 -36.818 -30.438  0.00  0.00    -0.039 C 
ATOM     30  C   UNL     1      36.891 -36.437 -30.339  0.00  0.00    -0.001 C 
ATOM     31  H   UNL     1      36.561 -36.328 -32.395  0.00  0.00    +0.000 HD
ENDBRANCH  25  26
ENDBRANCH  24  25
ENDBRANCH  17  24
TORSDOF 5
ENDMDL
MODEL 17
REMARK VINA RESULT:    -6.366     16.844     19.234
REMARK INTER + INTRA:          -8.686
REMARK INTER:                  -8.089
REMARK INTRA:                  -0.598
REMARK UNBOUND:                -0.645
REMARK  Name = cpd313.pdb
REMARK  6 active torsions:
REMARK  status: ('A' for Active; 'I' for Inactive)
REMARK    1  A    between atoms: C_1  and  O_2
REMARK    2  A    between atoms: O_2  and  C_3
REMARK    3  A    between atoms: C_12  and  O_13
REMARK    4  A    between atoms: C_20  and  C_22
REMARK    5  A    between atoms: C_22  and  C_23
REMARK    6  A    between atoms: C_23  and  N_24
REMARK                            x       y       z     vdW  Elec       q    Type
REMARK                         _______ _______ _______ _____ _____    ______ ____
ROOT
ATOM      1  C   UNL     1      46.236 -21.171 -41.240  0.00  0.00    +0.162 A 
ATOM      2  C   UNL     1      45.067 -21.571 -41.887  0.00  0.00    -0.016 A 
ATOM      3  C   UNL     1      43.810 -21.368 -41.287  0.00  0.00    -0.053 A 
ATOM      4  C   UNL     1      43.680 -20.775 -40.017  0.00  0.00    -0.022 A 
ATOM      5  C   UNL     1      44.857 -20.402 -39.371  0.00  0.00    +0.016 A 
ATOM      6  C   UNL     1      46.097 -20.595 -39.984  0.00  0.00    +0.167 A 
ATOM      7  O   UNL     1      47.156 -20.120 -39.245  0.00  0.00    -0.484 OA
ATOM      8  C   UNL     1      46.595 -19.942 -37.924  0.00  0.00    +0.116 C 
ATOM      9  C   UNL     1      47.332 -18.818 -37.204  0.00  0.00    +0.015 C 
ATOM     10  C   UNL     1      47.060 -17.458 -37.842  0.00  0.00    +0.077 C 
ATOM     11  C   UNL     1      45.606 -17.232 -38.100  0.00  0.00    -0.059 C 
ATOM     12  C   UNL     1      44.707 -18.224 -38.190  0.00  0.00    -0.071 C 
ATOM     13  C   UNL     1      45.055 -19.702 -38.058  0.00  0.00    +0.056 C 
ATOM     14  C   UNL     1      44.323 -20.336 -36.851  0.00  0.00    -0.020 C 
ATOM     15  C   UNL     1      42.988 -21.013 -37.160  0.00  0.00    +0.016 C 
ATOM     16  N   UNL     1      42.152 -20.236 -38.064  0.00  0.00    -0.297 N 
ATOM     17  C   UNL     1      41.127 -19.385 -37.656  0.00  0.00    +0.217 C 
ATOM     18  O   UNL     1      40.359 -18.861 -38.464  0.00  0.00    -0.276 OA
ATOM     19  C   UNL     1      42.285 -20.498 -39.497  0.00  0.00    +0.040 C 
ENDROOT
BRANCH   1  21
ATOM     20  C   UNL     1      48.099 -22.587 -41.650  0.00  0.00    +0.079 C 
ATOM     21  O   UNL     1      47.506 -21.298 -41.722  0.00  0.00    -0.491 OA
ENDBRANCH   1  21
BRANCH  10  22
ATOM     22  O   UNL     1      47.497 -16.439 -36.950  0.00  0.00    -0.388 OA
ATOM     23  H   UNL     1      48.436 -16.570 -36.744  0.00  0.00    +0.000 HD
ENDBRANCH  10  22
BRANCH  17  24
ATOM     24  C   UNL     1      41.005 -19.114 -36.164  0.00  0.00    +0.037 C 
BRANCH  24  25
ATOM     25  C   UNL     1      39.833 -19.885 -35.550  0.00  0.00    +0.007 C 
BRANCH  25  26
ATOM     26  N   UNL     1      40.290 -20.919 -34.610  0.00  0.00    -0.302 N 
ATOM     27  C   UNL     1      41.350 -20.459 -33.707  0.00  0.00    -0.001 C 
ATOM     28  C   UNL     1      41.334 -21.488 -32.585  0.00  0.00    -0.039 C 
ATOM     29  C   UNL     1      39.948 -22.120 -32.638  0.00  0.00    -0.039 C 
ATOM     30  C   UNL     1      39.209 -21.350 -33.719  0.00  0.00    -0.001 C 
ATOM     31  H   UNL     1      40.627 -21.669 -35.214  0.00  0.00    +0.000 HD
ENDBRANCH  25  26
ENDBRANCH  24  25
ENDBRANCH  17  24
TORSDOF 5
ENDMDL
MODEL 18
REMARK VINA RESULT:    -6.246     16.581     18.908
REMARK INTER + INTRA:          -8.535
REMARK INTER:                  -7.517
REMARK INTRA:                  -1.018
REMARK UNBOUND:                -0.645
REMARK  Name = cpd313.pdb
REMARK  6 active torsions:
REMARK  status: ('A' for Active; 'I' for Inactive)
REMARK    1  A    between atoms: C_1  and  O_2
REMARK    2  A    between atoms: O_2  and  C_3
REMARK    3  A    between atoms: C_12  and  O_13
REMARK    4  A    between atoms: C_20  and  C_22
REMARK    5  A    between atoms: C_22  and  C_23
REMARK    6  A    between atoms: C_23  and  N_24
REMARK                            x       y       z     vdW  Elec       q    Type
REMARK                         _______ _______ _______ _____ _____    ______ ____
ROOT
ATOM      1  C   UNL     1      45.830 -20.459 -40.795  0.00  0.00    +0.162 A 
ATOM      2  C   UNL     1      44.877 -20.827 -41.744  0.00  0.00    -0.016 A 
ATOM      3  C   UNL     1      43.520 -20.944 -41.388  0.00  0.00    -0.053 A 
ATOM      4  C   UNL     1      43.073 -20.713 -40.073  0.00  0.00    -0.022 A 
ATOM      5  C   UNL     1      44.040 -20.370 -39.130  0.00  0.00    +0.016 A 
ATOM      6  C   UNL     1      45.381 -20.242 -39.500  0.00  0.00    +0.167 A 
ATOM      7  O   UNL     1      46.200 -19.840 -38.469  0.00  0.00    -0.484 OA
ATOM      8  C   UNL     1      45.400 -20.075 -37.288  0.00  0.00    +0.116 C 
ATOM      9  C   UNL     1      45.796 -19.086 -36.198  0.00  0.00    +0.015 C 
ATOM     10  C   UNL     1      45.406 -17.655 -36.556  0.00  0.00    +0.077 C 
ATOM     11  C   UNL     1      44.001 -17.557 -37.053  0.00  0.00    -0.059 C 
ATOM     12  C   UNL     1      43.316 -18.600 -37.548  0.00  0.00    -0.071 C 
ATOM     13  C   UNL     1      43.887 -20.007 -37.682  0.00  0.00    +0.056 C 
ATOM     14  C   UNL     1      43.081 -21.013 -36.827  0.00  0.00    -0.020 C 
ATOM     15  C   UNL     1      41.956 -21.753 -37.550  0.00  0.00    +0.016 C 
ATOM     16  N   UNL     1      41.165 -20.885 -38.410  0.00  0.00    -0.297 N 
ATOM     17  C   UNL     1      39.953 -20.302 -38.043  0.00  0.00    +0.217 C 
ATOM     18  O   UNL     1      39.256 -19.692 -38.855  0.00  0.00    -0.276 OA
ATOM     19  C   UNL     1      41.584 -20.756 -39.805  0.00  0.00    +0.040 C 
ENDROOT
BRANCH   1  21
ATOM     20  C   UNL     1      47.832 -21.329 -41.734  0.00  0.00    +0.079 C 
ATOM     21  O   UNL     1      47.167 -20.297 -41.019  0.00  0.00    -0.491 OA
ENDBRANCH   1  21
BRANCH  10  22
ATOM     22  O   UNL     1      45.501 -16.848 -35.388  0.00  0.00    -0.388 OA
ATOM     23  H   UNL     1      44.611 -16.598 -35.093  0.00  0.00    +0.000 HD
ENDBRANCH  10  22
BRANCH  17  24
ATOM     24  C   UNL     1      39.533 -20.436 -36.588  0.00  0.00    +0.037 C 
BRANCH  24  25
ATOM     25  C   UNL     1      39.890 -19.183 -35.784  0.00  0.00    +0.007 C 
BRANCH  25  26
ATOM     26  N   UNL     1      40.291 -19.510 -34.407  0.00  0.00    -0.302 N 
ATOM     27  C   UNL     1      40.401 -20.951 -34.159  0.00  0.00    -0.001 C 
ATOM     28  C   UNL     1      41.232 -21.031 -32.886  0.00  0.00    -0.039 C 
ATOM     29  C   UNL     1      41.982 -19.707 -32.812  0.00  0.00    -0.039 C 
ATOM     30  C   UNL     1      41.621 -18.980 -34.096  0.00  0.00    -0.001 C 
ATOM     31  H   UNL     1      39.557 -19.097 -33.833  0.00  0.00    +0.000 HD
ENDBRANCH  25  26
ENDBRANCH  24  25
ENDBRANCH  17  24
TORSDOF 5
ENDMDL
MODEL 19
REMARK VINA RESULT:    -6.216     14.732     18.024
REMARK INTER + INTRA:          -8.496
REMARK INTER:                  -8.033
REMARK INTRA:                  -0.463
REMARK UNBOUND:                -0.645
REMARK  Name = cpd313.pdb
REMARK  6 active torsions:
REMARK  status: ('A' for Active; 'I' for Inactive)
REMARK    1  A    between atoms: C_1  and  O_2
REMARK    2  A    between atoms: O_2  and  C_3
REMARK    3  A    between atoms: C_12  and  O_13
REMARK    4  A    between atoms: C_20  and  C_22
REMARK    5  A    between atoms: C_22  and  C_23
REMARK    6  A    between atoms: C_23  and  N_24
REMARK                            x       y       z     vdW  Elec       q    Type
REMARK                         _______ _______ _______ _____ _____    ______ ____
ROOT
ATOM      1  C   UNL     1      37.214 -19.205 -34.249  0.00  0.00    +0.162 A 
ATOM      2  C   UNL     1      36.678 -18.806 -35.473  0.00  0.00    -0.016 A 
ATOM      3  C   UNL     1      37.388 -19.015 -36.669  0.00  0.00    -0.053 A 
ATOM      4  C   UNL     1      38.662 -19.615 -36.682  0.00  0.00    -0.022 A 
ATOM      5  C   UNL     1      39.196 -19.987 -35.450  0.00  0.00    +0.016 A 
ATOM      6  C   UNL     1      38.474 -19.788 -34.272  0.00  0.00    +0.167 A 
ATOM      7  O   UNL     1      39.111 -20.263 -33.148  0.00  0.00    -0.484 OA
ATOM      8  C   UNL     1      40.477 -20.449 -33.586  0.00  0.00    +0.116 C 
ATOM      9  C   UNL     1      41.121 -21.575 -32.784  0.00  0.00    +0.015 C 
ATOM     10  C   UNL     1      40.504 -22.932 -33.110  0.00  0.00    +0.077 C 
ATOM     11  C   UNL     1      40.378 -23.161 -34.580  0.00  0.00    -0.059 C 
ATOM     12  C   UNL     1      40.376 -22.171 -35.486  0.00  0.00    -0.071 C 
ATOM     13  C   UNL     1      40.482 -20.692 -35.132  0.00  0.00    +0.056 C 
ATOM     14  C   UNL     1      41.754 -20.067 -35.752  0.00  0.00    -0.020 C 
ATOM     15  C   UNL     1      41.571 -19.392 -37.112  0.00  0.00    +0.016 C 
ATOM     16  N   UNL     1      40.743 -20.167 -38.025  0.00  0.00    -0.297 N 
ATOM     17  C   UNL     1      41.239 -21.023 -39.006  0.00  0.00    +0.217 C 
ATOM     18  O   UNL     1      40.502 -21.545 -39.843  0.00  0.00    -0.276 OA
ATOM     19  C   UNL     1      39.306 -19.898 -38.023  0.00  0.00    +0.040 C 
ENDROOT
BRANCH   1  21
ATOM     20  C   UNL     1      35.835 -17.907 -32.814  0.00  0.00    +0.079 C 
ATOM     21  O   UNL     1      36.618 -19.073 -33.028  0.00  0.00    -0.491 OA
ENDBRANCH   1  21
BRANCH  10  22
ATOM     22  O   UNL     1      41.347 -23.954 -32.590  0.00  0.00    -0.388 OA
ATOM     23  H   UNL     1      41.236 -24.763 -33.115  0.00  0.00    +0.000 HD
ENDBRANCH  10  22
BRANCH  17  24
ATOM     24  C   UNL     1      42.734 -21.301 -38.991  0.00  0.00    +0.037 C 
BRANCH  24  25
ATOM     25  C   UNL     1      43.357 -21.085 -40.373  0.00  0.00    +0.007 C 
BRANCH  25  26
ATOM     26  N   UNL     1      44.822 -20.974 -40.303  0.00  0.00    -0.302 N 
ATOM     27  C   UNL     1      45.351 -21.092 -38.940  0.00  0.00    -0.001 C 
ATOM     28  C   UNL     1      46.826 -21.399 -39.155  0.00  0.00    -0.039 C 
ATOM     29  C   UNL     1      46.917 -21.969 -40.566  0.00  0.00    -0.039 C 
ATOM     30  C   UNL     1      45.478 -22.053 -41.046  0.00  0.00    -0.001 C 
ATOM     31  H   UNL     1      45.017 -20.051 -40.690  0.00  0.00    +0.000 HD
ENDBRANCH  25  26
ENDBRANCH  24  25
ENDBRANCH  17  24
TORSDOF 5
ENDMDL
MODEL 20
REMARK VINA RESULT:    -5.951     16.375     18.770
REMARK INTER + INTRA:          -8.162
REMARK INTER:                  -7.407
REMARK INTRA:                  -0.755
REMARK UNBOUND:                -0.645
REMARK  Name = cpd313.pdb
REMARK  6 active torsions:
REMARK  status: ('A' for Active; 'I' for Inactive)
REMARK    1  A    between atoms: C_1  and  O_2
REMARK    2  A    between atoms: O_2  and  C_3
REMARK    3  A    between atoms: C_12  and  O_13
REMARK    4  A    between atoms: C_20  and  C_22
REMARK    5  A    between atoms: C_22  and  C_23
REMARK    6  A    between atoms: C_23  and  N_24
REMARK                            x       y       z     vdW  Elec       q    Type
REMARK                         _______ _______ _______ _____ _____    ______ ____
ROOT
ATOM      1  C   UNL     1      44.447 -20.670 -40.720  0.00  0.00    +0.162 A 
ATOM      2  C   UNL     1      43.125 -21.095 -40.849  0.00  0.00    -0.016 A 
ATOM      3  C   UNL     1      42.234 -21.004 -39.764  0.00  0.00    -0.053 A 
ATOM      4  C   UNL     1      42.635 -20.501 -38.512  0.00  0.00    -0.022 A 
ATOM      5  C   UNL     1      43.965 -20.104 -38.389  0.00  0.00    +0.016 A 
ATOM      6  C   UNL     1      44.835 -20.185 -39.479  0.00  0.00    +0.167 A 
ATOM      7  O   UNL     1      46.096 -19.698 -39.214  0.00  0.00    -0.484 OA
ATOM      8  C   UNL     1      46.140 -19.638 -37.770  0.00  0.00    +0.116 C 
ATOM      9  C   UNL     1      47.082 -18.521 -37.335  0.00  0.00    +0.015 C 
ATOM     10  C   UNL     1      46.532 -17.141 -37.685  0.00  0.00    +0.077 C 
ATOM     11  C   UNL     1      45.100 -16.983 -37.292  0.00  0.00    -0.059 C 
ATOM     12  C   UNL     1      44.273 -18.018 -37.079  0.00  0.00    -0.071 C 
ATOM     13  C   UNL     1      44.681 -19.479 -37.227  0.00  0.00    +0.056 C 
ATOM     14  C   UNL     1      44.543 -20.230 -35.882  0.00  0.00    -0.020 C 
ATOM     15  C   UNL     1      43.219 -20.962 -35.658  0.00  0.00    +0.016 C 
ATOM     16  N   UNL     1      42.060 -20.178 -36.061  0.00  0.00    -0.297 N 
ATOM     17  C   UNL     1      41.282 -19.415 -35.193  0.00  0.00    +0.217 C 
ATOM     18  O   UNL     1      40.232 -18.886 -35.559  0.00  0.00    -0.276 OA
ATOM     19  C   UNL     1      41.584 -20.339 -37.435  0.00  0.00    +0.040 C 
ENDROOT
BRANCH   1  21
ATOM     20  C   UNL     1      45.224 -21.634 -42.748  0.00  0.00    +0.079 C 
ATOM     21  O   UNL     1      45.398 -20.692 -41.698  0.00  0.00    -0.491 OA
ENDBRANCH   1  21
BRANCH  10  22
ATOM     22  O   UNL     1      47.279 -16.158 -36.978  0.00  0.00    -0.388 OA
ATOM     23  H   UNL     1      46.857 -15.291 -37.087  0.00  0.00    +0.000 HD
ENDBRANCH  10  22
BRANCH  17  24
ATOM     24  C   UNL     1      41.794 -19.249 -33.771  0.00  0.00    +0.037 C 
BRANCH  24  25
ATOM     25  C   UNL     1      41.178 -20.287 -32.829  0.00  0.00    +0.007 C 
BRANCH  25  26
ATOM     26  N   UNL     1      40.078 -21.024 -33.468  0.00  0.00    -0.302 N 
ATOM     27  C   UNL     1      40.285 -22.476 -33.492  0.00  0.00    -0.001 C 
ATOM     28  C   UNL     1      38.893 -23.030 -33.761  0.00  0.00    -0.039 C 
ATOM     29  C   UNL     1      37.932 -21.929 -33.329  0.00  0.00    -0.039 C 
ATOM     30  C   UNL     1      38.818 -20.844 -32.742  0.00  0.00    -0.001 C 
ATOM     31  H   UNL     1      40.047 -20.646 -34.415  0.00  0.00    +0.000 HD
ENDBRANCH  25  26
ENDBRANCH  24  25
ENDBRANCH  17  24
TORSDOF 5
ENDMDL
