REMARK  Name = cpd313.pdb
REMARK  6 active torsions:
REMARK  status: ('A' for Active; 'I' for Inactive)
REMARK    1  A    between atoms: C_1  and  O_2
REMARK    2  A    between atoms: O_2  and  C_3
REMARK    3  A    between atoms: C_12  and  O_13
REMARK    4  A    between atoms: C_20  and  C_22
REMARK    5  A    between atoms: C_22  and  C_23
REMARK    6  A    between atoms: C_23  and  N_24
REMARK                            x       y       z     vdW  Elec       q    Type
REMARK                         _______ _______ _______ _____ _____    ______ ____
ROOT
ATOM      1  C   UNL     1       4.136  -1.489   0.081  0.00  0.00    +0.162 A 
ATOM      2  C   UNL     1       4.189  -0.110   0.282  0.00  0.00    -0.016 A 
ATOM      3  C   UNL     1       3.012   0.661   0.274  0.00  0.00    -0.053 A 
ATOM      4  C   UNL     1       1.747   0.085   0.051  0.00  0.00    -0.022 A 
ATOM      5  C   UNL     1       1.711  -1.290  -0.173  0.00  0.00    +0.016 A 
ATOM      6  C   UNL     1       2.885  -2.046  -0.147  0.00  0.00    +0.167 A 
ATOM      7  O   UNL     1       2.675  -3.395  -0.325  0.00  0.00    -0.484 OA
ATOM      8  C   UNL     1       1.332  -3.462  -0.857  0.00  0.00    +0.116 C 
ATOM      9  C   UNL     1       0.689  -4.784  -0.453  0.00  0.00    +0.015 C 
ATOM     10  C   UNL     1       0.431  -4.858   1.049  0.00  0.00    +0.077 C 
ATOM     11  C   UNL     1      -0.222  -3.622   1.575  0.00  0.00    -0.059 C 
ATOM     12  C   UNL     1      -0.186  -2.439   0.942  0.00  0.00    -0.071 C 
ATOM     13  C   UNL     1       0.537  -2.202  -0.379  0.00  0.00    +0.056 C 
ATOM     14  C   UNL     1      -0.457  -1.766  -1.481  0.00  0.00    -0.020 C 
ATOM     15  C   UNL     1      -0.620  -0.258  -1.675  0.00  0.00    +0.016 C 
ATOM     16  N   UNL     1      -0.717   0.470  -0.418  0.00  0.00    -0.297 N 
ATOM     17  C   UNL     1      -1.915   0.859   0.178  0.00  0.00    +0.217 C 
ATOM     18  O   UNL     1      -1.938   1.594   1.166  0.00  0.00    -0.276 OA
ATOM     19  C   UNL     1       0.526   0.972   0.167  0.00  0.00    +0.040 C 
ENDROOT
BRANCH   1  21
ATOM     20  C   UNL     1       6.475  -1.788   0.371  0.00  0.00    +0.079 C 
ATOM     21  O   UNL     1       5.200  -2.344   0.082  0.00  0.00    -0.491 OA
ENDBRANCH   1  21
BRANCH  10  22
ATOM     22  O   UNL     1      -0.447  -5.947   1.310  0.00  0.00    -0.388 OA
ATOM     23  H   UNL     1      -1.291  -5.798   0.856  0.00  0.00    +0.000 HD
ENDBRANCH  10  22
BRANCH  17  24
ATOM     24  C   UNL     1      -3.199   0.323  -0.435  0.00  0.00    +0.037 C 
BRANCH  24  25
ATOM     25  C   UNL     1      -4.424   0.724   0.391  0.00  0.00    +0.007 C 
BRANCH  25  26
ATOM     26  N   UNL     1      -5.675   0.242  -0.213  0.00  0.00    -0.302 N 
ATOM     27  C   UNL     1      -5.847  -1.211  -0.116  0.00  0.00    -0.001 C 
ATOM     28  C   UNL     1      -7.334  -1.412  -0.372  0.00  0.00    -0.039 C 
ATOM     29  C   UNL     1      -7.982  -0.070  -0.052  0.00  0.00    -0.039 C 
ATOM     30  C   UNL     1      -6.848   0.798   0.467  0.00  0.00    -0.001 C 
ATOM     31  H   UNL     1      -5.606   0.536  -1.187  0.00  0.00    +0.000 HD
ENDBRANCH  25  26
ENDBRANCH  24  25
ENDBRANCH  17  24
TORSDOF 5
