@<TRIPOS>MOLECULE
*****
 29 33 0 0 0
SMALL
GASTEIGER

@<TRIPOS>ATOM
      1 C           4.0519   -0.9935    0.0000 C.3     1  UNL1        0.2526
      2 O           3.2923   -1.5454    0.0000 O.3     1  UNL1       -0.4684
      3 C           2.4791   -1.0759    0.0000 C.ar    1  UNL1        0.1721
      4 C           2.4790   -0.1370    0.0000 C.ar    1  UNL1        0.0398
      5 C           1.6654    0.3328    0.0000 C.ar    1  UNL1        0.0004
      6 C           0.8522   -0.1366    0.0000 C.ar    1  UNL1       -0.0028
      7 C           0.8520   -1.0760    0.0000 C.ar    1  UNL1        0.0191
      8 C           1.6657   -1.5458    0.0000 C.ar    1  UNL1        0.1682
      9 O           1.6657   -2.4847    0.0000 O.3     1  UNL1       -0.4757
     10 C           0.8523   -2.9546    0.0000 C.3     1  UNL1        0.1762
     11 C           0.8521   -3.8940    0.0000 C.3     1  UNL1        0.0816
     12 C           0.0389   -4.3634    0.0000 C.3     1  UNL1        0.1773
     13 O           0.0389   -5.3265    0.0000 O.3     1  UNL1       -0.2182
     14 C          -0.7747   -3.8936    0.0000 C.2     1  UNL1        0.0021
     15 C          -0.7748   -2.9547    0.0000 C.2     1  UNL1       -0.0211
     16 C           0.0386   -2.4848    0.0000 C.3     1  UNL1        0.0783
     17 C          -0.7154   -2.0650    0.0000 C.3     1  UNL1        0.0332
     18 C          -1.0232   -1.2586    0.0000 C.3     1  UNL1        0.0945
     19 N          -0.7406   -0.4431    0.0000 N.am    1  UNL1       -0.2754
     20 C          -1.5050    0.1783    0.0000 C.2     1  UNL1        0.2273
     21 O          -1.3491    1.1510    0.0000 O.2     1  UNL1       -0.2748
     22 C          -2.4254   -0.1730    0.0000 C.3     1  UNL1        0.1026
     23 C          -3.1898    0.4484    0.0000 C.3     1  UNL1        0.0817
     24 N          -4.1101    0.0972    0.0000 N.3     1  UNL1       -0.2722
     25 C          -4.3669   -0.8539    0.0000 C.3     1  UNL1        0.0721
     26 C          -5.3507   -0.9036    0.0000 C.3     1  UNL1        0.0188
     27 C          -5.7020    0.0168    0.0000 C.3     1  UNL1        0.0188
     28 C          -4.9353    0.6353    0.0000 C.3     1  UNL1        0.0721
     29 C           0.0000    0.0000    0.0000 C.3     1  UNL1        0.1199
@<TRIPOS>BOND
     1     1     2    1
     2     2     3    1
     3     3     4   ar
     4     4     5   ar
     5     5     6   ar
     6     6     7   ar
     7     7     8   ar
     8     3     8   ar
     9     8     9    1
    10     9    10    1
    11    10    11    1
    12    11    12    1
    13    12    13    1
    14    12    14    1
    15    14    15    2
    16    15    16    1
    17     7    16    1
    18    10    16    1
    19    16    17    1
    20    17    18    1
    21    18    19    1
    22    19    20   am
    23    20    21    2
    24    20    22    1
    25    22    23    1
    26    23    24    1
    27    24    25    1
    28    25    26    1
    29    26    27    1
    30    27    28    1
    31    24    28    1
    32    19    29    1
    33     6    29    1
