REMARK  Name = cpd321.pdb
REMARK  9 active torsions:
REMARK  status: ('A' for Active; 'I' for Inactive)
REMARK    1  A    between atoms: C_1  and  O_2
REMARK    2  A    between atoms: O_2  and  C_3
REMARK    3  A    between atoms: C_12  and  O_13
REMARK    4  A    between atoms: N_19  and  C_20
REMARK    5  A    between atoms: C_20  and  C_21
REMARK    6  A    between atoms: C_21  and  C_22
REMARK    7  A    between atoms: C_22  and  N_23
REMARK    8  A    between atoms: N_23  and  C_24
REMARK    9  A    between atoms: N_23  and  C_25
REMARK                            x       y       z     vdW  Elec       q    Type
REMARK                         _______ _______ _______ _____ _____    ______ ____
ROOT
ATOM      1  C   UNL     1      -0.844   4.151  -0.102  0.00  0.00    +0.162 A 
ATOM      2  C   UNL     1      -1.878   3.415   0.474  0.00  0.00    -0.016 A 
ATOM      3  C   UNL     1      -1.703   2.052   0.772  0.00  0.00    -0.053 A 
ATOM      4  C   UNL     1      -0.482   1.394   0.528  0.00  0.00    -0.026 A 
ATOM      5  C   UNL     1       0.577   2.174   0.069  0.00  0.00    +0.016 A 
ATOM      6  C   UNL     1       0.367   3.500  -0.298  0.00  0.00    +0.167 A 
ATOM      7  O   UNL     1       1.434   4.068  -0.953  0.00  0.00    -0.484 OA
ATOM      8  C   UNL     1       2.536   3.146  -0.746  0.00  0.00    +0.116 C 
ATOM      9  C   UNL     1       3.468   3.848   0.253  0.00  0.00    +0.015 C 
ATOM     10  C   UNL     1       4.544   2.922   0.789  0.00  0.00    +0.077 C 
ATOM     11  C   UNL     1       3.947   1.657   1.299  0.00  0.00    -0.059 C 
ATOM     12  C   UNL     1       2.776   1.168   0.862  0.00  0.00    -0.071 C 
ATOM     13  C   UNL     1       1.970   1.756  -0.290  0.00  0.00    +0.056 C 
ATOM     14  C   UNL     1       1.899   0.764  -1.482  0.00  0.00    -0.023 C 
ATOM     15  C   UNL     1       0.845  -0.362  -1.382  0.00  0.00    +0.000 C 
ATOM     16  N   UNL     1       0.656  -0.840  -0.008  0.00  0.00    -0.298 N 
ATOM     17  C   UNL     1      -0.419  -0.111   0.705  0.00  0.00    +0.024 C 
ATOM     18  H   UNL     1       1.540  -0.645   0.462  0.00  0.00    +0.000 HD
ENDROOT
BRANCH   1  20
ATOM     19  C   UNL     1      -2.158   6.118  -0.338  0.00  0.00    +0.079 C 
ATOM     20  O   UNL     1      -0.910   5.457  -0.494  0.00  0.00    -0.491 OA
ENDBRANCH   1  20
BRANCH  10  21
ATOM     21  O   UNL     1       5.471   2.579  -0.229  0.00  0.00    -0.388 OA
ATOM     22  H   UNL     1       5.010   2.106  -0.940  0.00  0.00    +0.000 HD
ENDBRANCH  10  21
BRANCH  16  23
ATOM     23  C   UNL     1       0.417  -2.290   0.069  0.00  0.00    +0.000 C 
BRANCH  23  24
ATOM     24  C   UNL     1       1.696  -3.103  -0.185  0.00  0.00    -0.027 C 
BRANCH  24  25
ATOM     25  C   UNL     1       1.435  -4.601   0.036  0.00  0.00    -0.001 C 
BRANCH  25  26
ATOM     26  N   UNL     1       2.568  -5.458  -0.357  0.00  0.00    -0.308 N 
ATOM     27  C   UNL     1       2.176  -6.868  -0.291  0.00  0.00    -0.013 C 
ATOM     28  C   UNL     1       3.749  -5.234   0.480  0.00  0.00    -0.013 C 
ATOM     29  H   UNL     1       2.817  -5.211  -1.315  0.00  0.00    +0.000 HD
ENDBRANCH  25  26
ENDBRANCH  24  25
ENDBRANCH  23  24
ENDBRANCH  16  23
TORSDOF 6
