@<TRIPOS>MOLECULE
*****
 26 29 0 0 0
SMALL
GASTEIGER

@<TRIPOS>ATOM
      1 C          -1.1009    4.0153    0.0000 C.3     1  UNL1        0.2526
      2 O          -0.2509    3.6209    0.0000 O.3     1  UNL1       -0.4684
      3 C          -0.2654    2.6839    0.0000 C.ar    1  UNL1        0.1721
      4 C          -1.0841    2.2280    0.0000 C.ar    1  UNL1        0.0397
      5 C          -1.0987    1.2905    0.0000 C.ar    1  UNL1        0.0001
      6 C          -0.2946    0.8094    0.0000 C.ar    1  UNL1       -0.0066
      7 C           0.5246    1.2653    0.0000 C.ar    1  UNL1        0.0187
      8 C           0.5391    2.2028    0.0000 C.ar    1  UNL1        0.1682
      9 O           1.3578    2.6587    0.0000 O.3     1  UNL1       -0.4757
     10 C           2.1624    2.1776    0.0000 C.3     1  UNL1        0.1762
     11 C           2.9815    2.6335    0.0000 C.3     1  UNL1        0.0816
     12 C           3.7856    2.1523    0.0000 C.3     1  UNL1        0.1773
     13 O           4.6227    2.6184    0.0000 O.3     1  UNL1       -0.2182
     14 C           3.7711    1.2148    0.0000 C.2     1  UNL1        0.0021
     15 C           2.9524    0.7589    0.0000 C.2     1  UNL1       -0.0211
     16 C           2.1478    1.2400    0.0000 C.3     1  UNL1        0.0780
     17 C           2.1478    0.3787    0.0000 C.3     1  UNL1        0.0290
     18 C           1.5942   -0.2811    0.0000 C.3     1  UNL1        0.0732
     19 N           0.7459   -0.4307    0.0000 N.3     1  UNL1       -0.2689
     20 C           0.5752   -1.3988    0.0000 C.3     1  UNL1        0.0738
     21 C           1.3283   -2.0308    0.0000 C.3     1  UNL1        0.0347
     22 C           1.1576   -2.9989    0.0000 C.3     1  UNL1        0.0736
     23 N           1.9107   -3.6309    0.0000 N.3     1  UNL1       -0.2703
     24 C           1.7400   -4.5990    0.0000 C.3     1  UNL1        0.0897
     25 C           2.8345   -3.2946    0.0000 C.3     1  UNL1        0.0897
     26 C           0.0000   -0.0000    0.0000 C.3     1  UNL1        0.0989
@<TRIPOS>BOND
     1     1     2    1
     2     2     3    1
     3     3     4   ar
     4     4     5   ar
     5     5     6   ar
     6     6     7   ar
     7     7     8   ar
     8     3     8   ar
     9     8     9    1
    10     9    10    1
    11    10    11    1
    12    11    12    1
    13    12    13    1
    14    12    14    1
    15    14    15    2
    16    15    16    1
    17     7    16    1
    18    10    16    1
    19    16    17    1
    20    17    18    1
    21    18    19    1
    22    19    20    1
    23    20    21    1
    24    21    22    1
    25    22    23    1
    26    23    24    1
    27    23    25    1
    28    19    26    1
    29     6    26    1
