MODEL 1
REMARK VINA RESULT:    -7.438      0.000      0.000
REMARK INTER + INTRA:         -10.326
REMARK INTER:                  -9.829
REMARK INTRA:                  -0.496
REMARK UNBOUND:                -0.496
REMARK  Name = cpd321.pdb
REMARK  9 active torsions:
REMARK  status: ('A' for Active; 'I' for Inactive)
REMARK    1  A    between atoms: C_1  and  O_2
REMARK    2  A    between atoms: O_2  and  C_3
REMARK    3  A    between atoms: C_12  and  O_13
REMARK    4  A    between atoms: N_19  and  C_20
REMARK    5  A    between atoms: C_20  and  C_21
REMARK    6  A    between atoms: C_21  and  C_22
REMARK    7  A    between atoms: C_22  and  N_23
REMARK    8  A    between atoms: N_23  and  C_24
REMARK    9  A    between atoms: N_23  and  C_25
REMARK                            x       y       z     vdW  Elec       q    Type
REMARK                         _______ _______ _______ _____ _____    ______ ____
ROOT
ATOM      1  C   UNL     1      38.911 -34.723 -32.006  0.00  0.00    +0.162 A 
ATOM      2  C   UNL     1      38.459 -33.405 -32.029  0.00  0.00    -0.016 A 
ATOM      3  C   UNL     1      37.202 -33.073 -31.493  0.00  0.00    -0.053 A 
ATOM      4  C   UNL     1      36.375 -34.043 -30.896  0.00  0.00    -0.026 A 
ATOM      5  C   UNL     1      36.895 -35.329 -30.770  0.00  0.00    +0.016 A 
ATOM      6  C   UNL     1      38.103 -35.661 -31.376  0.00  0.00    +0.167 A 
ATOM      7  O   UNL     1      38.370 -37.010 -31.374  0.00  0.00    -0.484 OA
ATOM      8  C   UNL     1      37.414 -37.581 -30.443  0.00  0.00    +0.116 C 
ATOM      9  C   UNL     1      38.236 -37.963 -29.203  0.00  0.00    +0.015 C 
ATOM     10  C   UNL     1      37.361 -38.336 -28.021  0.00  0.00    +0.077 C 
ATOM     11  C   UNL     1      36.335 -37.285 -27.771  0.00  0.00    -0.059 C 
ATOM     12  C   UNL     1      35.884 -36.456 -28.725  0.00  0.00    -0.071 C 
ATOM     13  C   UNL     1      36.251 -36.556 -30.201  0.00  0.00    +0.056 C 
ATOM     14  C   UNL     1      35.008 -36.908 -31.061  0.00  0.00    -0.023 C 
ATOM     15  C   UNL     1      34.065 -35.739 -31.423  0.00  0.00    +0.000 C 
ATOM     16  N   UNL     1      33.967 -34.739 -30.355  0.00  0.00    -0.298 N 
ATOM     17  C   UNL     1      34.963 -33.652 -30.501  0.00  0.00    +0.024 C 
ATOM     18  H   UNL     1      34.175 -35.249 -29.497  0.00  0.00    +0.000 HD
ENDROOT
BRANCH   1  20
ATOM     19  C   UNL     1      41.262 -34.999 -31.784  0.00  0.00    +0.079 C 
ATOM     20  O   UNL     1      40.078 -35.181 -32.547  0.00  0.00    -0.491 OA
ENDBRANCH   1  20
BRANCH  10  21
ATOM     21  O   UNL     1      36.676 -39.555 -28.261  0.00  0.00    -0.388 OA
ATOM     22  H   UNL     1      37.140 -40.280 -27.813  0.00  0.00    +0.000 HD
ENDBRANCH  10  21
BRANCH  16  23
ATOM     23  C   UNL     1      32.617 -34.169 -30.223  0.00  0.00    +0.000 C 
BRANCH  23  24
ATOM     24  C   UNL     1      32.636 -32.778 -29.569  0.00  0.00    -0.027 C 
BRANCH  24  25
ATOM     25  C   UNL     1      31.768 -31.794 -30.369  0.00  0.00    -0.001 C 
BRANCH  25  26
ATOM     26  N   UNL     1      30.516 -31.425 -29.684  0.00  0.00    -0.308 N 
ATOM     27  C   UNL     1      30.675 -31.572 -28.235  0.00  0.00    -0.013 C 
ATOM     28  C   UNL     1      29.378 -32.227 -30.140  0.00  0.00    -0.013 C 
ATOM     29  H   UNL     1      30.320 -30.451 -29.915  0.00  0.00    +0.000 HD
ENDBRANCH  25  26
ENDBRANCH  24  25
ENDBRANCH  23  24
ENDBRANCH  16  23
TORSDOF 6
ENDMDL
MODEL 2
REMARK VINA RESULT:    -6.654     17.163     20.103
REMARK INTER + INTRA:          -9.290
REMARK INTER:                  -8.756
REMARK INTRA:                  -0.534
REMARK UNBOUND:                -0.496
REMARK  Name = cpd321.pdb
REMARK  9 active torsions:
REMARK  status: ('A' for Active; 'I' for Inactive)
REMARK    1  A    between atoms: C_1  and  O_2
REMARK    2  A    between atoms: O_2  and  C_3
REMARK    3  A    between atoms: C_12  and  O_13
REMARK    4  A    between atoms: N_19  and  C_20
REMARK    5  A    between atoms: C_20  and  C_21
REMARK    6  A    between atoms: C_21  and  C_22
REMARK    7  A    between atoms: C_22  and  N_23
REMARK    8  A    between atoms: N_23  and  C_24
REMARK    9  A    between atoms: N_23  and  C_25
REMARK                            x       y       z     vdW  Elec       q    Type
REMARK                         _______ _______ _______ _____ _____    ______ ____
ROOT
ATOM      1  C   UNL     1      46.530 -17.387 -39.827  0.00  0.00    +0.162 A 
ATOM      2  C   UNL     1      45.711 -17.232 -38.710  0.00  0.00    -0.016 A 
ATOM      3  C   UNL     1      44.815 -18.248 -38.336  0.00  0.00    -0.053 A 
ATOM      4  C   UNL     1      44.732 -19.459 -39.051  0.00  0.00    -0.026 A 
ATOM      5  C   UNL     1      45.643 -19.646 -40.088  0.00  0.00    +0.016 A 
ATOM      6  C   UNL     1      46.467 -18.601 -40.498  0.00  0.00    +0.167 A 
ATOM      7  O   UNL     1      47.134 -18.852 -41.674  0.00  0.00    -0.484 OA
ATOM      8  C   UNL     1      46.966 -20.275 -41.905  0.00  0.00    +0.116 C 
ATOM      9  C   UNL     1      48.342 -20.896 -41.620  0.00  0.00    +0.015 C 
ATOM     10  C   UNL     1      48.291 -22.411 -41.556  0.00  0.00    +0.077 C 
ATOM     11  C   UNL     1      47.216 -22.866 -40.632  0.00  0.00    -0.059 C 
ATOM     12  C   UNL     1      46.130 -22.130 -40.350  0.00  0.00    -0.071 C 
ATOM     13  C   UNL     1      45.783 -20.807 -41.023  0.00  0.00    +0.056 C 
ATOM     14  C   UNL     1      44.479 -20.933 -41.856  0.00  0.00    -0.023 C 
ATOM     15  C   UNL     1      43.148 -20.831 -41.077  0.00  0.00    +0.000 C 
ATOM     16  N   UNL     1      43.231 -21.421 -39.736  0.00  0.00    -0.298 N 
ATOM     17  C   UNL     1      43.624 -20.434 -38.703  0.00  0.00    +0.024 C 
ATOM     18  H   UNL     1      43.967 -22.123 -39.803  0.00  0.00    +0.000 HD
ENDROOT
BRANCH   1  20
ATOM     19  C   UNL     1      46.842 -15.195 -40.694  0.00  0.00    +0.079 C 
ATOM     20  O   UNL     1      47.391 -16.453 -40.327  0.00  0.00    -0.491 OA
ENDBRANCH   1  20
BRANCH  10  21
ATOM     21  O   UNL     1      48.020 -22.963 -42.835  0.00  0.00    -0.388 OA
ATOM     22  H   UNL     1      47.730 -22.259 -43.436  0.00  0.00    +0.000 HD
ENDBRANCH  10  21
BRANCH  16  23
ATOM     23  C   UNL     1      41.993 -22.106 -39.332  0.00  0.00    +0.000 C 
BRANCH  23  24
ATOM     24  C   UNL     1      41.327 -21.435 -38.121  0.00  0.00    -0.027 C 
BRANCH  24  25
ATOM     25  C   UNL     1      40.719 -22.492 -37.186  0.00  0.00    -0.001 C 
BRANCH  25  26
ATOM     26  N   UNL     1      41.288 -22.470 -35.826  0.00  0.00    -0.308 N 
ATOM     27  C   UNL     1      40.271 -22.872 -34.851  0.00  0.00    -0.013 C 
ATOM     28  C   UNL     1      41.820 -21.152 -35.470  0.00  0.00    -0.013 C 
ATOM     29  H   UNL     1      42.064 -23.131 -35.812  0.00  0.00    +0.000 HD
ENDBRANCH  25  26
ENDBRANCH  24  25
ENDBRANCH  23  24
ENDBRANCH  16  23
TORSDOF 6
ENDMDL
MODEL 3
REMARK VINA RESULT:    -6.576      2.200      3.484
REMARK INTER + INTRA:          -9.187
REMARK INTER:                  -8.515
REMARK INTRA:                  -0.672
REMARK UNBOUND:                -0.496
REMARK  Name = cpd321.pdb
REMARK  9 active torsions:
REMARK  status: ('A' for Active; 'I' for Inactive)
REMARK    1  A    between atoms: C_1  and  O_2
REMARK    2  A    between atoms: O_2  and  C_3
REMARK    3  A    between atoms: C_12  and  O_13
REMARK    4  A    between atoms: N_19  and  C_20
REMARK    5  A    between atoms: C_20  and  C_21
REMARK    6  A    between atoms: C_21  and  C_22
REMARK    7  A    between atoms: C_22  and  N_23
REMARK    8  A    between atoms: N_23  and  C_24
REMARK    9  A    between atoms: N_23  and  C_25
REMARK                            x       y       z     vdW  Elec       q    Type
REMARK                         _______ _______ _______ _____ _____    ______ ____
ROOT
ATOM      1  C   UNL     1      38.376 -37.826 -28.930  0.00  0.00    +0.162 A 
ATOM      2  C   UNL     1      38.832 -36.965 -29.927  0.00  0.00    -0.016 A 
ATOM      3  C   UNL     1      37.922 -36.224 -30.701  0.00  0.00    -0.053 A 
ATOM      4  C   UNL     1      36.533 -36.302 -30.482  0.00  0.00    -0.026 A 
ATOM      5  C   UNL     1      36.104 -37.070 -29.403  0.00  0.00    +0.016 A 
ATOM      6  C   UNL     1      37.007 -37.861 -28.698  0.00  0.00    +0.167 A 
ATOM      7  O   UNL     1      36.410 -38.740 -27.826  0.00  0.00    -0.484 OA
ATOM      8  C   UNL     1      35.030 -38.296 -27.732  0.00  0.00    +0.116 C 
ATOM      9  C   UNL     1      34.903 -37.665 -26.337  0.00  0.00    +0.015 C 
ATOM     10  C   UNL     1      33.598 -36.911 -26.160  0.00  0.00    +0.077 C 
ATOM     11  C   UNL     1      33.384 -35.956 -27.282  0.00  0.00    -0.059 C 
ATOM     12  C   UNL     1      33.922 -36.120 -28.500  0.00  0.00    -0.071 C 
ATOM     13  C   UNL     1      34.707 -37.350 -28.940  0.00  0.00    +0.056 C 
ATOM     14  C   UNL     1      33.956 -38.116 -30.063  0.00  0.00    -0.023 C 
ATOM     15  C   UNL     1      34.110 -37.563 -31.498  0.00  0.00    +0.000 C 
ATOM     16  N   UNL     1      34.203 -36.100 -31.534  0.00  0.00    -0.298 N 
ATOM     17  C   UNL     1      35.603 -35.617 -31.465  0.00  0.00    +0.024 C 
ATOM     18  H   UNL     1      33.716 -35.784 -30.696  0.00  0.00    +0.000 HD
ENDROOT
BRANCH   1  20
ATOM     19  C   UNL     1      40.554 -38.600 -28.376  0.00  0.00    +0.079 C 
ATOM     20  O   UNL     1      39.151 -38.643 -28.158  0.00  0.00    -0.491 OA
ENDBRANCH   1  20
BRANCH  10  21
ATOM     21  O   UNL     1      32.496 -37.804 -26.140  0.00  0.00    -0.388 OA
ATOM     22  H   UNL     1      32.726 -38.590 -25.619  0.00  0.00    +0.000 HD
ENDBRANCH  10  21
BRANCH  16  23
ATOM     23  C   UNL     1      33.524 -35.508 -32.698  0.00  0.00    +0.000 C 
BRANCH  23  24
ATOM     24  C   UNL     1      33.235 -34.012 -32.502  0.00  0.00    -0.027 C 
BRANCH  24  25
ATOM     25  C   UNL     1      32.631 -33.757 -31.113  0.00  0.00    -0.001 C 
BRANCH  25  26
ATOM     26  N   UNL     1      33.032 -32.465 -30.527  0.00  0.00    -0.308 N 
ATOM     27  C   UNL     1      34.194 -32.650 -29.654  0.00  0.00    -0.013 C 
ATOM     28  C   UNL     1      31.944 -31.837 -29.773  0.00  0.00    -0.013 C 
ATOM     29  H   UNL     1      33.272 -31.844 -31.299  0.00  0.00    +0.000 HD
ENDBRANCH  25  26
ENDBRANCH  24  25
ENDBRANCH  23  24
ENDBRANCH  16  23
TORSDOF 6
ENDMDL
MODEL 4
REMARK VINA RESULT:    -6.562     17.779     19.744
REMARK INTER + INTRA:          -9.168
REMARK INTER:                  -8.523
REMARK INTRA:                  -0.645
REMARK UNBOUND:                -0.496
REMARK  Name = cpd321.pdb
REMARK  9 active torsions:
REMARK  status: ('A' for Active; 'I' for Inactive)
REMARK    1  A    between atoms: C_1  and  O_2
REMARK    2  A    between atoms: O_2  and  C_3
REMARK    3  A    between atoms: C_12  and  O_13
REMARK    4  A    between atoms: N_19  and  C_20
REMARK    5  A    between atoms: C_20  and  C_21
REMARK    6  A    between atoms: C_21  and  C_22
REMARK    7  A    between atoms: C_22  and  N_23
REMARK    8  A    between atoms: N_23  and  C_24
REMARK    9  A    between atoms: N_23  and  C_25
REMARK                            x       y       z     vdW  Elec       q    Type
REMARK                         _______ _______ _______ _____ _____    ______ ____
ROOT
ATOM      1  C   UNL     1      46.331 -22.294 -41.305  0.00  0.00    +0.162 A 
ATOM      2  C   UNL     1      47.464 -22.158 -40.505  0.00  0.00    -0.016 A 
ATOM      3  C   UNL     1      47.453 -21.297 -39.393  0.00  0.00    -0.053 A 
ATOM      4  C   UNL     1      46.301 -20.569 -39.034  0.00  0.00    -0.026 A 
ATOM      5  C   UNL     1      45.144 -20.813 -39.770  0.00  0.00    +0.016 A 
ATOM      6  C   UNL     1      45.191 -21.603 -40.915  0.00  0.00    +0.167 A 
ATOM      7  O   UNL     1      44.040 -21.559 -41.665  0.00  0.00    -0.484 OA
ATOM      8  C   UNL     1      43.055 -20.926 -40.807  0.00  0.00    +0.116 C 
ATOM      9  C   UNL     1      42.098 -22.052 -40.390  0.00  0.00    +0.015 C 
ATOM     10  C   UNL     1      41.155 -21.629 -39.279  0.00  0.00    +0.077 C 
ATOM     11  C   UNL     1      41.909 -21.021 -38.148  0.00  0.00    -0.059 C 
ATOM     12  C   UNL     1      43.106 -20.431 -38.295  0.00  0.00    -0.071 C 
ATOM     13  C   UNL     1      43.790 -20.186 -39.634  0.00  0.00    +0.056 C 
ATOM     14  C   UNL     1      43.915 -18.666 -39.925  0.00  0.00    -0.023 C 
ATOM     15  C   UNL     1      45.089 -17.927 -39.243  0.00  0.00    +0.000 C 
ATOM     16  N   UNL     1      45.391 -18.454 -37.908  0.00  0.00    -0.298 N 
ATOM     17  C   UNL     1      46.411 -19.528 -37.937  0.00  0.00    +0.024 C 
ATOM     18  H   UNL     1      44.513 -18.856 -37.579  0.00  0.00    +0.000 HD
ENDROOT
BRANCH   1  20
ATOM     19  C   UNL     1      47.290 -23.961 -42.702  0.00  0.00    +0.079 C 
ATOM     20  O   UNL     1      46.236 -23.045 -42.441  0.00  0.00    -0.491 OA
ENDBRANCH   1  20
BRANCH  10  21
ATOM     21  O   UNL     1      40.226 -20.662 -39.744  0.00  0.00    -0.388 OA
ATOM     22  H   UNL     1      39.584 -20.467 -39.043  0.00  0.00    +0.000 HD
ENDBRANCH  10  21
BRANCH  16  23
ATOM     23  C   UNL     1      45.790 -17.407 -36.953  0.00  0.00    +0.000 C 
BRANCH  23  24
ATOM     24  C   UNL     1      45.015 -17.503 -35.630  0.00  0.00    -0.027 C 
BRANCH  24  25
ATOM     25  C   UNL     1      45.910 -18.081 -34.522  0.00  0.00    -0.001 C 
BRANCH  25  26
ATOM     26  N   UNL     1      45.250 -19.127 -33.721  0.00  0.00    -0.308 N 
ATOM     27  C   UNL     1      44.688 -20.154 -34.603  0.00  0.00    -0.013 C 
ATOM     28  C   UNL     1      44.196 -18.585 -32.861  0.00  0.00    -0.013 C 
ATOM     29  H   UNL     1      45.961 -19.540 -33.116  0.00  0.00    +0.000 HD
ENDBRANCH  25  26
ENDBRANCH  24  25
ENDBRANCH  23  24
ENDBRANCH  16  23
TORSDOF 6
ENDMDL
MODEL 5
REMARK VINA RESULT:    -6.540     14.763     17.999
REMARK INTER + INTRA:          -9.139
REMARK INTER:                  -8.574
REMARK INTRA:                  -0.565
REMARK UNBOUND:                -0.496
REMARK  Name = cpd321.pdb
REMARK  9 active torsions:
REMARK  status: ('A' for Active; 'I' for Inactive)
REMARK    1  A    between atoms: C_1  and  O_2
REMARK    2  A    between atoms: O_2  and  C_3
REMARK    3  A    between atoms: C_12  and  O_13
REMARK    4  A    between atoms: N_19  and  C_20
REMARK    5  A    between atoms: C_20  and  C_21
REMARK    6  A    between atoms: C_21  and  C_22
REMARK    7  A    between atoms: C_22  and  N_23
REMARK    8  A    between atoms: N_23  and  C_24
REMARK    9  A    between atoms: N_23  and  C_25
REMARK                            x       y       z     vdW  Elec       q    Type
REMARK                         _______ _______ _______ _____ _____    ______ ____
ROOT
ATOM      1  C   UNL     1      40.140 -22.802 -33.696  0.00  0.00    +0.162 A 
ATOM      2  C   UNL     1      40.304 -21.950 -32.605  0.00  0.00    -0.016 A 
ATOM      3  C   UNL     1      40.984 -20.727 -32.752  0.00  0.00    -0.053 A 
ATOM      4  C   UNL     1      41.493 -20.311 -33.997  0.00  0.00    -0.026 A 
ATOM      5  C   UNL     1      41.210 -21.116 -35.098  0.00  0.00    +0.016 A 
ATOM      6  C   UNL     1      40.610 -22.360 -34.925  0.00  0.00    +0.167 A 
ATOM      7  O   UNL     1      40.613 -23.138 -36.059  0.00  0.00    -0.484 OA
ATOM      8  C   UNL     1      40.979 -22.234 -37.134  0.00  0.00    +0.116 C 
ATOM      9  C   UNL     1      39.687 -22.019 -37.937  0.00  0.00    +0.015 C 
ATOM     10  C   UNL     1      39.816 -20.894 -38.948  0.00  0.00    +0.077 C 
ATOM     11  C   UNL     1      40.344 -19.661 -38.303  0.00  0.00    -0.059 C 
ATOM     12  C   UNL     1      41.100 -19.677 -37.195  0.00  0.00    -0.071 C 
ATOM     13  C   UNL     1      41.628 -20.941 -36.527  0.00  0.00    +0.056 C 
ATOM     14  C   UNL     1      43.177 -21.006 -36.603  0.00  0.00    -0.023 C 
ATOM     15  C   UNL     1      43.955 -20.183 -35.551  0.00  0.00    +0.000 C 
ATOM     16  N   UNL     1      43.282 -18.926 -35.204  0.00  0.00    -0.298 N 
ATOM     17  C   UNL     1      42.366 -19.072 -34.048  0.00  0.00    +0.024 C 
ATOM     18  H   UNL     1      42.724 -18.692 -36.025  0.00  0.00    +0.000 HD
ENDROOT
BRANCH   1  20
ATOM     19  C   UNL     1      38.138 -24.085 -33.682  0.00  0.00    +0.079 C 
ATOM     20  O   UNL     1      39.558 -24.037 -33.669  0.00  0.00    -0.491 OA
ENDBRANCH   1  20
BRANCH  10  21
ATOM     21  O   UNL     1      40.710 -21.249 -39.991  0.00  0.00    -0.388 OA
ATOM     22  H   UNL     1      40.310 -21.032 -40.848  0.00  0.00    +0.000 HD
ENDBRANCH  10  21
BRANCH  16  23
ATOM     23  C   UNL     1      44.220 -17.818 -34.966  0.00  0.00    +0.000 C 
BRANCH  23  24
ATOM     24  C   UNL     1      45.394 -18.234 -34.068  0.00  0.00    -0.027 C 
BRANCH  24  25
ATOM     25  C   UNL     1      46.731 -17.816 -34.700  0.00  0.00    -0.001 C 
BRANCH  25  26
ATOM     26  N   UNL     1      47.460 -18.936 -35.323  0.00  0.00    -0.308 N 
ATOM     27  C   UNL     1      48.855 -18.936 -34.874  0.00  0.00    -0.013 C 
ATOM     28  C   UNL     1      47.413 -18.883 -36.786  0.00  0.00    -0.013 C 
ATOM     29  H   UNL     1      47.000 -19.798 -35.030  0.00  0.00    +0.000 HD
ENDBRANCH  25  26
ENDBRANCH  24  25
ENDBRANCH  23  24
ENDBRANCH  16  23
TORSDOF 6
ENDMDL
MODEL 6
REMARK VINA RESULT:    -6.380     15.889     19.282
REMARK INTER + INTRA:          -8.928
REMARK INTER:                  -8.241
REMARK INTRA:                  -0.687
REMARK UNBOUND:                -0.496
REMARK  Name = cpd321.pdb
REMARK  9 active torsions:
REMARK  status: ('A' for Active; 'I' for Inactive)
REMARK    1  A    between atoms: C_1  and  O_2
REMARK    2  A    between atoms: O_2  and  C_3
REMARK    3  A    between atoms: C_12  and  O_13
REMARK    4  A    between atoms: N_19  and  C_20
REMARK    5  A    between atoms: C_20  and  C_21
REMARK    6  A    between atoms: C_21  and  C_22
REMARK    7  A    between atoms: C_22  and  N_23
REMARK    8  A    between atoms: N_23  and  C_24
REMARK    9  A    between atoms: N_23  and  C_25
REMARK                            x       y       z     vdW  Elec       q    Type
REMARK                         _______ _______ _______ _____ _____    ______ ____
ROOT
ATOM      1  C   UNL     1      40.960 -21.651 -36.381  0.00  0.00    +0.162 A 
ATOM      2  C   UNL     1      40.601 -22.370 -37.519  0.00  0.00    -0.016 A 
ATOM      3  C   UNL     1      41.330 -22.226 -38.713  0.00  0.00    -0.053 A 
ATOM      4  C   UNL     1      42.453 -21.380 -38.795  0.00  0.00    -0.026 A 
ATOM      5  C   UNL     1      42.870 -20.766 -37.616  0.00  0.00    +0.016 A 
ATOM      6  C   UNL     1      42.094 -20.853 -36.464  0.00  0.00    +0.167 A 
ATOM      7  O   UNL     1      42.500 -20.008 -35.459  0.00  0.00    -0.484 OA
ATOM      8  C   UNL     1      43.813 -19.542 -35.867  0.00  0.00    +0.116 C 
ATOM      9  C   UNL     1      44.803 -20.255 -34.934  0.00  0.00    +0.015 C 
ATOM     10  C   UNL     1      46.243 -20.091 -35.384  0.00  0.00    +0.077 C 
ATOM     11  C   UNL     1      46.392 -20.453 -36.820  0.00  0.00    -0.059 C 
ATOM     12  C   UNL     1      45.385 -20.385 -37.705  0.00  0.00    -0.071 C 
ATOM     13  C   UNL     1      44.006 -19.813 -37.400  0.00  0.00    +0.056 C 
ATOM     14  C   UNL     1      43.741 -18.529 -38.231  0.00  0.00    -0.023 C 
ATOM     15  C   UNL     1      43.281 -18.734 -39.693  0.00  0.00    +0.000 C 
ATOM     16  N   UNL     1      43.896 -19.909 -40.320  0.00  0.00    -0.298 N 
ATOM     17  C   UNL     1      43.081 -21.135 -40.153  0.00  0.00    +0.024 C 
ATOM     18  H   UNL     1      44.777 -20.041 -39.823  0.00  0.00    +0.000 HD
ENDROOT
BRANCH   1  20
ATOM     19  C   UNL     1      40.298 -22.871 -34.451  0.00  0.00    +0.079 C 
ATOM     20  O   UNL     1      40.299 -21.655 -35.186  0.00  0.00    -0.491 OA
ENDBRANCH   1  20
BRANCH  10  21
ATOM     21  O   UNL     1      46.671 -18.746 -35.234  0.00  0.00    -0.388 OA
ATOM     22  H   UNL     1      45.898 -18.160 -35.221  0.00  0.00    +0.000 HD
ENDBRANCH  10  21
BRANCH  16  23
ATOM     23  C   UNL     1      44.210 -19.703 -41.743  0.00  0.00    +0.000 C 
BRANCH  23  24
ATOM     24  C   UNL     1      44.540 -21.021 -42.460  0.00  0.00    -0.027 C 
BRANCH  24  25
ATOM     25  C   UNL     1      46.035 -21.348 -42.327  0.00  0.00    -0.001 C 
BRANCH  25  26
ATOM     26  N   UNL     1      46.296 -22.691 -41.777  0.00  0.00    -0.308 N 
ATOM     27  C   UNL     1      46.520 -22.605 -40.332  0.00  0.00    -0.013 C 
ATOM     28  C   UNL     1      47.443 -23.339 -42.418  0.00  0.00    -0.013 C 
ATOM     29  H   UNL     1      45.472 -23.261 -41.968  0.00  0.00    +0.000 HD
ENDBRANCH  25  26
ENDBRANCH  24  25
ENDBRANCH  23  24
ENDBRANCH  16  23
TORSDOF 6
ENDMDL
MODEL 7
REMARK VINA RESULT:    -6.141     35.693     38.109
REMARK INTER + INTRA:          -8.612
REMARK INTER:                  -8.001
REMARK INTRA:                  -0.611
REMARK UNBOUND:                -0.496
REMARK  Name = cpd321.pdb
REMARK  9 active torsions:
REMARK  status: ('A' for Active; 'I' for Inactive)
REMARK    1  A    between atoms: C_1  and  O_2
REMARK    2  A    between atoms: O_2  and  C_3
REMARK    3  A    between atoms: C_12  and  O_13
REMARK    4  A    between atoms: N_19  and  C_20
REMARK    5  A    between atoms: C_20  and  C_21
REMARK    6  A    between atoms: C_21  and  C_22
REMARK    7  A    between atoms: C_22  and  N_23
REMARK    8  A    between atoms: N_23  and  C_24
REMARK    9  A    between atoms: N_23  and  C_25
REMARK                            x       y       z     vdW  Elec       q    Type
REMARK                         _______ _______ _______ _____ _____    ______ ____
ROOT
ATOM      1  C   UNL     1      62.262 -25.087  -7.521  0.00  0.00    +0.162 A 
ATOM      2  C   UNL     1      62.229 -24.983  -8.910  0.00  0.00    -0.016 A 
ATOM      3  C   UNL     1      62.691 -23.818  -9.549  0.00  0.00    -0.053 A 
ATOM      4  C   UNL     1      63.222 -22.738  -8.819  0.00  0.00    -0.026 A 
ATOM      5  C   UNL     1      63.362 -22.910  -7.444  0.00  0.00    +0.016 A 
ATOM      6  C   UNL     1      62.827 -24.031  -6.817  0.00  0.00    +0.167 A 
ATOM      7  O   UNL     1      62.827 -23.951  -5.445  0.00  0.00    -0.484 OA
ATOM      8  C   UNL     1      63.689 -22.825  -5.135  0.00  0.00    +0.116 C 
ATOM      9  C   UNL     1      64.972 -23.444  -4.560  0.00  0.00    +0.015 C 
ATOM     10  C   UNL     1      66.092 -22.429  -4.422  0.00  0.00    +0.077 C 
ATOM     11  C   UNL     1      66.293 -21.687  -5.697  0.00  0.00    -0.059 C 
ATOM     12  C   UNL     1      65.324 -21.520  -6.611  0.00  0.00    -0.071 C 
ATOM     13  C   UNL     1      63.873 -21.944  -6.419  0.00  0.00    +0.056 C 
ATOM     14  C   UNL     1      62.932 -20.709  -6.389  0.00  0.00    -0.023 C 
ATOM     15  C   UNL     1      62.528 -20.114  -7.757  0.00  0.00    +0.000 C 
ATOM     16  N   UNL     1      63.602 -20.203  -8.752  0.00  0.00    -0.298 N 
ATOM     17  C   UNL     1      63.534 -21.448  -9.553  0.00  0.00    +0.024 C 
ATOM     18  H   UNL     1      64.465 -20.221  -8.208  0.00  0.00    +0.000 HD
ENDROOT
BRANCH   1  20
ATOM     19  C   UNL     1      62.644 -27.256  -6.625  0.00  0.00    +0.079 C 
ATOM     20  O   UNL     1      61.788 -26.133  -6.783  0.00  0.00    -0.491 OA
ENDBRANCH   1  20
BRANCH  10  21
ATOM     21  O   UNL     1      65.793 -21.477  -3.414  0.00  0.00    -0.388 OA
ATOM     22  H   UNL     1      65.080 -20.894  -3.721  0.00  0.00    +0.000 HD
ENDBRANCH  10  21
BRANCH  16  23
ATOM     23  C   UNL     1      63.659 -19.034  -9.644  0.00  0.00    +0.000 C 
BRANCH  23  24
ATOM     24  C   UNL     1      62.946 -19.288 -10.981  0.00  0.00    -0.027 C 
BRANCH  24  25
ATOM     25  C   UNL     1      61.877 -18.214 -11.234  0.00  0.00    -0.001 C 
BRANCH  25  26
ATOM     26  N   UNL     1      60.502 -18.685 -10.987  0.00  0.00    -0.308 N 
ATOM     27  C   UNL     1      59.612 -18.216 -12.051  0.00  0.00    -0.013 C 
ATOM     28  C   UNL     1      59.991 -18.246  -9.686  0.00  0.00    -0.013 C 
ATOM     29  H   UNL     1      60.528 -19.705 -10.980  0.00  0.00    +0.000 HD
ENDBRANCH  25  26
ENDBRANCH  24  25
ENDBRANCH  23  24
ENDBRANCH  16  23
TORSDOF 6
ENDMDL
MODEL 8
REMARK VINA RESULT:    -6.089     36.176     38.740
REMARK INTER + INTRA:          -8.543
REMARK INTER:                  -8.027
REMARK INTRA:                  -0.516
REMARK UNBOUND:                -0.496
REMARK  Name = cpd321.pdb
REMARK  9 active torsions:
REMARK  status: ('A' for Active; 'I' for Inactive)
REMARK    1  A    between atoms: C_1  and  O_2
REMARK    2  A    between atoms: O_2  and  C_3
REMARK    3  A    between atoms: C_12  and  O_13
REMARK    4  A    between atoms: N_19  and  C_20
REMARK    5  A    between atoms: C_20  and  C_21
REMARK    6  A    between atoms: C_21  and  C_22
REMARK    7  A    between atoms: C_22  and  N_23
REMARK    8  A    between atoms: N_23  and  C_24
REMARK    9  A    between atoms: N_23  and  C_25
REMARK                            x       y       z     vdW  Elec       q    Type
REMARK                         _______ _______ _______ _____ _____    ______ ____
ROOT
ATOM      1  C   UNL     1      62.369 -25.036  -7.452  0.00  0.00    +0.162 A 
ATOM      2  C   UNL     1      62.391 -24.973  -8.844  0.00  0.00    -0.016 A 
ATOM      3  C   UNL     1      62.861 -23.821  -9.499  0.00  0.00    -0.053 A 
ATOM      4  C   UNL     1      63.348 -22.711  -8.781  0.00  0.00    -0.026 A 
ATOM      5  C   UNL     1      63.435 -22.841  -7.397  0.00  0.00    +0.016 A 
ATOM      6  C   UNL     1      62.891 -23.951  -6.758  0.00  0.00    +0.167 A 
ATOM      7  O   UNL     1      62.835 -23.830  -5.390  0.00  0.00    -0.484 OA
ATOM      8  C   UNL     1      63.668 -22.682  -5.080  0.00  0.00    +0.116 C 
ATOM      9  C   UNL     1      64.936 -23.265  -4.437  0.00  0.00    +0.015 C 
ATOM     10  C   UNL     1      66.035 -22.230  -4.286  0.00  0.00    +0.077 C 
ATOM     11  C   UNL     1      66.277 -21.523  -5.573  0.00  0.00    -0.059 C 
ATOM     12  C   UNL     1      65.343 -21.397  -6.529  0.00  0.00    -0.071 C 
ATOM     13  C   UNL     1      63.891 -21.837  -6.383  0.00  0.00    +0.056 C 
ATOM     14  C   UNL     1      62.934 -20.616  -6.426  0.00  0.00    -0.023 C 
ATOM     15  C   UNL     1      62.576 -20.068  -7.827  0.00  0.00    +0.000 C 
ATOM     16  N   UNL     1      63.690 -20.170  -8.776  0.00  0.00    -0.298 N 
ATOM     17  C   UNL     1      63.671 -21.439  -9.541  0.00  0.00    +0.024 C 
ATOM     18  H   UNL     1      64.530 -20.159  -8.197  0.00  0.00    +0.000 HD
ENDROOT
BRANCH   1  20
ATOM     19  C   UNL     1      62.742 -27.175  -6.486  0.00  0.00    +0.079 C 
ATOM     20  O   UNL     1      61.881 -26.067  -6.702  0.00  0.00    -0.491 OA
ENDBRANCH   1  20
BRANCH  10  21
ATOM     21  O   UNL     1      65.683 -21.254  -3.319  0.00  0.00    -0.388 OA
ATOM     22  H   UNL     1      66.339 -21.256  -2.603  0.00  0.00    +0.000 HD
ENDBRANCH  10  21
BRANCH  16  23
ATOM     23  C   UNL     1      63.766 -19.027  -9.699  0.00  0.00    +0.000 C 
BRANCH  23  24
ATOM     24  C   UNL     1      63.443 -19.428 -11.147  0.00  0.00    -0.027 C 
BRANCH  24  25
ATOM     25  C   UNL     1      64.144 -18.485 -12.136  0.00  0.00    -0.001 C 
BRANCH  25  26
ATOM     26  N   UNL     1      65.606 -18.669 -12.187  0.00  0.00    -0.308 N 
ATOM     27  C   UNL     1      66.278 -17.370 -12.098  0.00  0.00    -0.013 C 
ATOM     28  C   UNL     1      66.035 -19.365 -13.402  0.00  0.00    -0.013 C 
ATOM     29  H   UNL     1      65.866 -19.250 -11.390  0.00  0.00    +0.000 HD
ENDBRANCH  25  26
ENDBRANCH  24  25
ENDBRANCH  23  24
ENDBRANCH  16  23
TORSDOF 6
ENDMDL
MODEL 9
REMARK VINA RESULT:    -6.057     16.771     19.649
REMARK INTER + INTRA:          -8.501
REMARK INTER:                  -7.911
REMARK INTRA:                  -0.590
REMARK UNBOUND:                -0.496
REMARK  Name = cpd321.pdb
REMARK  9 active torsions:
REMARK  status: ('A' for Active; 'I' for Inactive)
REMARK    1  A    between atoms: C_1  and  O_2
REMARK    2  A    between atoms: O_2  and  C_3
REMARK    3  A    between atoms: C_12  and  O_13
REMARK    4  A    between atoms: N_19  and  C_20
REMARK    5  A    between atoms: C_20  and  C_21
REMARK    6  A    between atoms: C_21  and  C_22
REMARK    7  A    between atoms: C_22  and  N_23
REMARK    8  A    between atoms: N_23  and  C_24
REMARK    9  A    between atoms: N_23  and  C_25
REMARK                            x       y       z     vdW  Elec       q    Type
REMARK                         _______ _______ _______ _____ _____    ______ ____
ROOT
ATOM      1  C   UNL     1      44.230 -16.885 -40.188  0.00  0.00    +0.162 A 
ATOM      2  C   UNL     1      43.656 -16.714 -38.929  0.00  0.00    -0.016 A 
ATOM      3  C   UNL     1      43.185 -17.823 -38.205  0.00  0.00    -0.053 A 
ATOM      4  C   UNL     1      43.299 -19.135 -38.705  0.00  0.00    -0.026 A 
ATOM      5  C   UNL     1      43.986 -19.297 -39.906  0.00  0.00    +0.016 A 
ATOM      6  C   UNL     1      44.374 -18.186 -40.651  0.00  0.00    +0.167 A 
ATOM      7  O   UNL     1      44.821 -18.495 -41.913  0.00  0.00    -0.484 OA
ATOM      8  C   UNL     1      45.019 -19.933 -41.900  0.00  0.00    +0.116 C 
ATOM      9  C   UNL     1      46.542 -20.132 -41.898  0.00  0.00    +0.015 C 
ATOM     10  C   UNL     1      46.937 -21.570 -41.620  0.00  0.00    +0.077 C 
ATOM     11  C   UNL     1      46.255 -22.080 -40.399  0.00  0.00    -0.059 C 
ATOM     12  C   UNL     1      45.090 -21.589 -39.949  0.00  0.00    -0.071 C 
ATOM     13  C   UNL     1      44.248 -20.551 -40.681  0.00  0.00    +0.056 C 
ATOM     14  C   UNL     1      42.888 -21.153 -41.127  0.00  0.00    -0.023 C 
ATOM     15  C   UNL     1      41.779 -21.224 -40.053  0.00  0.00    +0.000 C 
ATOM     16  N   UNL     1      42.307 -21.499 -38.712  0.00  0.00    -0.298 N 
ATOM     17  C   UNL     1      42.612 -20.261 -37.957  0.00  0.00    +0.024 C 
ATOM     18  H   UNL     1      43.181 -22.000 -38.871  0.00  0.00    +0.000 HD
ENDROOT
BRANCH   1  20
ATOM     19  C   UNL     1      43.681 -15.191 -41.763  0.00  0.00    +0.079 C 
ATOM     20  O   UNL     1      44.666 -15.888 -41.013  0.00  0.00    -0.491 OA
ENDBRANCH   1  20
BRANCH  10  21
ATOM     21  O   UNL     1      46.570 -22.414 -42.700  0.00  0.00    -0.388 OA
ATOM     22  H   UNL     1      45.682 -22.176 -43.010  0.00  0.00    +0.000 HD
ENDBRANCH  10  21
BRANCH  16  23
ATOM     23  C   UNL     1      41.428 -22.370 -37.916  0.00  0.00    +0.000 C 
BRANCH  23  24
ATOM     24  C   UNL     1      40.013 -21.789 -37.770  0.00  0.00    -0.027 C 
BRANCH  24  25
ATOM     25  C   UNL     1      39.523 -21.922 -36.320  0.00  0.00    -0.001 C 
BRANCH  25  26
ATOM     26  N   UNL     1      40.617 -21.980 -35.334  0.00  0.00    -0.308 N 
ATOM     27  C   UNL     1      40.284 -22.930 -34.270  0.00  0.00    -0.013 C 
ATOM     28  C   UNL     1      40.908 -20.668 -34.750  0.00  0.00    -0.013 C 
ATOM     29  H   UNL     1      41.454 -22.290 -35.828  0.00  0.00    +0.000 HD
ENDBRANCH  25  26
ENDBRANCH  24  25
ENDBRANCH  23  24
ENDBRANCH  16  23
TORSDOF 6
ENDMDL
MODEL 10
REMARK VINA RESULT:    -6.012      2.449      3.989
REMARK INTER + INTRA:          -8.442
REMARK INTER:                  -7.767
REMARK INTRA:                  -0.675
REMARK UNBOUND:                -0.496
REMARK  Name = cpd321.pdb
REMARK  9 active torsions:
REMARK  status: ('A' for Active; 'I' for Inactive)
REMARK    1  A    between atoms: C_1  and  O_2
REMARK    2  A    between atoms: O_2  and  C_3
REMARK    3  A    between atoms: C_12  and  O_13
REMARK    4  A    between atoms: N_19  and  C_20
REMARK    5  A    between atoms: C_20  and  C_21
REMARK    6  A    between atoms: C_21  and  C_22
REMARK    7  A    between atoms: C_22  and  N_23
REMARK    8  A    between atoms: N_23  and  C_24
REMARK    9  A    between atoms: N_23  and  C_25
REMARK                            x       y       z     vdW  Elec       q    Type
REMARK                         _______ _______ _______ _____ _____    ______ ____
ROOT
ATOM      1  C   UNL     1      33.192 -38.300 -32.429  0.00  0.00    +0.162 A 
ATOM      2  C   UNL     1      32.915 -37.252 -33.305  0.00  0.00    -0.016 A 
ATOM      3  C   UNL     1      33.327 -35.942 -33.002  0.00  0.00    -0.053 A 
ATOM      4  C   UNL     1      34.051 -35.649 -31.830  0.00  0.00    -0.026 A 
ATOM      5  C   UNL     1      34.427 -36.726 -31.031  0.00  0.00    +0.016 A 
ATOM      6  C   UNL     1      33.943 -38.003 -31.299  0.00  0.00    +0.167 A 
ATOM      7  O   UNL     1      34.197 -38.912 -30.299  0.00  0.00    -0.484 OA
ATOM      8  C   UNL     1      35.172 -38.263 -29.441  0.00  0.00    +0.116 C 
ATOM      9  C   UNL     1      36.495 -38.997 -29.706  0.00  0.00    +0.015 C 
ATOM     10  C   UNL     1      37.685 -38.285 -29.090  0.00  0.00    +0.077 C 
ATOM     11  C   UNL     1      37.699 -36.847 -29.476  0.00  0.00    -0.059 C 
ATOM     12  C   UNL     1      36.593 -36.167 -29.818  0.00  0.00    -0.071 C 
ATOM     13  C   UNL     1      35.176 -36.722 -29.734  0.00  0.00    +0.056 C 
ATOM     14  C   UNL     1      34.339 -35.951 -28.679  0.00  0.00    -0.023 C 
ATOM     15  C   UNL     1      33.733 -34.602 -29.129  0.00  0.00    +0.000 C 
ATOM     16  N   UNL     1      34.601 -33.875 -30.062  0.00  0.00    -0.298 N 
ATOM     17  C   UNL     1      34.307 -34.196 -31.479  0.00  0.00    +0.024 C 
ATOM     18  H   UNL     1      35.544 -34.199 -29.850  0.00  0.00    +0.000 HD
ENDROOT
BRANCH   1  20
ATOM     19  C   UNL     1      33.341 -40.322 -33.670  0.00  0.00    +0.079 C 
ATOM     20  O   UNL     1      32.793 -39.597 -32.578  0.00  0.00    -0.491 OA
ENDBRANCH   1  20
BRANCH  10  21
ATOM     21  O   UNL     1      37.636 -38.348 -27.673  0.00  0.00    -0.388 OA
ATOM     22  H   UNL     1      36.839 -38.829 -27.398  0.00  0.00    +0.000 HD
ENDBRANCH  10  21
BRANCH  16  23
ATOM     23  C   UNL     1      34.570 -32.418 -29.859  0.00  0.00    +0.000 C 
BRANCH  23  24
ATOM     24  C   UNL     1      33.621 -31.715 -30.842  0.00  0.00    -0.027 C 
BRANCH  24  25
ATOM     25  C   UNL     1      32.423 -31.110 -30.095  0.00  0.00    -0.001 C 
BRANCH  25  26
ATOM     26  N   UNL     1      31.181 -31.889 -30.250  0.00  0.00    -0.308 N 
ATOM     27  C   UNL     1      31.157 -32.537 -31.563  0.00  0.00    -0.013 C 
ATOM     28  C   UNL     1      29.984 -31.061 -30.085  0.00  0.00    -0.013 C 
ATOM     29  H   UNL     1      31.172 -32.595 -29.513  0.00  0.00    +0.000 HD
ENDBRANCH  25  26
ENDBRANCH  24  25
ENDBRANCH  23  24
ENDBRANCH  16  23
TORSDOF 6
ENDMDL
MODEL 11
REMARK VINA RESULT:    -5.982     16.237     19.141
REMARK INTER + INTRA:          -8.402
REMARK INTER:                  -7.813
REMARK INTRA:                  -0.589
REMARK UNBOUND:                -0.496
REMARK  Name = cpd321.pdb
REMARK  9 active torsions:
REMARK  status: ('A' for Active; 'I' for Inactive)
REMARK    1  A    between atoms: C_1  and  O_2
REMARK    2  A    between atoms: O_2  and  C_3
REMARK    3  A    between atoms: C_12  and  O_13
REMARK    4  A    between atoms: N_19  and  C_20
REMARK    5  A    between atoms: C_20  and  C_21
REMARK    6  A    between atoms: C_21  and  C_22
REMARK    7  A    between atoms: C_22  and  N_23
REMARK    8  A    between atoms: N_23  and  C_24
REMARK    9  A    between atoms: N_23  and  C_25
REMARK                            x       y       z     vdW  Elec       q    Type
REMARK                         _______ _______ _______ _____ _____    ______ ____
ROOT
ATOM      1  C   UNL     1      46.938 -19.218 -36.144  0.00  0.00    +0.162 A 
ATOM      2  C   UNL     1      46.078 -19.618 -35.122  0.00  0.00    -0.016 A 
ATOM      3  C   UNL     1      44.776 -20.059 -35.418  0.00  0.00    -0.053 A 
ATOM      4  C   UNL     1      44.307 -20.139 -36.743  0.00  0.00    -0.026 A 
ATOM      5  C   UNL     1      45.219 -19.854 -37.756  0.00  0.00    +0.016 A 
ATOM      6  C   UNL     1      46.476 -19.341 -37.448  0.00  0.00    +0.167 A 
ATOM      7  O   UNL     1      47.171 -18.885 -38.543  0.00  0.00    -0.484 OA
ATOM      8  C   UNL     1      46.445 -19.400 -39.690  0.00  0.00    +0.116 C 
ATOM      9  C   UNL     1      47.334 -20.514 -40.264  0.00  0.00    +0.015 C 
ATOM     10  C   UNL     1      46.616 -21.344 -41.312  0.00  0.00    +0.077 C 
ATOM     11  C   UNL     1      45.300 -21.818 -40.802  0.00  0.00    -0.059 C 
ATOM     12  C   UNL     1      44.612 -21.182 -39.841  0.00  0.00    -0.071 C 
ATOM     13  C   UNL     1      45.008 -19.839 -39.239  0.00  0.00    +0.056 C 
ATOM     14  C   UNL     1      43.959 -18.747 -39.580  0.00  0.00    -0.023 C 
ATOM     15  C   UNL     1      42.688 -18.712 -38.701  0.00  0.00    +0.000 C 
ATOM     16  N   UNL     1      42.255 -20.048 -38.278  0.00  0.00    -0.298 N 
ATOM     17  C   UNL     1      42.841 -20.450 -36.978  0.00  0.00    +0.024 C 
ATOM     18  H   UNL     1      42.610 -20.679 -38.997  0.00  0.00    +0.000 HD
ENDROOT
BRANCH   1  20
ATOM     19  C   UNL     1      48.851 -18.986 -34.752  0.00  0.00    +0.079 C 
ATOM     20  O   UNL     1      48.196 -18.713 -35.983  0.00  0.00    -0.491 OA
ENDBRANCH   1  20
BRANCH  10  21
ATOM     21  O   UNL     1      46.373 -20.581 -42.484  0.00  0.00    -0.388 OA
ATOM     22  H   UNL     1      46.083 -21.170 -43.199  0.00  0.00    +0.000 HD
ENDBRANCH  10  21
BRANCH  16  23
ATOM     23  C   UNL     1      40.791 -20.193 -38.236  0.00  0.00    +0.000 C 
BRANCH  23  24
ATOM     24  C   UNL     1      40.354 -21.666 -38.241  0.00  0.00    -0.027 C 
BRANCH  24  25
ATOM     25  C   UNL     1      39.207 -21.891 -37.243  0.00  0.00    -0.001 C 
BRANCH  25  26
ATOM     26  N   UNL     1      39.539 -21.481 -35.867  0.00  0.00    -0.308 N 
ATOM     27  C   UNL     1      40.036 -22.631 -35.108  0.00  0.00    -0.013 C 
ATOM     28  C   UNL     1      38.392 -20.890 -35.173  0.00  0.00    -0.013 C 
ATOM     29  H   UNL     1      40.264 -20.766 -35.930  0.00  0.00    +0.000 HD
ENDBRANCH  25  26
ENDBRANCH  24  25
ENDBRANCH  23  24
ENDBRANCH  16  23
TORSDOF 6
ENDMDL
MODEL 12
REMARK VINA RESULT:    -5.796     17.187     20.342
REMARK INTER + INTRA:          -8.156
REMARK INTER:                  -7.526
REMARK INTRA:                  -0.630
REMARK UNBOUND:                -0.496
REMARK  Name = cpd321.pdb
REMARK  9 active torsions:
REMARK  status: ('A' for Active; 'I' for Inactive)
REMARK    1  A    between atoms: C_1  and  O_2
REMARK    2  A    between atoms: O_2  and  C_3
REMARK    3  A    between atoms: C_12  and  O_13
REMARK    4  A    between atoms: N_19  and  C_20
REMARK    5  A    between atoms: C_20  and  C_21
REMARK    6  A    between atoms: C_21  and  C_22
REMARK    7  A    between atoms: C_22  and  N_23
REMARK    8  A    between atoms: N_23  and  C_24
REMARK    9  A    between atoms: N_23  and  C_25
REMARK                            x       y       z     vdW  Elec       q    Type
REMARK                         _______ _______ _______ _____ _____    ______ ____
ROOT
ATOM      1  C   UNL     1      41.825 -20.325 -39.395  0.00  0.00    +0.162 A 
ATOM      2  C   UNL     1      41.607 -19.155 -38.670  0.00  0.00    -0.016 A 
ATOM      3  C   UNL     1      42.693 -18.388 -38.211  0.00  0.00    -0.053 A 
ATOM      4  C   UNL     1      44.024 -18.755 -38.487  0.00  0.00    -0.026 A 
ATOM      5  C   UNL     1      44.219 -19.857 -39.317  0.00  0.00    +0.016 A 
ATOM      6  C   UNL     1      43.141 -20.652 -39.695  0.00  0.00    +0.167 A 
ATOM      7  O   UNL     1      43.509 -21.827 -40.306  0.00  0.00    -0.484 OA
ATOM      8  C   UNL     1      44.917 -21.665 -40.617  0.00  0.00    +0.116 C 
ATOM      9  C   UNL     1      44.976 -21.483 -42.141  0.00  0.00    +0.015 C 
ATOM     10  C   UNL     1      46.346 -21.037 -42.618  0.00  0.00    +0.077 C 
ATOM     11  C   UNL     1      46.816 -19.854 -41.845  0.00  0.00    -0.059 C 
ATOM     12  C   UNL     1      46.398 -19.576 -40.600  0.00  0.00    -0.071 C 
ATOM     13  C   UNL     1      45.503 -20.484 -39.766  0.00  0.00    +0.056 C 
ATOM     14  C   UNL     1      46.258 -21.016 -38.519  0.00  0.00    -0.023 C 
ATOM     15  C   UNL     1      46.344 -20.064 -37.304  0.00  0.00    +0.000 C 
ATOM     16  N   UNL     1      46.461 -18.655 -37.696  0.00  0.00    -0.298 N 
ATOM     17  C   UNL     1      45.145 -17.986 -37.813  0.00  0.00    +0.024 C 
ATOM     18  H   UNL     1      46.893 -18.675 -38.621  0.00  0.00    +0.000 HD
ENDROOT
BRANCH   1  20
ATOM     19  C   UNL     1      40.220 -21.997 -38.865  0.00  0.00    +0.079 C 
ATOM     20  O   UNL     1      40.862 -21.185 -39.839  0.00  0.00    -0.491 OA
ENDBRANCH   1  20
BRANCH  10  21
ATOM     21  O   UNL     1      47.304 -22.070 -42.445  0.00  0.00    -0.388 OA
ATOM     22  H   UNL     1      47.955 -22.030 -43.163  0.00  0.00    +0.000 HD
ENDBRANCH  10  21
BRANCH  16  23
ATOM     23  C   UNL     1      47.342 -17.882 -36.807  0.00  0.00    +0.000 C 
BRANCH  23  24
ATOM     24  C   UNL     1      46.552 -17.101 -35.744  0.00  0.00    -0.027 C 
BRANCH  24  25
ATOM     25  C   UNL     1      46.485 -17.896 -34.431  0.00  0.00    -0.001 C 
BRANCH  25  26
ATOM     26  N   UNL     1      45.108 -18.164 -33.978  0.00  0.00    -0.308 N 
ATOM     27  C   UNL     1      44.883 -17.547 -32.668  0.00  0.00    -0.013 C 
ATOM     28  C   UNL     1      44.818 -19.598 -33.904  0.00  0.00    -0.013 C 
ATOM     29  H   UNL     1      44.477 -17.756 -34.668  0.00  0.00    +0.000 HD
ENDBRANCH  25  26
ENDBRANCH  24  25
ENDBRANCH  23  24
ENDBRANCH  16  23
TORSDOF 6
ENDMDL
MODEL 13
REMARK VINA RESULT:    -5.779     17.551     20.451
REMARK INTER + INTRA:          -8.134
REMARK INTER:                  -7.687
REMARK INTRA:                  -0.446
REMARK UNBOUND:                -0.496
REMARK  Name = cpd321.pdb
REMARK  9 active torsions:
REMARK  status: ('A' for Active; 'I' for Inactive)
REMARK    1  A    between atoms: C_1  and  O_2
REMARK    2  A    between atoms: O_2  and  C_3
REMARK    3  A    between atoms: C_12  and  O_13
REMARK    4  A    between atoms: N_19  and  C_20
REMARK    5  A    between atoms: C_20  and  C_21
REMARK    6  A    between atoms: C_21  and  C_22
REMARK    7  A    between atoms: C_22  and  N_23
REMARK    8  A    between atoms: N_23  and  C_24
REMARK    9  A    between atoms: N_23  and  C_25
REMARK                            x       y       z     vdW  Elec       q    Type
REMARK                         _______ _______ _______ _____ _____    ______ ____
ROOT
ATOM      1  C   UNL     1      47.292 -16.397 -38.829  0.00  0.00    +0.162 A 
ATOM      2  C   UNL     1      47.289 -16.337 -37.437  0.00  0.00    -0.016 A 
ATOM      3  C   UNL     1      46.666 -17.347 -36.681  0.00  0.00    -0.053 A 
ATOM      4  C   UNL     1      46.054 -18.457 -37.295  0.00  0.00    -0.026 A 
ATOM      5  C   UNL     1      46.176 -18.562 -38.679  0.00  0.00    +0.016 A 
ATOM      6  C   UNL     1      46.721 -17.517 -39.419  0.00  0.00    +0.167 A 
ATOM      7  O   UNL     1      46.557 -17.657 -40.777  0.00  0.00    -0.484 OA
ATOM      8  C   UNL     1      46.132 -19.032 -40.965  0.00  0.00    +0.116 C 
ATOM      9  C   UNL     1      47.343 -19.748 -41.581  0.00  0.00    +0.015 C 
ATOM     10  C   UNL     1      47.172 -21.256 -41.605  0.00  0.00    +0.077 C 
ATOM     11  C   UNL     1      46.783 -21.766 -40.262  0.00  0.00    -0.059 C 
ATOM     12  C   UNL     1      46.146 -21.017 -39.348  0.00  0.00    -0.071 C 
ATOM     13  C   UNL     1      45.622 -19.608 -39.598  0.00  0.00    +0.056 C 
ATOM     14  C   UNL     1      44.072 -19.569 -39.519  0.00  0.00    -0.023 C 
ATOM     15  C   UNL     1      43.454 -19.496 -38.104  0.00  0.00    +0.000 C 
ATOM     16  N   UNL     1      44.228 -20.247 -37.109  0.00  0.00    -0.298 N 
ATOM     17  C   UNL     1      45.249 -19.412 -36.434  0.00  0.00    +0.024 C 
ATOM     18  H   UNL     1      44.709 -20.971 -37.642  0.00  0.00    +0.000 HD
ENDROOT
BRANCH   1  20
ATOM     19  C   UNL     1      48.286 -14.253 -39.083  0.00  0.00    +0.079 C 
ATOM     20  O   UNL     1      47.804 -15.453 -39.672  0.00  0.00    -0.491 OA
ENDBRANCH   1  20
BRANCH  10  21
ATOM     21  O   UNL     1      46.156 -21.637 -42.519  0.00  0.00    -0.388 OA
ATOM     22  H   UNL     1      46.239 -21.113 -43.332  0.00  0.00    +0.000 HD
ENDBRANCH  10  21
BRANCH  16  23
ATOM     23  C   UNL     1      43.382 -20.915 -36.107  0.00  0.00    +0.000 C 
BRANCH  23  24
ATOM     24  C   UNL     1      41.940 -20.385 -36.119  0.00  0.00    -0.027 C 
BRANCH  24  25
ATOM     25  C   UNL     1      41.331 -20.448 -34.710  0.00  0.00    -0.001 C 
BRANCH  25  26
ATOM     26  N   UNL     1      41.434 -21.779 -34.086  0.00  0.00    -0.308 N 
ATOM     27  C   UNL     1      40.418 -22.675 -34.643  0.00  0.00    -0.013 C 
ATOM     28  C   UNL     1      41.295 -21.721 -32.629  0.00  0.00    -0.013 C 
ATOM     29  H   UNL     1      42.366 -22.140 -34.292  0.00  0.00    +0.000 HD
ENDBRANCH  25  26
ENDBRANCH  24  25
ENDBRANCH  23  24
ENDBRANCH  16  23
TORSDOF 6
ENDMDL
MODEL 14
REMARK VINA RESULT:    -5.732     16.539     19.492
REMARK INTER + INTRA:          -8.071
REMARK INTER:                  -7.515
REMARK INTRA:                  -0.556
REMARK UNBOUND:                -0.496
REMARK  Name = cpd321.pdb
REMARK  9 active torsions:
REMARK  status: ('A' for Active; 'I' for Inactive)
REMARK    1  A    between atoms: C_1  and  O_2
REMARK    2  A    between atoms: O_2  and  C_3
REMARK    3  A    between atoms: C_12  and  O_13
REMARK    4  A    between atoms: N_19  and  C_20
REMARK    5  A    between atoms: C_20  and  C_21
REMARK    6  A    between atoms: C_21  and  C_22
REMARK    7  A    between atoms: C_22  and  N_23
REMARK    8  A    between atoms: N_23  and  C_24
REMARK    9  A    between atoms: N_23  and  C_25
REMARK                            x       y       z     vdW  Elec       q    Type
REMARK                         _______ _______ _______ _____ _____    ______ ____
ROOT
ATOM      1  C   UNL     1      46.301 -21.227 -41.483  0.00  0.00    +0.162 A 
ATOM      2  C   UNL     1      45.150 -21.674 -42.130  0.00  0.00    -0.016 A 
ATOM      3  C   UNL     1      43.880 -21.417 -41.586  0.00  0.00    -0.053 A 
ATOM      4  C   UNL     1      43.722 -20.682 -40.395  0.00  0.00    -0.026 A 
ATOM      5  C   UNL     1      44.873 -20.137 -39.830  0.00  0.00    +0.016 A 
ATOM      6  C   UNL     1      46.128 -20.468 -40.333  0.00  0.00    +0.167 A 
ATOM      7  O   UNL     1      47.169 -20.056 -39.535  0.00  0.00    -0.484 OA
ATOM      8  C   UNL     1      46.574 -19.132 -38.587  0.00  0.00    +0.116 C 
ATOM      9  C   UNL     1      47.062 -17.740 -39.018  0.00  0.00    +0.015 C 
ATOM     10  C   UNL     1      46.329 -16.622 -38.300  0.00  0.00    +0.077 C 
ATOM     11  C   UNL     1      44.855 -16.808 -38.398  0.00  0.00    -0.059 C 
ATOM     12  C   UNL     1      44.275 -18.004 -38.577  0.00  0.00    -0.071 C 
ATOM     13  C   UNL     1      45.018 -19.335 -38.574  0.00  0.00    +0.056 C 
ATOM     14  C   UNL     1      44.581 -20.213 -37.370  0.00  0.00    -0.023 C 
ATOM     15  C   UNL     1      43.263 -21.004 -37.535  0.00  0.00    +0.000 C 
ATOM     16  N   UNL     1      42.263 -20.279 -38.326  0.00  0.00    -0.298 N 
ATOM     17  C   UNL     1      42.342 -20.595 -39.771  0.00  0.00    +0.024 C 
ATOM     18  H   UNL     1      42.493 -19.293 -38.201  0.00  0.00    +0.000 HD
ENDROOT
BRANCH   1  20
ATOM     19  C   UNL     1      47.977 -22.824 -42.021  0.00  0.00    +0.079 C 
ATOM     20  O   UNL     1      47.586 -21.466 -41.874  0.00  0.00    -0.491 OA
ENDBRANCH   1  20
BRANCH  10  21
ATOM     21  O   UNL     1      46.667 -16.598 -36.922  0.00  0.00    -0.388 OA
ATOM     22  H   UNL     1      47.160 -17.403 -36.696  0.00  0.00    +0.000 HD
ENDBRANCH  10  21
BRANCH  16  23
ATOM     23  C   UNL     1      40.888 -20.483 -37.841  0.00  0.00    +0.000 C 
BRANCH  23  24
ATOM     24  C   UNL     1      40.691 -21.878 -37.228  0.00  0.00    -0.027 C 
BRANCH  24  25
ATOM     25  C   UNL     1      40.049 -21.769 -35.836  0.00  0.00    -0.001 C 
BRANCH  25  26
ATOM     26  N   UNL     1      40.943 -22.190 -34.743  0.00  0.00    -0.308 N 
ATOM     27  C   UNL     1      40.205 -23.013 -33.782  0.00  0.00    -0.013 C 
ATOM     28  C   UNL     1      41.551 -21.050 -34.053  0.00  0.00    -0.013 C 
ATOM     29  H   UNL     1      41.697 -22.736 -35.161  0.00  0.00    +0.000 HD
ENDBRANCH  25  26
ENDBRANCH  24  25
ENDBRANCH  23  24
ENDBRANCH  16  23
TORSDOF 6
ENDMDL
MODEL 15
REMARK VINA RESULT:    -5.717      2.519      4.315
REMARK INTER + INTRA:          -8.051
REMARK INTER:                  -7.358
REMARK INTRA:                  -0.693
REMARK UNBOUND:                -0.496
REMARK  Name = cpd321.pdb
REMARK  9 active torsions:
REMARK  status: ('A' for Active; 'I' for Inactive)
REMARK    1  A    between atoms: C_1  and  O_2
REMARK    2  A    between atoms: O_2  and  C_3
REMARK    3  A    between atoms: C_12  and  O_13
REMARK    4  A    between atoms: N_19  and  C_20
REMARK    5  A    between atoms: C_20  and  C_21
REMARK    6  A    between atoms: C_21  and  C_22
REMARK    7  A    between atoms: C_22  and  N_23
REMARK    8  A    between atoms: N_23  and  C_24
REMARK    9  A    between atoms: N_23  and  C_25
REMARK                            x       y       z     vdW  Elec       q    Type
REMARK                         _______ _______ _______ _____ _____    ______ ____
ROOT
ATOM      1  C   UNL     1      36.357 -38.085 -28.469  0.00  0.00    +0.162 A 
ATOM      2  C   UNL     1      37.297 -37.244 -29.062  0.00  0.00    -0.016 A 
ATOM      3  C   UNL     1      36.897 -36.034 -29.657  0.00  0.00    -0.053 A 
ATOM      4  C   UNL     1      35.551 -35.618 -29.650  0.00  0.00    -0.026 A 
ATOM      5  C   UNL     1      34.647 -36.410 -28.945  0.00  0.00    +0.016 A 
ATOM      6  C   UNL     1      35.041 -37.642 -28.433  0.00  0.00    +0.167 A 
ATOM      7  O   UNL     1      33.997 -38.412 -27.979  0.00  0.00    -0.484 OA
ATOM      8  C   UNL     1      32.863 -37.507 -27.916  0.00  0.00    +0.116 C 
ATOM      9  C   UNL     1      32.625 -37.261 -26.419  0.00  0.00    +0.015 C 
ATOM     10  C   UNL     1      31.643 -36.131 -26.168  0.00  0.00    +0.077 C 
ATOM     11  C   UNL     1      32.031 -34.914 -26.931  0.00  0.00    -0.059 C 
ATOM     12  C   UNL     1      32.758 -34.953 -28.059  0.00  0.00    -0.071 C 
ATOM     13  C   UNL     1      33.169 -36.233 -28.778  0.00  0.00    +0.056 C 
ATOM     14  C   UNL     1      32.497 -36.327 -30.173  0.00  0.00    -0.023 C 
ATOM     15  C   UNL     1      33.162 -35.528 -31.317  0.00  0.00    +0.000 C 
ATOM     16  N   UNL     1      33.742 -34.261 -30.858  0.00  0.00    -0.298 N 
ATOM     17  C   UNL     1      35.163 -34.397 -30.462  0.00  0.00    +0.024 C 
ATOM     18  H   UNL     1      33.203 -34.009 -30.030  0.00  0.00    +0.000 HD
ENDROOT
BRANCH   1  20
ATOM     19  C   UNL     1      36.776 -40.400 -28.811  0.00  0.00    +0.079 C 
ATOM     20  O   UNL     1      36.610 -39.308 -27.917  0.00  0.00    -0.491 OA
ENDBRANCH   1  20
BRANCH  10  21
ATOM     21  O   UNL     1      30.335 -36.496 -26.579  0.00  0.00    -0.388 OA
ATOM     22  H   UNL     1      29.774 -36.621 -25.797  0.00  0.00    +0.000 HD
ENDBRANCH  10  21
BRANCH  16  23
ATOM     23  C   UNL     1      33.596 -33.173 -31.838  0.00  0.00    +0.000 C 
BRANCH  23  24
ATOM     24  C   UNL     1      33.283 -31.826 -31.167  0.00  0.00    -0.027 C 
BRANCH  24  25
ATOM     25  C   UNL     1      32.518 -32.044 -29.852  0.00  0.00    -0.001 C 
BRANCH  25  26
ATOM     26  N   UNL     1      31.077 -31.757 -29.959  0.00  0.00    -0.308 N 
ATOM     27  C   UNL     1      30.333 -33.001 -30.170  0.00  0.00    -0.013 C 
ATOM     28  C   UNL     1      30.777 -30.813 -31.038  0.00  0.00    -0.013 C 
ATOM     29  H   UNL     1      30.788 -31.324 -29.081  0.00  0.00    +0.000 HD
ENDBRANCH  25  26
ENDBRANCH  24  25
ENDBRANCH  23  24
ENDBRANCH  16  23
TORSDOF 6
ENDMDL
MODEL 16
REMARK VINA RESULT:    -5.701      3.187      5.104
REMARK INTER + INTRA:          -8.031
REMARK INTER:                  -7.540
REMARK INTRA:                  -0.490
REMARK UNBOUND:                -0.496
REMARK  Name = cpd321.pdb
REMARK  9 active torsions:
REMARK  status: ('A' for Active; 'I' for Inactive)
REMARK    1  A    between atoms: C_1  and  O_2
REMARK    2  A    between atoms: O_2  and  C_3
REMARK    3  A    between atoms: C_12  and  O_13
REMARK    4  A    between atoms: N_19  and  C_20
REMARK    5  A    between atoms: C_20  and  C_21
REMARK    6  A    between atoms: C_21  and  C_22
REMARK    7  A    between atoms: C_22  and  N_23
REMARK    8  A    between atoms: N_23  and  C_24
REMARK    9  A    between atoms: N_23  and  C_25
REMARK                            x       y       z     vdW  Elec       q    Type
REMARK                         _______ _______ _______ _____ _____    ______ ____
ROOT
ATOM      1  C   UNL     1      38.235 -35.891 -30.996  0.00  0.00    +0.162 A 
ATOM      2  C   UNL     1      38.891 -36.890 -30.278  0.00  0.00    -0.016 A 
ATOM      3  C   UNL     1      38.169 -37.749 -29.431  0.00  0.00    -0.053 A 
ATOM      4  C   UNL     1      36.770 -37.652 -29.299  0.00  0.00    -0.026 A 
ATOM      5  C   UNL     1      36.119 -36.732 -30.117  0.00  0.00    +0.016 A 
ATOM      6  C   UNL     1      36.852 -35.834 -30.888  0.00  0.00    +0.167 A 
ATOM      7  O   UNL     1      36.089 -34.838 -31.450  0.00  0.00    -0.484 OA
ATOM      8  C   UNL     1      34.715 -35.275 -31.280  0.00  0.00    +0.116 C 
ATOM      9  C   UNL     1      34.245 -35.686 -32.683  0.00  0.00    +0.015 C 
ATOM     10  C   UNL     1      32.915 -36.417 -32.656  0.00  0.00    +0.077 C 
ATOM     11  C   UNL     1      32.946 -37.534 -31.673  0.00  0.00    -0.059 C 
ATOM     12  C   UNL     1      33.761 -37.554 -30.607  0.00  0.00    -0.071 C 
ATOM     13  C   UNL     1      34.661 -36.398 -30.186  0.00  0.00    +0.056 C 
ATOM     14  C   UNL     1      34.218 -35.820 -28.815  0.00  0.00    -0.023 C 
ATOM     15  C   UNL     1      34.692 -36.585 -27.557  0.00  0.00    +0.000 C 
ATOM     16  N   UNL     1      34.751 -38.036 -27.766  0.00  0.00    -0.298 N 
ATOM     17  C   UNL     1      36.081 -38.488 -28.238  0.00  0.00    +0.024 C 
ATOM     18  H   UNL     1      34.070 -38.223 -28.502  0.00  0.00    +0.000 HD
ENDROOT
BRANCH   1  20
ATOM     19  C   UNL     1      40.247 -34.950 -31.842  0.00  0.00    +0.079 C 
ATOM     20  O   UNL     1      38.827 -34.958 -31.798  0.00  0.00    -0.491 OA
ENDBRANCH   1  20
BRANCH  10  21
ATOM     21  O   UNL     1      31.863 -35.542 -32.279  0.00  0.00    -0.388 OA
ATOM     22  H   UNL     1      31.010 -35.957 -32.480  0.00  0.00    +0.000 HD
ENDBRANCH  10  21
BRANCH  16  23
ATOM     23  C   UNL     1      34.350 -38.805 -26.577  0.00  0.00    +0.000 C 
BRANCH  23  24
ATOM     24  C   UNL     1      33.101 -38.218 -25.901  0.00  0.00    -0.027 C 
BRANCH  24  25
ATOM     25  C   UNL     1      33.321 -38.087 -24.386  0.00  0.00    -0.001 C 
BRANCH  25  26
ATOM     26  N   UNL     1      32.465 -37.066 -23.756  0.00  0.00    -0.308 N 
ATOM     27  C   UNL     1      31.293 -36.806 -24.596  0.00  0.00    -0.013 C 
ATOM     28  C   UNL     1      33.184 -35.813 -23.510  0.00  0.00    -0.013 C 
ATOM     29  H   UNL     1      32.169 -37.434 -22.851  0.00  0.00    +0.000 HD
ENDBRANCH  25  26
ENDBRANCH  24  25
ENDBRANCH  23  24
ENDBRANCH  16  23
TORSDOF 6
ENDMDL
MODEL 17
REMARK VINA RESULT:    -5.697     17.299     20.077
REMARK INTER + INTRA:          -8.026
REMARK INTER:                  -7.489
REMARK INTRA:                  -0.537
REMARK UNBOUND:                -0.496
REMARK  Name = cpd321.pdb
REMARK  9 active torsions:
REMARK  status: ('A' for Active; 'I' for Inactive)
REMARK    1  A    between atoms: C_1  and  O_2
REMARK    2  A    between atoms: O_2  and  C_3
REMARK    3  A    between atoms: C_12  and  O_13
REMARK    4  A    between atoms: N_19  and  C_20
REMARK    5  A    between atoms: C_20  and  C_21
REMARK    6  A    between atoms: C_21  and  C_22
REMARK    7  A    between atoms: C_22  and  N_23
REMARK    8  A    between atoms: N_23  and  C_24
REMARK    9  A    between atoms: N_23  and  C_25
REMARK                            x       y       z     vdW  Elec       q    Type
REMARK                         _______ _______ _______ _____ _____    ______ ____
ROOT
ATOM      1  C   UNL     1      45.941 -16.311 -39.577  0.00  0.00    +0.162 A 
ATOM      2  C   UNL     1      44.739 -16.172 -40.268  0.00  0.00    -0.016 A 
ATOM      3  C   UNL     1      43.811 -17.228 -40.305  0.00  0.00    -0.053 A 
ATOM      4  C   UNL     1      44.047 -18.441 -39.629  0.00  0.00    -0.026 A 
ATOM      5  C   UNL     1      45.194 -18.515 -38.842  0.00  0.00    +0.016 A 
ATOM      6  C   UNL     1      46.141 -17.496 -38.881  0.00  0.00    +0.167 A 
ATOM      7  O   UNL     1      47.320 -17.813 -38.248  0.00  0.00    -0.484 OA
ATOM      8  C   UNL     1      47.026 -19.012 -37.485  0.00  0.00    +0.116 C 
ATOM      9  C   UNL     1      46.987 -18.559 -36.018  0.00  0.00    +0.015 C 
ATOM     10  C   UNL     1      46.435 -19.630 -35.096  0.00  0.00    +0.077 C 
ATOM     11  C   UNL     1      45.136 -20.150 -35.608  0.00  0.00    -0.059 C 
ATOM     12  C   UNL     1      44.789 -20.113 -36.903  0.00  0.00    -0.071 C 
ATOM     13  C   UNL     1      45.709 -19.665 -38.033  0.00  0.00    +0.056 C 
ATOM     14  C   UNL     1      46.027 -20.844 -38.991  0.00  0.00    -0.023 C 
ATOM     15  C   UNL     1      44.959 -21.175 -40.058  0.00  0.00    +0.000 C 
ATOM     16  N   UNL     1      43.590 -20.963 -39.573  0.00  0.00    -0.298 N 
ATOM     17  C   UNL     1      43.092 -19.597 -39.857  0.00  0.00    +0.024 C 
ATOM     18  H   UNL     1      43.650 -21.077 -38.561  0.00  0.00    +0.000 HD
ENDROOT
BRANCH   1  20
ATOM     19  C   UNL     1      47.501 -14.957 -40.754  0.00  0.00    +0.079 C 
ATOM     20  O   UNL     1      46.946 -15.388 -39.519  0.00  0.00    -0.491 OA
ENDBRANCH   1  20
BRANCH  10  21
ATOM     21  O   UNL     1      47.329 -20.728 -35.002  0.00  0.00    -0.388 OA
ATOM     22  H   UNL     1      46.959 -21.488 -35.479  0.00  0.00    +0.000 HD
ENDBRANCH  10  21
BRANCH  16  23
ATOM     23  C   UNL     1      42.638 -21.962 -40.083  0.00  0.00    +0.000 C 
BRANCH  23  24
ATOM     24  C   UNL     1      41.179 -21.508 -39.920  0.00  0.00    -0.027 C 
BRANCH  24  25
ATOM     25  C   UNL     1      40.381 -22.540 -39.108  0.00  0.00    -0.001 C 
BRANCH  25  26
ATOM     26  N   UNL     1      39.299 -21.943 -38.304  0.00  0.00    -0.308 N 
ATOM     27  C   UNL     1      39.335 -20.483 -38.421  0.00  0.00    -0.013 C 
ATOM     28  C   UNL     1      39.380 -22.328 -36.893  0.00  0.00    -0.013 C 
ATOM     29  H   UNL     1      38.417 -22.300 -38.671  0.00  0.00    +0.000 HD
ENDBRANCH  25  26
ENDBRANCH  24  25
ENDBRANCH  23  24
ENDBRANCH  16  23
TORSDOF 6
ENDMDL
MODEL 18
REMARK VINA RESULT:    -5.671     15.110     18.421
REMARK INTER + INTRA:          -7.990
REMARK INTER:                  -7.535
REMARK INTRA:                  -0.455
REMARK UNBOUND:                -0.496
REMARK  Name = cpd321.pdb
REMARK  9 active torsions:
REMARK  status: ('A' for Active; 'I' for Inactive)
REMARK    1  A    between atoms: C_1  and  O_2
REMARK    2  A    between atoms: O_2  and  C_3
REMARK    3  A    between atoms: C_12  and  O_13
REMARK    4  A    between atoms: N_19  and  C_20
REMARK    5  A    between atoms: C_20  and  C_21
REMARK    6  A    between atoms: C_21  and  C_22
REMARK    7  A    between atoms: C_22  and  N_23
REMARK    8  A    between atoms: N_23  and  C_24
REMARK    9  A    between atoms: N_23  and  C_25
REMARK                            x       y       z     vdW  Elec       q    Type
REMARK                         _______ _______ _______ _____ _____    ______ ____
ROOT
ATOM      1  C   UNL     1      39.294 -21.551 -34.637  0.00  0.00    +0.162 A 
ATOM      2  C   UNL     1      39.129 -22.586 -35.556  0.00  0.00    -0.016 A 
ATOM      3  C   UNL     1      40.014 -22.725 -36.639  0.00  0.00    -0.053 A 
ATOM      4  C   UNL     1      41.105 -21.852 -36.819  0.00  0.00    -0.026 A 
ATOM      5  C   UNL     1      41.326 -20.902 -35.823  0.00  0.00    +0.016 A 
ATOM      6  C   UNL     1      40.397 -20.723 -34.802  0.00  0.00    +0.167 A 
ATOM      7  O   UNL     1      40.624 -19.603 -34.039  0.00  0.00    -0.484 OA
ATOM      8  C   UNL     1      41.963 -19.170 -34.395  0.00  0.00    +0.116 C 
ATOM      9  C   UNL     1      42.836 -19.515 -33.180  0.00  0.00    +0.015 C 
ATOM     10  C   UNL     1      44.318 -19.373 -33.473  0.00  0.00    +0.077 C 
ATOM     11  C   UNL     1      44.684 -20.109 -34.714  0.00  0.00    -0.059 C 
ATOM     12  C   UNL     1      43.811 -20.368 -35.700  0.00  0.00    -0.071 C 
ATOM     13  C   UNL     1      42.382 -19.842 -35.749  0.00  0.00    +0.056 C 
ATOM     14  C   UNL     1      42.189 -18.866 -36.941  0.00  0.00    -0.023 C 
ATOM     15  C   UNL     1      41.951 -19.506 -38.327  0.00  0.00    +0.000 C 
ATOM     16  N   UNL     1      42.694 -20.758 -38.508  0.00  0.00    -0.298 N 
ATOM     17  C   UNL     1      41.910 -21.948 -38.100  0.00  0.00    +0.024 C 
ATOM     18  H   UNL     1      43.499 -20.678 -37.887  0.00  0.00    +0.000 HD
ENDROOT
BRANCH   1  20
ATOM     19  C   UNL     1      37.202 -20.708 -33.886  0.00  0.00    +0.079 C 
ATOM     20  O   UNL     1      38.470 -21.273 -33.584  0.00  0.00    -0.491 OA
ENDBRANCH   1  20
BRANCH  10  21
ATOM     21  O   UNL     1      44.669 -18.011 -33.663  0.00  0.00    -0.388 OA
ATOM     22  H   UNL     1      44.452 -17.744 -34.570  0.00  0.00    +0.000 HD
ENDBRANCH  10  21
BRANCH  16  23
ATOM     23  C   UNL     1      43.200 -20.934 -39.878  0.00  0.00    +0.000 C 
BRANCH  23  24
ATOM     24  C   UNL     1      44.724 -20.759 -39.961  0.00  0.00    -0.027 C 
BRANCH  24  25
ATOM     25  C   UNL     1      45.392 -22.061 -40.428  0.00  0.00    -0.001 C 
BRANCH  25  26
ATOM     26  N   UNL     1      46.080 -21.935 -41.725  0.00  0.00    -0.308 N 
ATOM     27  C   UNL     1      45.106 -22.005 -42.817  0.00  0.00    -0.013 C 
ATOM     28  C   UNL     1      47.105 -22.965 -41.911  0.00  0.00    -0.013 C 
ATOM     29  H   UNL     1      46.547 -21.029 -41.734  0.00  0.00    +0.000 HD
ENDBRANCH  25  26
ENDBRANCH  24  25
ENDBRANCH  23  24
ENDBRANCH  16  23
TORSDOF 6
ENDMDL
MODEL 19
REMARK VINA RESULT:    -5.587     15.484     18.264
REMARK INTER + INTRA:          -7.880
REMARK INTER:                  -7.208
REMARK INTRA:                  -0.671
REMARK UNBOUND:                -0.496
REMARK  Name = cpd321.pdb
REMARK  9 active torsions:
REMARK  status: ('A' for Active; 'I' for Inactive)
REMARK    1  A    between atoms: C_1  and  O_2
REMARK    2  A    between atoms: O_2  and  C_3
REMARK    3  A    between atoms: C_12  and  O_13
REMARK    4  A    between atoms: N_19  and  C_20
REMARK    5  A    between atoms: C_20  and  C_21
REMARK    6  A    between atoms: C_21  and  C_22
REMARK    7  A    between atoms: C_22  and  N_23
REMARK    8  A    between atoms: N_23  and  C_24
REMARK    9  A    between atoms: N_23  and  C_25
REMARK                            x       y       z     vdW  Elec       q    Type
REMARK                         _______ _______ _______ _____ _____    ______ ____
ROOT
ATOM      1  C   UNL     1      45.811 -21.338 -39.993  0.00  0.00    +0.162 A 
ATOM      2  C   UNL     1      44.856 -21.437 -41.003  0.00  0.00    -0.016 A 
ATOM      3  C   UNL     1      43.513 -21.105 -40.751  0.00  0.00    -0.053 A 
ATOM      4  C   UNL     1      43.093 -20.638 -39.490  0.00  0.00    -0.026 A 
ATOM      5  C   UNL     1      44.081 -20.427 -38.532  0.00  0.00    +0.016 A 
ATOM      6  C   UNL     1      45.390 -20.837 -38.768  0.00  0.00    +0.167 A 
ATOM      7  O   UNL     1      46.195 -20.786 -37.654  0.00  0.00    -0.484 OA
ATOM      8  C   UNL     1      45.444 -20.012 -36.683  0.00  0.00    +0.116 C 
ATOM      9  C   UNL     1      46.164 -18.658 -36.601  0.00  0.00    +0.015 C 
ATOM     10  C   UNL     1      45.367 -17.624 -35.828  0.00  0.00    +0.077 C 
ATOM     11  C   UNL     1      43.971 -17.541 -36.341  0.00  0.00    -0.059 C 
ATOM     12  C   UNL     1      43.355 -18.558 -36.964  0.00  0.00    -0.071 C 
ATOM     13  C   UNL     1      43.937 -19.958 -37.116  0.00  0.00    +0.056 C 
ATOM     14  C   UNL     1      43.093 -20.999 -36.332  0.00  0.00    -0.023 C 
ATOM     15  C   UNL     1      41.809 -21.509 -37.024  0.00  0.00    +0.000 C 
ATOM     16  N   UNL     1      41.149 -20.474 -37.827  0.00  0.00    -0.298 N 
ATOM     17  C   UNL     1      41.607 -20.469 -39.236  0.00  0.00    +0.024 C 
ATOM     18  H   UNL     1      41.427 -19.592 -37.397  0.00  0.00    +0.000 HD
ENDROOT
BRANCH   1  20
ATOM     19  C   UNL     1      47.419 -22.926 -40.729  0.00  0.00    +0.079 C 
ATOM     20  O   UNL     1      47.126 -21.689 -40.094  0.00  0.00    -0.491 OA
ENDBRANCH   1  20
BRANCH  10  21
ATOM     21  O   UNL     1      45.299 -17.962 -34.452  0.00  0.00    -0.388 OA
ATOM     22  H   UNL     1      46.144 -18.346 -34.171  0.00  0.00    +0.000 HD
ENDBRANCH  10  21
BRANCH  16  23
ATOM     23  C   UNL     1      39.681 -20.555 -37.776  0.00  0.00    +0.000 C 
BRANCH  23  24
ATOM     24  C   UNL     1      39.193 -21.609 -36.770  0.00  0.00    -0.027 C 
BRANCH  24  25
ATOM     25  C   UNL     1      38.619 -20.932 -35.515  0.00  0.00    -0.001 C 
BRANCH  25  26
ATOM     26  N   UNL     1      39.115 -21.514 -34.256  0.00  0.00    -0.308 N 
ATOM     27  C   UNL     1      40.245 -20.728 -33.752  0.00  0.00    -0.013 C 
ATOM     28  C   UNL     1      39.519 -22.913 -34.412  0.00  0.00    -0.013 C 
ATOM     29  H   UNL     1      38.347 -21.487 -33.585  0.00  0.00    +0.000 HD
ENDBRANCH  25  26
ENDBRANCH  24  25
ENDBRANCH  23  24
ENDBRANCH  16  23
TORSDOF 6
ENDMDL
