MODEL 1
REMARK VINA RESULT:   -12.611      0.000      0.000
REMARK INTER + INTRA:         -15.767
REMARK INTER:                 -15.560
REMARK INTRA:                  -0.207
REMARK UNBOUND:                -0.207
REMARK  Name = cpd351.pdb
REMARK  5 active torsions:
REMARK  status: ('A' for Active; 'I' for Inactive)
REMARK    1  A    between atoms: C_1  and  C_2
REMARK    2  A    between atoms: C_6  and  C_7
REMARK    3  A    between atoms: C_7  and  N_8
REMARK    4  A    between atoms: C_11  and  C_12
REMARK    5  A    between atoms: C_12  and  N_13
REMARK                            x       y       z     vdW  Elec       q    Type
REMARK                         _______ _______ _______ _____ _____    ______ ____
ROOT
ATOM      1  N   UNL A   1      43.098 -36.987 -31.164  0.00  0.00    -0.349 N 
ATOM      2  C   UNL A   1      42.770 -38.274 -30.910  0.00  0.00    +0.005 A 
ATOM      3  C   UNL A   1      43.633 -39.099 -30.198  0.00  0.00    -0.041 A 
ATOM      4  C   UNL A   1      44.864 -38.609 -29.750  0.00  0.00    -0.025 A 
ATOM      5  C   UNL A   1      45.167 -37.271 -30.010  0.00  0.00    -0.041 A 
ATOM      6  C   UNL A   1      44.271 -36.479 -30.723  0.00  0.00    +0.005 A 
ENDROOT
BRANCH   1   7
ATOM      7  C   UNL A   1      42.165 -36.130 -31.934  0.00  0.00    +0.048 C 
BRANCH   7  13
ATOM      8  C   UNL A   1      38.893 -37.990 -28.568  0.00  0.00    -0.040 C 
ATOM      9  C   UNL A   1      39.169 -37.281 -29.864  0.00  0.00    -0.050 A 
ATOM     10  C   UNL A   1      38.109 -36.792 -30.634  0.00  0.00    -0.059 A 
ATOM     11  C   UNL A   1      38.359 -36.095 -31.815  0.00  0.00    -0.061 A 
ATOM     12  C   UNL A   1      39.670 -35.874 -32.235  0.00  0.00    -0.057 A 
ATOM     13  C   UNL A   1      40.748 -36.345 -31.471  0.00  0.00    -0.028 A 
ATOM     14  C   UNL A   1      40.485 -37.043 -30.280  0.00  0.00    -0.054 A 
ENDBRANCH   7  13
ENDBRANCH   1   7
BRANCH   4  15
ATOM     15  C   UNL A   1      45.838 -39.483 -28.981  0.00  0.00    +0.049 C 
BRANCH  15  16
ATOM     16  N   UNL A   1      47.002 -39.839 -29.788  0.00  0.00    -0.339 N 
ATOM     17  C   UNL A   1      48.205 -39.174 -29.784  0.00  0.00    +0.023 A 
ATOM     18  C   UNL A   1      49.040 -39.793 -30.692  0.00  0.00    -0.019 A 
ATOM     19  C   UNL A   1      48.326 -40.878 -31.268  0.00  0.00    +0.003 A 
ATOM     20  C   UNL A   1      48.649 -41.851 -32.235  0.00  0.00    -0.052 A 
ATOM     21  C   UNL A   1      47.706 -42.825 -32.579  0.00  0.00    -0.061 A 
ATOM     22  C   UNL A   1      46.455 -42.841 -31.972  0.00  0.00    -0.060 A 
ATOM     23  C   UNL A   1      46.109 -41.885 -31.012  0.00  0.00    -0.038 A 
ATOM     24  C   UNL A   1      47.058 -40.904 -30.675  0.00  0.00    +0.050 A 
ATOM     25  C   UNL A   1      50.435 -39.331 -30.957  0.00  0.00    -0.025 C 
ATOM     26  C   UNL A   1      50.935 -38.404 -29.835  0.00  0.00    -0.049 C 
ATOM     27  C   UNL A   1      49.875 -37.364 -29.436  0.00  0.00    -0.047 C 
ATOM     28  C   UNL A   1      48.584 -38.019 -28.916  0.00  0.00    -0.012 C 
ENDBRANCH  15  16
ENDBRANCH   4  15
TORSDOF 4
ENDMDL
MODEL 2
REMARK VINA RESULT:    -8.482      5.647     13.299
REMARK INTER + INTRA:         -10.672
REMARK INTER:                 -10.047
REMARK INTRA:                  -0.625
REMARK UNBOUND:                -0.207
REMARK  Name = cpd351.pdb
REMARK  5 active torsions:
REMARK  status: ('A' for Active; 'I' for Inactive)
REMARK    1  A    between atoms: C_1  and  C_2
REMARK    2  A    between atoms: C_6  and  C_7
REMARK    3  A    between atoms: C_7  and  N_8
REMARK    4  A    between atoms: C_11  and  C_12
REMARK    5  A    between atoms: C_12  and  N_13
REMARK                            x       y       z     vdW  Elec       q    Type
REMARK                         _______ _______ _______ _____ _____    ______ ____
ROOT
ATOM      1  N   UNL A   1      36.937 -37.598 -29.375  0.00  0.00    -0.349 N 
ATOM      2  C   UNL A   1      36.054 -37.761 -30.386  0.00  0.00    +0.005 A 
ATOM      3  C   UNL A   1      34.728 -37.372 -30.240  0.00  0.00    -0.041 A 
ATOM      4  C   UNL A   1      34.286 -36.821 -29.032  0.00  0.00    -0.025 A 
ATOM      5  C   UNL A   1      35.224 -36.645 -28.014  0.00  0.00    -0.041 A 
ATOM      6  C   UNL A   1      36.545 -37.046 -28.205  0.00  0.00    +0.005 A 
ENDROOT
BRANCH   1   7
ATOM      7  C   UNL A   1      38.345 -38.029 -29.552  0.00  0.00    +0.048 C 
BRANCH   7  13
ATOM      8  C   UNL A   1      42.762 -36.101 -31.057  0.00  0.00    -0.040 C 
ATOM      9  C   UNL A   1      41.262 -36.034 -31.000  0.00  0.00    -0.050 A 
ATOM     10  C   UNL A   1      40.579 -35.017 -31.674  0.00  0.00    -0.059 A 
ATOM     11  C   UNL A   1      39.187 -34.974 -31.662  0.00  0.00    -0.061 A 
ATOM     12  C   UNL A   1      38.460 -35.950 -30.981  0.00  0.00    -0.057 A 
ATOM     13  C   UNL A   1      39.124 -36.987 -30.309  0.00  0.00    -0.028 A 
ATOM     14  C   UNL A   1      40.530 -37.023 -30.331  0.00  0.00    -0.054 A 
ENDBRANCH   7  13
ENDBRANCH   1   7
BRANCH   4  15
ATOM     15  C   UNL A   1      32.844 -36.396 -28.831  0.00  0.00    +0.049 C 
BRANCH  15  16
ATOM     16  N   UNL A   1      32.422 -35.414 -29.825  0.00  0.00    -0.339 N 
ATOM     17  C   UNL A   1      31.397 -35.583 -30.724  0.00  0.00    +0.023 A 
ATOM     18  C   UNL A   1      31.323 -34.450 -31.509  0.00  0.00    -0.019 A 
ATOM     19  C   UNL A   1      32.335 -33.553 -31.072  0.00  0.00    +0.003 A 
ATOM     20  C   UNL A   1      32.739 -32.266 -31.483  0.00  0.00    -0.052 A 
ATOM     21  C   UNL A   1      33.786 -31.624 -30.816  0.00  0.00    -0.061 A 
ATOM     22  C   UNL A   1      34.430 -32.243 -29.750  0.00  0.00    -0.060 A 
ATOM     23  C   UNL A   1      34.050 -33.521 -29.325  0.00  0.00    -0.038 A 
ATOM     24  C   UNL A   1      33.001 -34.166 -30.003  0.00  0.00    +0.050 A 
ATOM     25  C   UNL A   1      30.321 -34.284 -32.604  0.00  0.00    -0.025 C 
ATOM     26  C   UNL A   1      29.171 -35.297 -32.461  0.00  0.00    -0.049 C 
ATOM     27  C   UNL A   1      29.688 -36.709 -32.138  0.00  0.00    -0.047 C 
ATOM     28  C   UNL A   1      30.473 -36.752 -30.816  0.00  0.00    -0.012 C 
ENDBRANCH  15  16
ENDBRANCH   4  15
TORSDOF 4
ENDMDL
MODEL 3
REMARK VINA RESULT:    -8.402      7.060     11.805
REMARK INTER + INTRA:         -10.573
REMARK INTER:                  -9.915
REMARK INTRA:                  -0.659
REMARK UNBOUND:                -0.207
REMARK  Name = cpd351.pdb
REMARK  5 active torsions:
REMARK  status: ('A' for Active; 'I' for Inactive)
REMARK    1  A    between atoms: C_1  and  C_2
REMARK    2  A    between atoms: C_6  and  C_7
REMARK    3  A    between atoms: C_7  and  N_8
REMARK    4  A    between atoms: C_11  and  C_12
REMARK    5  A    between atoms: C_12  and  N_13
REMARK                            x       y       z     vdW  Elec       q    Type
REMARK                         _______ _______ _______ _____ _____    ______ ____
ROOT
ATOM      1  N   UNL A   1      33.190 -32.163 -30.632  0.00  0.00    -0.349 N 
ATOM      2  C   UNL A   1      32.557 -32.953 -31.528  0.00  0.00    +0.005 A 
ATOM      3  C   UNL A   1      33.149 -34.125 -31.983  0.00  0.00    -0.041 A 
ATOM      4  C   UNL A   1      34.421 -34.492 -31.531  0.00  0.00    -0.025 A 
ATOM      5  C   UNL A   1      35.042 -33.667 -30.591  0.00  0.00    -0.041 A 
ATOM      6  C   UNL A   1      34.410 -32.504 -30.159  0.00  0.00    +0.005 A 
ENDROOT
BRANCH   1   7
ATOM      7  C   UNL A   1      32.541 -30.912 -30.168  0.00  0.00    +0.048 C 
BRANCH   7  13
ATOM      8  C   UNL A   1      27.586 -29.948 -30.107  0.00  0.00    -0.040 C 
ATOM      9  C   UNL A   1      28.773 -30.703 -29.581  0.00  0.00    -0.050 A 
ATOM     10  C   UNL A   1      28.600 -31.697 -28.613  0.00  0.00    -0.059 A 
ATOM     11  C   UNL A   1      29.691 -32.431 -28.152  0.00  0.00    -0.061 A 
ATOM     12  C   UNL A   1      30.967 -32.183 -28.657  0.00  0.00    -0.057 A 
ATOM     13  C   UNL A   1      31.162 -31.199 -29.638  0.00  0.00    -0.028 A 
ATOM     14  C   UNL A   1      30.053 -30.468 -30.099  0.00  0.00    -0.054 A 
ENDBRANCH   7  13
ENDBRANCH   1   7
BRANCH   4  15
ATOM     15  C   UNL A   1      35.105 -35.757 -32.015  0.00  0.00    +0.049 C 
BRANCH  15  16
ATOM     16  N   UNL A   1      36.111 -36.227 -31.067  0.00  0.00    -0.339 N 
ATOM     17  C   UNL A   1      35.853 -36.704 -29.804  0.00  0.00    +0.023 A 
ATOM     18  C   UNL A   1      37.058 -37.023 -29.212  0.00  0.00    -0.019 A 
ATOM     19  C   UNL A   1      38.090 -36.737 -30.145  0.00  0.00    +0.003 A 
ATOM     20  C   UNL A   1      39.494 -36.854 -30.110  0.00  0.00    -0.052 A 
ATOM     21  C   UNL A   1      40.247 -36.498 -31.233  0.00  0.00    -0.061 A 
ATOM     22  C   UNL A   1      39.621 -36.033 -32.384  0.00  0.00    -0.060 A 
ATOM     23  C   UNL A   1      38.229 -35.905 -32.444  0.00  0.00    -0.038 A 
ATOM     24  C   UNL A   1      37.477 -36.258 -31.309  0.00  0.00    +0.050 A 
ATOM     25  C   UNL A   1      37.161 -37.569 -27.826  0.00  0.00    -0.025 C 
ATOM     26  C   UNL A   1      35.804 -38.107 -27.339  0.00  0.00    -0.049 C 
ATOM     27  C   UNL A   1      34.653 -37.143 -27.670  0.00  0.00    -0.047 C 
ATOM     28  C   UNL A   1      34.510 -36.906 -29.184  0.00  0.00    -0.012 C 
ENDBRANCH  15  16
ENDBRANCH   4  15
TORSDOF 4
ENDMDL
MODEL 4
REMARK VINA RESULT:    -8.371      6.715     14.510
REMARK INTER + INTRA:         -10.536
REMARK INTER:                  -9.775
REMARK INTRA:                  -0.761
REMARK UNBOUND:                -0.207
REMARK  Name = cpd351.pdb
REMARK  5 active torsions:
REMARK  status: ('A' for Active; 'I' for Inactive)
REMARK    1  A    between atoms: C_1  and  C_2
REMARK    2  A    between atoms: C_6  and  C_7
REMARK    3  A    between atoms: C_7  and  N_8
REMARK    4  A    between atoms: C_11  and  C_12
REMARK    5  A    between atoms: C_12  and  N_13
REMARK                            x       y       z     vdW  Elec       q    Type
REMARK                         _______ _______ _______ _____ _____    ______ ____
ROOT
ATOM      1  N   UNL A   1      35.528 -36.710 -29.996  0.00  0.00    -0.349 N 
ATOM      2  C   UNL A   1      34.955 -37.169 -31.132  0.00  0.00    +0.005 A 
ATOM      3  C   UNL A   1      34.309 -36.299 -32.002  0.00  0.00    -0.041 A 
ATOM      4  C   UNL A   1      34.229 -34.936 -31.703  0.00  0.00    -0.025 A 
ATOM      5  C   UNL A   1      34.848 -34.487 -30.535  0.00  0.00    -0.041 A 
ATOM      6  C   UNL A   1      35.488 -35.393 -29.692  0.00  0.00    +0.005 A 
ENDROOT
BRANCH   1   7
ATOM      7  C   UNL A   1      36.204 -37.659 -29.079  0.00  0.00    +0.048 C 
BRANCH   7  13
ATOM      8  C   UNL A   1      40.209 -36.268 -31.821  0.00  0.00    -0.040 C 
ATOM      9  C   UNL A   1      39.626 -36.984 -30.636  0.00  0.00    -0.050 A 
ATOM     10  C   UNL A   1      40.468 -37.599 -29.705  0.00  0.00    -0.059 A 
ATOM     11  C   UNL A   1      39.936 -38.228 -28.580  0.00  0.00    -0.061 A 
ATOM     12  C   UNL A   1      38.557 -38.245 -28.372  0.00  0.00    -0.057 A 
ATOM     13  C   UNL A   1      37.695 -37.623 -29.287  0.00  0.00    -0.028 A 
ATOM     14  C   UNL A   1      38.243 -36.988 -30.416  0.00  0.00    -0.054 A 
ENDBRANCH   7  13
ENDBRANCH   1   7
BRANCH   4  15
ATOM     15  C   UNL A   1      33.521 -33.958 -32.622  0.00  0.00    +0.049 C 
BRANCH  15  16
ATOM     16  N   UNL A   1      32.179 -33.638 -32.145  0.00  0.00    -0.339 N 
ATOM     17  C   UNL A   1      31.043 -34.361 -32.423  0.00  0.00    +0.023 A 
ATOM     18  C   UNL A   1      29.974 -33.732 -31.818  0.00  0.00    -0.019 A 
ATOM     19  C   UNL A   1      30.473 -32.587 -31.140  0.00  0.00    +0.003 A 
ATOM     20  C   UNL A   1      29.871 -31.577 -30.362  0.00  0.00    -0.052 A 
ATOM     21  C   UNL A   1      30.662 -30.572 -29.800  0.00  0.00    -0.061 A 
ATOM     22  C   UNL A   1      32.038 -30.561 -30.001  0.00  0.00    -0.060 A 
ATOM     23  C   UNL A   1      32.660 -31.550 -30.770  0.00  0.00    -0.038 A 
ATOM     24  C   UNL A   1      31.858 -32.556 -31.339  0.00  0.00    +0.050 A 
ATOM     25  C   UNL A   1      28.573 -34.239 -31.913  0.00  0.00    -0.025 C 
ATOM     26  C   UNL A   1      28.545 -35.706 -32.380  0.00  0.00    -0.049 C 
ATOM     27  C   UNL A   1      29.502 -35.951 -33.557  0.00  0.00    -0.047 C 
ATOM     28  C   UNL A   1      30.964 -35.638 -33.194  0.00  0.00    -0.012 C 
ENDBRANCH  15  16
ENDBRANCH   4  15
TORSDOF 4
ENDMDL
MODEL 5
REMARK VINA RESULT:    -8.267      5.026     12.324
REMARK INTER + INTRA:         -10.407
REMARK INTER:                  -9.593
REMARK INTRA:                  -0.814
REMARK UNBOUND:                -0.207
REMARK  Name = cpd351.pdb
REMARK  5 active torsions:
REMARK  status: ('A' for Active; 'I' for Inactive)
REMARK    1  A    between atoms: C_1  and  C_2
REMARK    2  A    between atoms: C_6  and  C_7
REMARK    3  A    between atoms: C_7  and  N_8
REMARK    4  A    between atoms: C_11  and  C_12
REMARK    5  A    between atoms: C_12  and  N_13
REMARK                            x       y       z     vdW  Elec       q    Type
REMARK                         _______ _______ _______ _____ _____    ______ ____
ROOT
ATOM      1  N   UNL A   1      37.474 -38.070 -28.870  0.00  0.00    -0.349 N 
ATOM      2  C   UNL A   1      36.713 -38.842 -29.678  0.00  0.00    +0.005 A 
ATOM      3  C   UNL A   1      35.345 -38.625 -29.784  0.00  0.00    -0.041 A 
ATOM      4  C   UNL A   1      34.734 -37.612 -29.038  0.00  0.00    -0.025 A 
ATOM      5  C   UNL A   1      35.547 -36.818 -28.228  0.00  0.00    -0.041 A 
ATOM      6  C   UNL A   1      36.916 -37.067 -28.155  0.00  0.00    +0.005 A 
ENDROOT
BRANCH   1   7
ATOM      7  C   UNL A   1      38.932 -38.327 -28.767  0.00  0.00    +0.048 C 
BRANCH   7  13
ATOM      8  C   UNL A   1      43.257 -37.169 -31.101  0.00  0.00    -0.040 C 
ATOM      9  C   UNL A   1      41.773 -36.991 -30.941  0.00  0.00    -0.050 A 
ATOM     10  C   UNL A   1      41.070 -36.150 -31.810  0.00  0.00    -0.059 A 
ATOM     11  C   UNL A   1      39.688 -36.014 -31.696  0.00  0.00    -0.061 A 
ATOM     12  C   UNL A   1      38.992 -36.722 -30.715  0.00  0.00    -0.057 A 
ATOM     13  C   UNL A   1      39.676 -37.581 -29.842  0.00  0.00    -0.028 A 
ATOM     14  C   UNL A   1      41.070 -37.713 -29.969  0.00  0.00    -0.054 A 
ENDBRANCH   7  13
ENDBRANCH   1   7
BRANCH   4  15
ATOM     15  C   UNL A   1      33.241 -37.353 -29.117  0.00  0.00    +0.049 C 
BRANCH  15  16
ATOM     16  N   UNL A   1      32.903 -36.458 -30.219  0.00  0.00    -0.339 N 
ATOM     17  C   UNL A   1      32.872 -35.086 -30.148  0.00  0.00    +0.023 A 
ATOM     18  C   UNL A   1      32.486 -34.601 -31.382  0.00  0.00    -0.019 A 
ATOM     19  C   UNL A   1      32.278 -35.714 -32.239  0.00  0.00    +0.003 A 
ATOM     20  C   UNL A   1      31.882 -35.844 -33.586  0.00  0.00    -0.052 A 
ATOM     21  C   UNL A   1      31.789 -37.115 -34.160  0.00  0.00    -0.061 A 
ATOM     22  C   UNL A   1      32.085 -38.250 -33.414  0.00  0.00    -0.060 A 
ATOM     23  C   UNL A   1      32.477 -38.148 -32.075  0.00  0.00    -0.038 A 
ATOM     24  C   UNL A   1      32.563 -36.868 -31.500  0.00  0.00    +0.050 A 
ATOM     25  C   UNL A   1      32.339 -33.143 -31.670  0.00  0.00    -0.025 C 
ATOM     26  C   UNL A   1      33.055 -32.291 -30.607  0.00  0.00    -0.049 C 
ATOM     27  C   UNL A   1      32.771 -32.796 -29.183  0.00  0.00    -0.047 C 
ATOM     28  C   UNL A   1      33.245 -34.245 -28.973  0.00  0.00    -0.012 C 
ENDBRANCH  15  16
ENDBRANCH   4  15
TORSDOF 4
ENDMDL
MODEL 6
REMARK VINA RESULT:    -8.157     17.791     20.328
REMARK INTER + INTRA:         -10.271
REMARK INTER:                  -9.176
REMARK INTRA:                  -1.095
REMARK UNBOUND:                -0.207
REMARK  Name = cpd351.pdb
REMARK  5 active torsions:
REMARK  status: ('A' for Active; 'I' for Inactive)
REMARK    1  A    between atoms: C_1  and  C_2
REMARK    2  A    between atoms: C_6  and  C_7
REMARK    3  A    between atoms: C_7  and  N_8
REMARK    4  A    between atoms: C_11  and  C_12
REMARK    5  A    between atoms: C_12  and  N_13
REMARK                            x       y       z     vdW  Elec       q    Type
REMARK                         _______ _______ _______ _____ _____    ______ ____
ROOT
ATOM      1  N   UNL A   1      42.965 -19.120 -34.448  0.00  0.00    -0.349 N 
ATOM      2  C   UNL A   1      42.921 -19.661 -35.686  0.00  0.00    +0.005 A 
ATOM      3  C   UNL A   1      44.092 -19.998 -36.356  0.00  0.00    -0.041 A 
ATOM      4  C   UNL A   1      45.335 -19.763 -35.759  0.00  0.00    -0.025 A 
ATOM      5  C   UNL A   1      45.349 -19.223 -34.472  0.00  0.00    -0.041 A 
ATOM      6  C   UNL A   1      44.151 -18.904 -33.836  0.00  0.00    +0.005 A 
ENDROOT
BRANCH   1   7
ATOM      7  C   UNL A   1      41.702 -18.761 -33.758  0.00  0.00    +0.048 C 
BRANCH   7  13
ATOM      8  C   UNL A   1      41.298 -23.288 -31.558  0.00  0.00    -0.040 C 
ATOM      9  C   UNL A   1      40.722 -22.203 -32.423  0.00  0.00    -0.050 A 
ATOM     10  C   UNL A   1      39.423 -22.323 -32.926  0.00  0.00    -0.059 A 
ATOM     11  C   UNL A   1      38.866 -21.301 -33.693  0.00  0.00    -0.061 A 
ATOM     12  C   UNL A   1      39.599 -20.145 -33.959  0.00  0.00    -0.057 A 
ATOM     13  C   UNL A   1      40.899 -19.997 -33.453  0.00  0.00    -0.028 A 
ATOM     14  C   UNL A   1      41.449 -21.033 -32.677  0.00  0.00    -0.054 A 
ENDBRANCH   7  13
ENDBRANCH   1   7
BRANCH   4  15
ATOM     15  C   UNL A   1      46.634 -20.105 -36.464  0.00  0.00    +0.049 C 
BRANCH  15  16
ATOM     16  N   UNL A   1      46.703 -19.511 -37.795  0.00  0.00    -0.339 N 
ATOM     17  C   UNL A   1      46.881 -18.174 -38.061  0.00  0.00    +0.023 A 
ATOM     18  C   UNL A   1      46.866 -18.003 -39.431  0.00  0.00    -0.019 A 
ATOM     19  C   UNL A   1      46.679 -19.280 -40.025  0.00  0.00    +0.003 A 
ATOM     20  C   UNL A   1      46.582 -19.729 -41.358  0.00  0.00    -0.052 A 
ATOM     21  C   UNL A   1      46.416 -21.092 -41.619  0.00  0.00    -0.061 A 
ATOM     22  C   UNL A   1      46.348 -22.008 -40.575  0.00  0.00    -0.060 A 
ATOM     23  C   UNL A   1      46.439 -21.588 -39.243  0.00  0.00    -0.038 A 
ATOM     24  C   UNL A   1      46.599 -20.215 -38.986  0.00  0.00    +0.050 A 
ATOM     25  C   UNL A   1      47.027 -16.670 -40.084  0.00  0.00    -0.025 C 
ATOM     26  C   UNL A   1      47.613 -15.639 -39.104  0.00  0.00    -0.049 C 
ATOM     27  C   UNL A   1      46.937 -15.710 -37.725  0.00  0.00    -0.047 C 
ATOM     28  C   UNL A   1      47.110 -17.088 -37.062  0.00  0.00    -0.012 C 
ENDBRANCH  15  16
ENDBRANCH   4  15
TORSDOF 4
ENDMDL
MODEL 7
REMARK VINA RESULT:    -8.089     17.435     20.578
REMARK INTER + INTRA:         -10.188
REMARK INTER:                  -9.196
REMARK INTRA:                  -0.992
REMARK UNBOUND:                -0.207
REMARK  Name = cpd351.pdb
REMARK  5 active torsions:
REMARK  status: ('A' for Active; 'I' for Inactive)
REMARK    1  A    between atoms: C_1  and  C_2
REMARK    2  A    between atoms: C_6  and  C_7
REMARK    3  A    between atoms: C_7  and  N_8
REMARK    4  A    between atoms: C_11  and  C_12
REMARK    5  A    between atoms: C_12  and  N_13
REMARK                            x       y       z     vdW  Elec       q    Type
REMARK                         _______ _______ _______ _____ _____    ______ ____
ROOT
ATOM      1  N   UNL A   1      41.640 -19.855 -35.443  0.00  0.00    -0.349 N 
ATOM      2  C   UNL A   1      41.645 -20.531 -36.614  0.00  0.00    +0.005 A 
ATOM      3  C   UNL A   1      42.789 -20.575 -37.403  0.00  0.00    -0.041 A 
ATOM      4  C   UNL A   1      43.947 -19.902 -37.000  0.00  0.00    -0.025 A 
ATOM      5  C   UNL A   1      43.919 -19.231 -35.777  0.00  0.00    -0.041 A 
ATOM      6  C   UNL A   1      42.752 -19.216 -35.015  0.00  0.00    +0.005 A 
ENDROOT
BRANCH   1   7
ATOM      7  C   UNL A   1      40.405 -19.815 -34.623  0.00  0.00    +0.048 C 
BRANCH   7  13
ATOM      8  C   UNL A   1      41.438 -23.900 -31.840  0.00  0.00    -0.040 C 
ATOM      9  C   UNL A   1      40.566 -23.186 -32.834  0.00  0.00    -0.050 A 
ATOM     10  C   UNL A   1      39.396 -23.792 -33.303  0.00  0.00    -0.059 A 
ATOM     11  C   UNL A   1      38.560 -23.118 -34.192  0.00  0.00    -0.061 A 
ATOM     12  C   UNL A   1      38.881 -21.829 -34.616  0.00  0.00    -0.057 A 
ATOM     13  C   UNL A   1      40.042 -21.197 -34.148  0.00  0.00    -0.028 A 
ATOM     14  C   UNL A   1      40.876 -21.885 -33.249  0.00  0.00    -0.054 A 
ENDBRANCH   7  13
ENDBRANCH   1   7
BRANCH   4  15
ATOM     15  C   UNL A   1      45.210 -19.917 -37.840  0.00  0.00    +0.049 C 
BRANCH  15  16
ATOM     16  N   UNL A   1      44.942 -19.559 -39.230  0.00  0.00    -0.339 N 
ATOM     17  C   UNL A   1      45.139 -20.380 -40.315  0.00  0.00    +0.023 A 
ATOM     18  C   UNL A   1      44.796 -19.678 -41.452  0.00  0.00    -0.019 A 
ATOM     19  C   UNL A   1      44.369 -18.384 -41.051  0.00  0.00    +0.003 A 
ATOM     20  C   UNL A   1      43.910 -17.250 -41.751  0.00  0.00    -0.052 A 
ATOM     21  C   UNL A   1      43.537 -16.104 -41.043  0.00  0.00    -0.061 A 
ATOM     22  C   UNL A   1      43.612 -16.075 -39.655  0.00  0.00    -0.060 A 
ATOM     23  C   UNL A   1      44.067 -17.186 -38.937  0.00  0.00    -0.038 A 
ATOM     24  C   UNL A   1      44.448 -18.334 -39.654  0.00  0.00    +0.050 A 
ATOM     25  C   UNL A   1      44.890 -20.260 -42.824  0.00  0.00    -0.025 C 
ATOM     26  C   UNL A   1      44.995 -21.794 -42.770  0.00  0.00    -0.049 C 
ATOM     27  C   UNL A   1      45.992 -22.263 -41.698  0.00  0.00    -0.047 C 
ATOM     28  C   UNL A   1      45.587 -21.804 -40.286  0.00  0.00    -0.012 C 
ENDBRANCH  15  16
ENDBRANCH   4  15
TORSDOF 4
ENDMDL
MODEL 8
REMARK VINA RESULT:    -7.940     17.233     20.670
REMARK INTER + INTRA:         -10.003
REMARK INTER:                  -8.978
REMARK INTRA:                  -1.025
REMARK UNBOUND:                -0.207
REMARK  Name = cpd351.pdb
REMARK  5 active torsions:
REMARK  status: ('A' for Active; 'I' for Inactive)
REMARK    1  A    between atoms: C_1  and  C_2
REMARK    2  A    between atoms: C_6  and  C_7
REMARK    3  A    between atoms: C_7  and  N_8
REMARK    4  A    between atoms: C_11  and  C_12
REMARK    5  A    between atoms: C_12  and  N_13
REMARK                            x       y       z     vdW  Elec       q    Type
REMARK                         _______ _______ _______ _____ _____    ______ ____
ROOT
ATOM      1  N   UNL A   1      43.381 -19.516 -37.514  0.00  0.00    -0.349 N 
ATOM      2  C   UNL A   1      43.767 -18.771 -36.454  0.00  0.00    +0.005 A 
ATOM      3  C   UNL A   1      43.400 -19.129 -35.162  0.00  0.00    -0.041 A 
ATOM      4  C   UNL A   1      42.607 -20.261 -34.946  0.00  0.00    -0.025 A 
ATOM      5  C   UNL A   1      42.241 -21.023 -36.056  0.00  0.00    -0.041 A 
ATOM      6  C   UNL A   1      42.635 -20.629 -37.333  0.00  0.00    +0.005 A 
ENDROOT
BRANCH   1   7
ATOM      7  C   UNL A   1      43.778 -19.108 -38.883  0.00  0.00    +0.048 C 
BRANCH   7  13
ATOM      8  C   UNL A   1      44.991 -22.168 -42.712  0.00  0.00    -0.040 C 
ATOM      9  C   UNL A   1      45.255 -21.642 -41.329  0.00  0.00    -0.050 A 
ATOM     10  C   UNL A   1      46.371 -22.084 -40.613  0.00  0.00    -0.059 A 
ATOM     11  C   UNL A   1      46.647 -21.567 -39.348  0.00  0.00    -0.061 A 
ATOM     12  C   UNL A   1      45.813 -20.600 -38.788  0.00  0.00    -0.057 A 
ATOM     13  C   UNL A   1      44.694 -20.133 -39.494  0.00  0.00    -0.028 A 
ATOM     14  C   UNL A   1      44.428 -20.658 -40.771  0.00  0.00    -0.054 A 
ENDBRANCH   7  13
ENDBRANCH   1   7
BRANCH   4  15
ATOM     15  C   UNL A   1      42.176 -20.677 -33.552  0.00  0.00    +0.049 C 
BRANCH  15  16
ATOM     16  N   UNL A   1      40.736 -20.528 -33.362  0.00  0.00    -0.339 N 
ATOM     17  C   UNL A   1      40.096 -19.361 -33.018  0.00  0.00    +0.023 A 
ATOM     18  C   UNL A   1      38.746 -19.628 -32.910  0.00  0.00    -0.019 A 
ATOM     19  C   UNL A   1      38.552 -21.005 -33.202  0.00  0.00    +0.003 A 
ATOM     20  C   UNL A   1      37.416 -21.839 -33.250  0.00  0.00    -0.052 A 
ATOM     21  C   UNL A   1      37.559 -23.184 -33.602  0.00  0.00    -0.061 A 
ATOM     22  C   UNL A   1      38.812 -23.704 -33.907  0.00  0.00    -0.060 A 
ATOM     23  C   UNL A   1      39.955 -22.899 -33.864  0.00  0.00    -0.038 A 
ATOM     24  C   UNL A   1      39.806 -21.548 -33.503  0.00  0.00    +0.050 A 
ATOM     25  C   UNL A   1      37.740 -18.587 -32.543  0.00  0.00    -0.025 C 
ATOM     26  C   UNL A   1      38.316 -17.171 -32.722  0.00  0.00    -0.049 C 
ATOM     27  C   UNL A   1      39.740 -17.056 -32.153  0.00  0.00    -0.047 C 
ATOM     28  C   UNL A   1      40.722 -18.017 -32.846  0.00  0.00    -0.012 C 
ENDBRANCH  15  16
ENDBRANCH   4  15
TORSDOF 4
ENDMDL
MODEL 9
REMARK VINA RESULT:    -7.920     17.998     20.606
REMARK INTER + INTRA:          -9.979
REMARK INTER:                  -8.914
REMARK INTRA:                  -1.065
REMARK UNBOUND:                -0.207
REMARK  Name = cpd351.pdb
REMARK  5 active torsions:
REMARK  status: ('A' for Active; 'I' for Inactive)
REMARK    1  A    between atoms: C_1  and  C_2
REMARK    2  A    between atoms: C_6  and  C_7
REMARK    3  A    between atoms: C_7  and  N_8
REMARK    4  A    between atoms: C_11  and  C_12
REMARK    5  A    between atoms: C_12  and  N_13
REMARK                            x       y       z     vdW  Elec       q    Type
REMARK                         _______ _______ _______ _____ _____    ______ ____
ROOT
ATOM      1  N   UNL A   1      43.212 -19.144 -34.437  0.00  0.00    -0.349 N 
ATOM      2  C   UNL A   1      43.450 -18.251 -35.425  0.00  0.00    +0.005 A 
ATOM      3  C   UNL A   1      44.679 -18.222 -36.074  0.00  0.00    -0.041 A 
ATOM      4  C   UNL A   1      45.694 -19.107 -35.697  0.00  0.00    -0.025 A 
ATOM      5  C   UNL A   1      45.413 -20.031 -34.689  0.00  0.00    -0.041 A 
ATOM      6  C   UNL A   1      44.166 -20.028 -34.069  0.00  0.00    +0.005 A 
ENDROOT
BRANCH   1   7
ATOM      7  C   UNL A   1      41.896 -19.149 -33.754  0.00  0.00    +0.048 C 
BRANCH   7  13
ATOM      8  C   UNL A   1      39.657 -22.838 -36.376  0.00  0.00    -0.040 C 
ATOM      9  C   UNL A   1      40.159 -22.286 -35.072  0.00  0.00    -0.050 A 
ATOM     10  C   UNL A   1      40.081 -23.055 -33.907  0.00  0.00    -0.059 A 
ATOM     11  C   UNL A   1      40.584 -22.566 -32.704  0.00  0.00    -0.061 A 
ATOM     12  C   UNL A   1      41.177 -21.304 -32.652  0.00  0.00    -0.057 A 
ATOM     13  C   UNL A   1      41.278 -20.521 -33.811  0.00  0.00    -0.028 A 
ATOM     14  C   UNL A   1      40.771 -21.026 -35.021  0.00  0.00    -0.054 A 
ENDBRANCH   7  13
ENDBRANCH   1   7
BRANCH   4  15
ATOM     15  C   UNL A   1      47.053 -19.097 -36.373  0.00  0.00    +0.049 C 
BRANCH  15  16
ATOM     16  N   UNL A   1      46.946 -18.819 -37.802  0.00  0.00    -0.339 N 
ATOM     17  C   UNL A   1      47.069 -17.578 -38.382  0.00  0.00    +0.023 A 
ATOM     18  C   UNL A   1      46.882 -17.720 -39.742  0.00  0.00    -0.019 A 
ATOM     19  C   UNL A   1      46.641 -19.095 -40.006  0.00  0.00    +0.003 A 
ATOM     20  C   UNL A   1      46.385 -19.831 -41.181  0.00  0.00    -0.052 A 
ATOM     21  C   UNL A   1      46.207 -21.215 -41.106  0.00  0.00    -0.061 A 
ATOM     22  C   UNL A   1      46.284 -21.872 -39.882  0.00  0.00    -0.060 A 
ATOM     23  C   UNL A   1      46.534 -21.165 -38.701  0.00  0.00    -0.038 A 
ATOM     24  C   UNL A   1      46.705 -19.771 -38.781  0.00  0.00    +0.050 A 
ATOM     25  C   UNL A   1      46.940 -16.571 -40.694  0.00  0.00    -0.025 C 
ATOM     26  C   UNL A   1      47.629 -15.353 -40.052  0.00  0.00    -0.049 C 
ATOM     27  C   UNL A   1      47.131 -15.103 -38.619  0.00  0.00    -0.047 C 
ATOM     28  C   UNL A   1      47.406 -16.299 -37.690  0.00  0.00    -0.012 C 
ENDBRANCH  15  16
ENDBRANCH   4  15
TORSDOF 4
ENDMDL
MODEL 10
REMARK VINA RESULT:    -7.887     17.850     20.635
REMARK INTER + INTRA:          -9.939
REMARK INTER:                  -8.943
REMARK INTRA:                  -0.996
REMARK UNBOUND:                -0.207
REMARK  Name = cpd351.pdb
REMARK  5 active torsions:
REMARK  status: ('A' for Active; 'I' for Inactive)
REMARK    1  A    between atoms: C_1  and  C_2
REMARK    2  A    between atoms: C_6  and  C_7
REMARK    3  A    between atoms: C_7  and  N_8
REMARK    4  A    between atoms: C_11  and  C_12
REMARK    5  A    between atoms: C_12  and  N_13
REMARK                            x       y       z     vdW  Elec       q    Type
REMARK                         _______ _______ _______ _____ _____    ______ ____
ROOT
ATOM      1  N   UNL A   1      43.006 -19.303 -34.145  0.00  0.00    -0.349 N 
ATOM      2  C   UNL A   1      42.845 -19.675 -35.435  0.00  0.00    +0.005 A 
ATOM      3  C   UNL A   1      43.940 -20.031 -36.213  0.00  0.00    -0.041 A 
ATOM      4  C   UNL A   1      45.229 -19.990 -35.673  0.00  0.00    -0.025 A 
ATOM      5  C   UNL A   1      45.363 -19.623 -34.333  0.00  0.00    -0.041 A 
ATOM      6  C   UNL A   1      44.238 -19.278 -33.588  0.00  0.00    +0.005 A 
ENDROOT
BRANCH   1   7
ATOM      7  C   UNL A   1      41.822 -18.920 -33.337  0.00  0.00    +0.048 C 
BRANCH   7  13
ATOM      8  C   UNL A   1      37.249 -21.055 -33.437  0.00  0.00    -0.040 C 
ATOM      9  C   UNL A   1      38.715 -21.128 -33.116  0.00  0.00    -0.050 A 
ATOM     10  C   UNL A   1      39.267 -22.316 -32.625  0.00  0.00    -0.059 A 
ATOM     11  C   UNL A   1      40.633 -22.404 -32.367  0.00  0.00    -0.061 A 
ATOM     12  C   UNL A   1      41.464 -21.308 -32.601  0.00  0.00    -0.057 A 
ATOM     13  C   UNL A   1      40.933 -20.112 -33.106  0.00  0.00    -0.028 A 
ATOM     14  C   UNL A   1      39.554 -20.035 -33.366  0.00  0.00    -0.054 A 
ENDBRANCH   7  13
ENDBRANCH   1   7
BRANCH   4  15
ATOM     15  C   UNL A   1      46.450 -20.359 -36.495  0.00  0.00    +0.049 C 
BRANCH  15  16
ATOM     16  N   UNL A   1      46.590 -19.506 -37.671  0.00  0.00    -0.339 N 
ATOM     17  C   UNL A   1      46.466 -19.923 -38.975  0.00  0.00    +0.023 A 
ATOM     18  C   UNL A   1      46.691 -18.836 -39.796  0.00  0.00    -0.019 A 
ATOM     19  C   UNL A   1      46.957 -17.714 -38.967  0.00  0.00    +0.003 A 
ATOM     20  C   UNL A   1      47.253 -16.360 -39.227  0.00  0.00    -0.052 A 
ATOM     21  C   UNL A   1      47.447 -15.477 -38.161  0.00  0.00    -0.061 A 
ATOM     22  C   UNL A   1      47.347 -15.923 -36.848  0.00  0.00    -0.060 A 
ATOM     23  C   UNL A   1      47.057 -17.261 -36.563  0.00  0.00    -0.038 A 
ATOM     24  C   UNL A   1      46.870 -18.147 -37.639  0.00  0.00    +0.050 A 
ATOM     25  C   UNL A   1      46.643 -18.922 -41.286  0.00  0.00    -0.025 C 
ATOM     26  C   UNL A   1      45.922 -20.201 -41.746  0.00  0.00    -0.049 C 
ATOM     27  C   UNL A   1      46.379 -21.434 -40.949  0.00  0.00    -0.047 C 
ATOM     28  C   UNL A   1      46.095 -21.291 -39.443  0.00  0.00    -0.012 C 
ENDBRANCH  15  16
ENDBRANCH   4  15
TORSDOF 4
ENDMDL
MODEL 11
REMARK VINA RESULT:    -7.874     17.712     21.093
REMARK INTER + INTRA:          -9.922
REMARK INTER:                  -9.010
REMARK INTRA:                  -0.912
REMARK UNBOUND:                -0.207
REMARK  Name = cpd351.pdb
REMARK  5 active torsions:
REMARK  status: ('A' for Active; 'I' for Inactive)
REMARK    1  A    between atoms: C_1  and  C_2
REMARK    2  A    between atoms: C_6  and  C_7
REMARK    3  A    between atoms: C_7  and  N_8
REMARK    4  A    between atoms: C_11  and  C_12
REMARK    5  A    between atoms: C_12  and  N_13
REMARK                            x       y       z     vdW  Elec       q    Type
REMARK                         _______ _______ _______ _____ _____    ______ ____
ROOT
ATOM      1  N   UNL A   1      43.707 -20.766 -40.452  0.00  0.00    -0.349 N 
ATOM      2  C   UNL A   1      42.752 -21.438 -41.134  0.00  0.00    +0.005 A 
ATOM      3  C   UNL A   1      41.637 -21.947 -40.479  0.00  0.00    -0.041 A 
ATOM      4  C   UNL A   1      41.498 -21.784 -39.097  0.00  0.00    -0.025 A 
ATOM      5  C   UNL A   1      42.488 -21.068 -38.422  0.00  0.00    -0.041 A 
ATOM      6  C   UNL A   1      43.588 -20.572 -39.119  0.00  0.00    +0.005 A 
ENDROOT
BRANCH   1   7
ATOM      7  C   UNL A   1      44.892 -20.240 -41.172  0.00  0.00    +0.048 C 
BRANCH   7  13
ATOM      8  C   UNL A   1      47.438 -24.288 -42.793  0.00  0.00    -0.040 C 
ATOM      9  C   UNL A   1      47.257 -23.172 -41.803  0.00  0.00    -0.050 A 
ATOM     10  C   UNL A   1      48.182 -22.995 -40.770  0.00  0.00    -0.059 A 
ATOM     11  C   UNL A   1      48.045 -21.936 -39.875  0.00  0.00    -0.061 A 
ATOM     12  C   UNL A   1      46.984 -21.040 -40.005  0.00  0.00    -0.057 A 
ATOM     13  C   UNL A   1      46.052 -21.191 -41.042  0.00  0.00    -0.028 A 
ATOM     14  C   UNL A   1      46.203 -22.261 -41.942  0.00  0.00    -0.054 A 
ENDBRANCH   7  13
ENDBRANCH   1   7
BRANCH   4  15
ATOM     15  C   UNL A   1      40.301 -22.336 -38.346  0.00  0.00    +0.049 C 
BRANCH  15  16
ATOM     16  N   UNL A   1      39.805 -21.394 -37.347  0.00  0.00    -0.339 N 
ATOM     17  C   UNL A   1      39.200 -20.191 -37.621  0.00  0.00    +0.023 A 
ATOM     18  C   UNL A   1      38.897 -19.580 -36.421  0.00  0.00    -0.019 A 
ATOM     19  C   UNL A   1      39.325 -20.441 -35.376  0.00  0.00    +0.003 A 
ATOM     20  C   UNL A   1      39.285 -20.359 -33.969  0.00  0.00    -0.052 A 
ATOM     21  C   UNL A   1      39.784 -21.414 -33.200  0.00  0.00    -0.061 A 
ATOM     22  C   UNL A   1      40.316 -22.544 -33.811  0.00  0.00    -0.060 A 
ATOM     23  C   UNL A   1      40.370 -22.649 -35.205  0.00  0.00    -0.038 A 
ATOM     24  C   UNL A   1      39.873 -21.582 -35.975  0.00  0.00    +0.050 A 
ATOM     25  C   UNL A   1      38.233 -18.245 -36.335  0.00  0.00    -0.025 C 
ATOM     26  C   UNL A   1      37.577 -17.864 -37.674  0.00  0.00    -0.049 C 
ATOM     27  C   UNL A   1      38.501 -18.155 -38.868  0.00  0.00    -0.047 C 
ATOM     28  C   UNL A   1      38.867 -19.646 -38.971  0.00  0.00    -0.012 C 
ENDBRANCH  15  16
ENDBRANCH   4  15
TORSDOF 4
ENDMDL
MODEL 12
REMARK VINA RESULT:    -7.861     16.826     19.604
REMARK INTER + INTRA:          -9.907
REMARK INTER:                  -9.016
REMARK INTRA:                  -0.890
REMARK UNBOUND:                -0.207
REMARK  Name = cpd351.pdb
REMARK  5 active torsions:
REMARK  status: ('A' for Active; 'I' for Inactive)
REMARK    1  A    between atoms: C_1  and  C_2
REMARK    2  A    between atoms: C_6  and  C_7
REMARK    3  A    between atoms: C_7  and  N_8
REMARK    4  A    between atoms: C_11  and  C_12
REMARK    5  A    between atoms: C_12  and  N_13
REMARK                            x       y       z     vdW  Elec       q    Type
REMARK                         _______ _______ _______ _____ _____    ______ ____
ROOT
ATOM      1  N   UNL A   1      40.165 -21.978 -37.309  0.00  0.00    -0.349 N 
ATOM      2  C   UNL A   1      39.617 -20.929 -37.963  0.00  0.00    +0.005 A 
ATOM      3  C   UNL A   1      40.395 -20.117 -38.781  0.00  0.00    -0.041 A 
ATOM      4  C   UNL A   1      41.763 -20.368 -38.923  0.00  0.00    -0.025 A 
ATOM      5  C   UNL A   1      42.297 -21.471 -38.253  0.00  0.00    -0.041 A 
ATOM      6  C   UNL A   1      41.480 -22.260 -37.446  0.00  0.00    +0.005 A 
ENDROOT
BRANCH   1   7
ATOM      7  C   UNL A   1      39.316 -22.824 -36.435  0.00  0.00    +0.048 C 
BRANCH   7  13
ATOM      8  C   UNL A   1      41.259 -23.110 -31.784  0.00  0.00    -0.040 C 
ATOM      9  C   UNL A   1      40.285 -22.504 -32.755  0.00  0.00    -0.050 A 
ATOM     10  C   UNL A   1      39.445 -21.463 -32.348  0.00  0.00    -0.059 A 
ATOM     11  C   UNL A   1      38.571 -20.867 -33.255  0.00  0.00    -0.061 A 
ATOM     12  C   UNL A   1      38.530 -21.302 -34.580  0.00  0.00    -0.057 A 
ATOM     13  C   UNL A   1      39.374 -22.336 -35.013  0.00  0.00    -0.028 A 
ATOM     14  C   UNL A   1      40.255 -22.927 -34.090  0.00  0.00    -0.054 A 
ENDBRANCH   7  13
ENDBRANCH   1   7
BRANCH   4  15
ATOM     15  C   UNL A   1      42.647 -19.498 -39.796  0.00  0.00    +0.049 C 
BRANCH  15  16
ATOM     16  N   UNL A   1      44.063 -19.794 -39.602  0.00  0.00    -0.339 N 
ATOM     17  C   UNL A   1      44.851 -19.285 -38.597  0.00  0.00    +0.023 A 
ATOM     18  C   UNL A   1      46.130 -19.777 -38.764  0.00  0.00    -0.019 A 
ATOM     19  C   UNL A   1      46.124 -20.619 -39.908  0.00  0.00    +0.003 A 
ATOM     20  C   UNL A   1      47.115 -21.384 -40.559  0.00  0.00    -0.052 A 
ATOM     21  C   UNL A   1      46.775 -22.144 -41.681  0.00  0.00    -0.061 A 
ATOM     22  C   UNL A   1      45.469 -22.155 -42.158  0.00  0.00    -0.060 A 
ATOM     23  C   UNL A   1      44.469 -21.403 -41.532  0.00  0.00    -0.038 A 
ATOM     24  C   UNL A   1      44.817 -20.634 -40.408  0.00  0.00    +0.050 A 
ATOM     25  C   UNL A   1      47.259 -19.428 -37.852  0.00  0.00    -0.025 C 
ATOM     26  C   UNL A   1      46.741 -18.835 -36.529  0.00  0.00    -0.049 C 
ATOM     27  C   UNL A   1      45.631 -17.797 -36.762  0.00  0.00    -0.047 C 
ATOM     28  C   UNL A   1      44.410 -18.403 -37.476  0.00  0.00    -0.012 C 
ENDBRANCH  15  16
ENDBRANCH   4  15
TORSDOF 4
ENDMDL
MODEL 13
REMARK VINA RESULT:    -7.803      8.309     12.819
REMARK INTER + INTRA:          -9.834
REMARK INTER:                  -8.888
REMARK INTRA:                  -0.946
REMARK UNBOUND:                -0.207
REMARK  Name = cpd351.pdb
REMARK  5 active torsions:
REMARK  status: ('A' for Active; 'I' for Inactive)
REMARK    1  A    between atoms: C_1  and  C_2
REMARK    2  A    between atoms: C_6  and  C_7
REMARK    3  A    between atoms: C_7  and  N_8
REMARK    4  A    between atoms: C_11  and  C_12
REMARK    5  A    between atoms: C_12  and  N_13
REMARK                            x       y       z     vdW  Elec       q    Type
REMARK                         _______ _______ _______ _____ _____    ______ ____
ROOT
ATOM      1  N   UNL A   1      33.225 -36.795 -24.223  0.00  0.00    -0.349 N 
ATOM      2  C   UNL A   1      32.345 -36.131 -25.007  0.00  0.00    +0.005 A 
ATOM      3  C   UNL A   1      32.370 -36.285 -26.388  0.00  0.00    -0.041 A 
ATOM      4  C   UNL A   1      33.321 -37.118 -26.986  0.00  0.00    -0.025 A 
ATOM      5  C   UNL A   1      34.202 -37.807 -26.150  0.00  0.00    -0.041 A 
ATOM      6  C   UNL A   1      34.140 -37.626 -24.770  0.00  0.00    +0.005 A 
ENDROOT
BRANCH   1   7
ATOM      7  C   UNL A   1      33.184 -36.607 -22.752  0.00  0.00    +0.048 C 
BRANCH   7  13
ATOM      8  C   UNL A   1      35.665 -39.705 -19.631  0.00  0.00    -0.040 C 
ATOM      9  C   UNL A   1      34.523 -39.442 -20.571  0.00  0.00    -0.050 A 
ATOM     10  C   UNL A   1      33.545 -40.420 -20.777  0.00  0.00    -0.059 A 
ATOM     11  C   UNL A   1      32.460 -40.167 -21.613  0.00  0.00    -0.061 A 
ATOM     12  C   UNL A   1      32.337 -38.932 -22.250  0.00  0.00    -0.057 A 
ATOM     13  C   UNL A   1      33.300 -37.932 -22.048  0.00  0.00    -0.028 A 
ATOM     14  C   UNL A   1      34.389 -38.197 -21.198  0.00  0.00    -0.054 A 
ENDBRANCH   7  13
ENDBRANCH   1   7
BRANCH   4  15
ATOM     15  C   UNL A   1      33.386 -37.302 -28.490  0.00  0.00    +0.049 C 
BRANCH  15  16
ATOM     16  N   UNL A   1      34.449 -36.499 -29.089  0.00  0.00    -0.339 N 
ATOM     17  C   UNL A   1      34.324 -35.192 -29.497  0.00  0.00    +0.023 A 
ATOM     18  C   UNL A   1      35.532 -34.792 -30.031  0.00  0.00    -0.019 A 
ATOM     19  C   UNL A   1      36.429 -35.890 -29.944  0.00  0.00    +0.003 A 
ATOM     20  C   UNL A   1      37.775 -36.080 -30.319  0.00  0.00    -0.052 A 
ATOM     21  C   UNL A   1      38.397 -37.306 -30.071  0.00  0.00    -0.061 A 
ATOM     22  C   UNL A   1      37.699 -38.340 -29.454  0.00  0.00    -0.060 A 
ATOM     23  C   UNL A   1      36.362 -38.178 -29.074  0.00  0.00    -0.038 A 
ATOM     24  C   UNL A   1      35.740 -36.944 -29.333  0.00  0.00    +0.050 A 
ATOM     25  C   UNL A   1      35.762 -33.424 -30.582  0.00  0.00    -0.025 C 
ATOM     26  C   UNL A   1      34.676 -32.443 -30.105  0.00  0.00    -0.049 C 
ATOM     27  C   UNL A   1      33.269 -33.054 -30.205  0.00  0.00    -0.047 C 
ATOM     28  C   UNL A   1      33.122 -34.321 -29.343  0.00  0.00    -0.012 C 
ENDBRANCH  15  16
ENDBRANCH   4  15
TORSDOF 4
ENDMDL
MODEL 14
REMARK VINA RESULT:    -7.790     17.877     20.252
REMARK INTER + INTRA:          -9.819
REMARK INTER:                  -8.759
REMARK INTRA:                  -1.060
REMARK UNBOUND:                -0.207
REMARK  Name = cpd351.pdb
REMARK  5 active torsions:
REMARK  status: ('A' for Active; 'I' for Inactive)
REMARK    1  A    between atoms: C_1  and  C_2
REMARK    2  A    between atoms: C_6  and  C_7
REMARK    3  A    between atoms: C_7  and  N_8
REMARK    4  A    between atoms: C_11  and  C_12
REMARK    5  A    between atoms: C_12  and  N_13
REMARK                            x       y       z     vdW  Elec       q    Type
REMARK                         _______ _______ _______ _____ _____    ______ ____
ROOT
ATOM      1  N   UNL A   1      41.234 -20.031 -36.999  0.00  0.00    -0.349 N 
ATOM      2  C   UNL A   1      41.962 -19.783 -35.887  0.00  0.00    +0.005 A 
ATOM      3  C   UNL A   1      43.349 -19.874 -35.912  0.00  0.00    -0.041 A 
ATOM      4  C   UNL A   1      44.008 -20.241 -37.089  0.00  0.00    -0.025 A 
ATOM      5  C   UNL A   1      43.232 -20.471 -38.227  0.00  0.00    -0.041 A 
ATOM      6  C   UNL A   1      41.845 -20.365 -38.158  0.00  0.00    +0.005 A 
ENDROOT
BRANCH   1   7
ATOM      7  C   UNL A   1      39.754 -19.937 -36.945  0.00  0.00    +0.048 C 
BRANCH   7  13
ATOM      8  C   UNL A   1      37.078 -21.429 -32.931  0.00  0.00    -0.040 C 
ATOM      9  C   UNL A   1      37.928 -21.756 -34.127  0.00  0.00    -0.050 A 
ATOM     10  C   UNL A   1      38.174 -23.090 -34.468  0.00  0.00    -0.059 A 
ATOM     11  C   UNL A   1      38.925 -23.401 -35.600  0.00  0.00    -0.061 A 
ATOM     12  C   UNL A   1      39.433 -22.383 -36.406  0.00  0.00    -0.057 A 
ATOM     13  C   UNL A   1      39.187 -21.039 -36.090  0.00  0.00    -0.028 A 
ATOM     14  C   UNL A   1      38.425 -20.737 -34.948  0.00  0.00    -0.054 A 
ENDBRANCH   7  13
ENDBRANCH   1   7
BRANCH   4  15
ATOM     15  C   UNL A   1      45.519 -20.363 -37.152  0.00  0.00    +0.049 C 
BRANCH  15  16
ATOM     16  N   UNL A   1      46.057 -19.811 -38.392  0.00  0.00    -0.339 N 
ATOM     17  C   UNL A   1      46.312 -18.481 -38.625  0.00  0.00    +0.023 A 
ATOM     18  C   UNL A   1      46.788 -18.355 -39.915  0.00  0.00    -0.019 A 
ATOM     19  C   UNL A   1      46.832 -19.653 -40.489  0.00  0.00    +0.003 A 
ATOM     20  C   UNL A   1      47.220 -20.146 -41.752  0.00  0.00    -0.052 A 
ATOM     21  C   UNL A   1      47.164 -21.519 -42.006  0.00  0.00    -0.061 A 
ATOM     22  C   UNL A   1      46.731 -22.402 -41.022  0.00  0.00    -0.060 A 
ATOM     23  C   UNL A   1      46.338 -21.938 -39.762  0.00  0.00    -0.038 A 
ATOM     24  C   UNL A   1      46.389 -20.555 -39.515  0.00  0.00    +0.050 A 
ATOM     25  C   UNL A   1      47.166 -17.041 -40.515  0.00  0.00    -0.025 C 
ATOM     26  C   UNL A   1      47.358 -15.968 -39.428  0.00  0.00    -0.049 C 
ATOM     27  C   UNL A   1      46.234 -16.007 -38.381  0.00  0.00    -0.047 C 
ATOM     28  C   UNL A   1      46.164 -17.359 -37.650  0.00  0.00    -0.012 C 
ENDBRANCH  15  16
ENDBRANCH   4  15
TORSDOF 4
ENDMDL
MODEL 15
REMARK VINA RESULT:    -7.785     17.586     20.945
REMARK INTER + INTRA:          -9.813
REMARK INTER:                  -8.784
REMARK INTRA:                  -1.029
REMARK UNBOUND:                -0.207
REMARK  Name = cpd351.pdb
REMARK  5 active torsions:
REMARK  status: ('A' for Active; 'I' for Inactive)
REMARK    1  A    between atoms: C_1  and  C_2
REMARK    2  A    between atoms: C_6  and  C_7
REMARK    3  A    between atoms: C_7  and  N_8
REMARK    4  A    between atoms: C_11  and  C_12
REMARK    5  A    between atoms: C_12  and  N_13
REMARK                            x       y       z     vdW  Elec       q    Type
REMARK                         _______ _______ _______ _____ _____    ______ ____
ROOT
ATOM      1  N   UNL A   1      43.769 -19.561 -37.441  0.00  0.00    -0.349 N 
ATOM      2  C   UNL A   1      44.440 -19.251 -36.309  0.00  0.00    +0.005 A 
ATOM      3  C   UNL A   1      43.977 -19.678 -35.069  0.00  0.00    -0.041 A 
ATOM      4  C   UNL A   1      42.797 -20.422 -34.979  0.00  0.00    -0.025 A 
ATOM      5  C   UNL A   1      42.136 -20.745 -36.165  0.00  0.00    -0.041 A 
ATOM      6  C   UNL A   1      42.638 -20.300 -37.386  0.00  0.00    +0.005 A 
ENDROOT
BRANCH   1   7
ATOM      7  C   UNL A   1      44.278 -19.086 -38.750  0.00  0.00    +0.048 C 
BRANCH   7  13
ATOM      8  C   UNL A   1      44.945 -22.028 -42.799  0.00  0.00    -0.040 C 
ATOM      9  C   UNL A   1      45.318 -21.634 -41.398  0.00  0.00    -0.050 A 
ATOM     10  C   UNL A   1      46.382 -22.271 -40.751  0.00  0.00    -0.059 A 
ATOM     11  C   UNL A   1      46.762 -21.881 -39.469  0.00  0.00    -0.061 A 
ATOM     12  C   UNL A   1      46.087 -20.847 -38.820  0.00  0.00    -0.057 A 
ATOM     13  C   UNL A   1      45.025 -20.186 -39.456  0.00  0.00    -0.028 A 
ATOM     14  C   UNL A   1      44.653 -20.585 -40.752  0.00  0.00    -0.054 A 
ENDBRANCH   7  13
ENDBRANCH   1   7
BRANCH   4  15
ATOM     15  C   UNL A   1      42.253 -20.895 -33.643  0.00  0.00    +0.049 C 
BRANCH  15  16
ATOM     16  N   UNL A   1      40.862 -20.498 -33.452  0.00  0.00    -0.339 N 
ATOM     17  C   UNL A   1      39.775 -21.332 -33.557  0.00  0.00    +0.023 A 
ATOM     18  C   UNL A   1      38.636 -20.585 -33.333  0.00  0.00    -0.019 A 
ATOM     19  C   UNL A   1      39.040 -19.247 -33.075  0.00  0.00    +0.003 A 
ATOM     20  C   UNL A   1      38.340 -18.058 -32.785  0.00  0.00    -0.052 A 
ATOM     21  C   UNL A   1      39.049 -16.876 -32.555  0.00  0.00    -0.061 A 
ATOM     22  C   UNL A   1      40.439 -16.865 -32.608  0.00  0.00    -0.060 A 
ATOM     23  C   UNL A   1      41.157 -18.030 -32.897  0.00  0.00    -0.038 A 
ATOM     24  C   UNL A   1      40.438 -19.215 -33.134  0.00  0.00    +0.050 A 
ATOM     25  C   UNL A   1      37.262 -21.167 -33.374  0.00  0.00    -0.025 C 
ATOM     26  C   UNL A   1      37.306 -22.702 -33.272  0.00  0.00    -0.049 C 
ATOM     27  C   UNL A   1      38.393 -23.305 -34.177  0.00  0.00    -0.047 C 
ATOM     28  C   UNL A   1      39.801 -22.803 -33.810  0.00  0.00    -0.012 C 
ENDBRANCH  15  16
ENDBRANCH   4  15
TORSDOF 4
ENDMDL
MODEL 16
REMARK VINA RESULT:    -7.772     17.131     20.783
REMARK INTER + INTRA:          -9.797
REMARK INTER:                  -8.720
REMARK INTRA:                  -1.077
REMARK UNBOUND:                -0.207
REMARK  Name = cpd351.pdb
REMARK  5 active torsions:
REMARK  status: ('A' for Active; 'I' for Inactive)
REMARK    1  A    between atoms: C_1  and  C_2
REMARK    2  A    between atoms: C_6  and  C_7
REMARK    3  A    between atoms: C_7  and  N_8
REMARK    4  A    between atoms: C_11  and  C_12
REMARK    5  A    between atoms: C_12  and  N_13
REMARK                            x       y       z     vdW  Elec       q    Type
REMARK                         _______ _______ _______ _____ _____    ______ ____
ROOT
ATOM      1  N   UNL A   1      45.918 -18.954 -37.076  0.00  0.00    -0.349 N 
ATOM      2  C   UNL A   1      45.143 -17.848 -37.154  0.00  0.00    +0.005 A 
ATOM      3  C   UNL A   1      43.942 -17.772 -36.458  0.00  0.00    -0.041 A 
ATOM      4  C   UNL A   1      43.512 -18.852 -35.680  0.00  0.00    -0.025 A 
ATOM      5  C   UNL A   1      44.342 -19.971 -35.601  0.00  0.00    -0.041 A 
ATOM      6  C   UNL A   1      45.539 -20.003 -36.312  0.00  0.00    +0.005 A 
ENDROOT
BRANCH   1   7
ATOM      7  C   UNL A   1      47.191 -19.014 -37.835  0.00  0.00    +0.048 C 
BRANCH   7  13
ATOM      8  C   UNL A   1      47.190 -23.114 -40.781  0.00  0.00    -0.040 C 
ATOM      9  C   UNL A   1      47.014 -21.632 -40.610  0.00  0.00    -0.050 A 
ATOM     10  C   UNL A   1      46.618 -20.843 -41.695  0.00  0.00    -0.059 A 
ATOM     11  C   UNL A   1      46.410 -19.475 -41.533  0.00  0.00    -0.061 A 
ATOM     12  C   UNL A   1      46.589 -18.881 -40.284  0.00  0.00    -0.057 A 
ATOM     13  C   UNL A   1      46.973 -19.655 -39.179  0.00  0.00    -0.028 A 
ATOM     14  C   UNL A   1      47.176 -21.035 -39.353  0.00  0.00    -0.054 A 
ENDBRANCH   7  13
ENDBRANCH   1   7
BRANCH   4  15
ATOM     15  C   UNL A   1      42.201 -18.811 -34.916  0.00  0.00    +0.049 C 
BRANCH  15  16
ATOM     16  N   UNL A   1      41.368 -19.975 -35.205  0.00  0.00    -0.339 N 
ATOM     17  C   UNL A   1      40.738 -20.224 -36.401  0.00  0.00    +0.023 A 
ATOM     18  C   UNL A   1      40.029 -21.402 -36.276  0.00  0.00    -0.019 A 
ATOM     19  C   UNL A   1      40.236 -21.894 -34.959  0.00  0.00    +0.003 A 
ATOM     20  C   UNL A   1      39.780 -23.031 -34.262  0.00  0.00    -0.052 A 
ATOM     21  C   UNL A   1      40.193 -23.248 -32.945  0.00  0.00    -0.061 A 
ATOM     22  C   UNL A   1      41.053 -22.352 -32.318  0.00  0.00    -0.060 A 
ATOM     23  C   UNL A   1      41.518 -21.214 -32.987  0.00  0.00    -0.038 A 
ATOM     24  C   UNL A   1      41.094 -20.998 -34.309  0.00  0.00    +0.050 A 
ATOM     25  C   UNL A   1      39.215 -21.981 -37.385  0.00  0.00    -0.025 C 
ATOM     26  C   UNL A   1      39.600 -21.359 -38.739  0.00  0.00    -0.049 C 
ATOM     27  C   UNL A   1      39.745 -19.832 -38.648  0.00  0.00    -0.047 C 
ATOM     28  C   UNL A   1      40.837 -19.410 -37.649  0.00  0.00    -0.012 C 
ENDBRANCH  15  16
ENDBRANCH   4  15
TORSDOF 4
ENDMDL
MODEL 17
REMARK VINA RESULT:    -7.714     17.456     20.805
REMARK INTER + INTRA:          -9.725
REMARK INTER:                  -8.581
REMARK INTRA:                  -1.143
REMARK UNBOUND:                -0.207
REMARK  Name = cpd351.pdb
REMARK  5 active torsions:
REMARK  status: ('A' for Active; 'I' for Inactive)
REMARK    1  A    between atoms: C_1  and  C_2
REMARK    2  A    between atoms: C_6  and  C_7
REMARK    3  A    between atoms: C_7  and  N_8
REMARK    4  A    between atoms: C_11  and  C_12
REMARK    5  A    between atoms: C_12  and  N_13
REMARK                            x       y       z     vdW  Elec       q    Type
REMARK                         _______ _______ _______ _____ _____    ______ ____
ROOT
ATOM      1  N   UNL A   1      45.940 -18.998 -37.073  0.00  0.00    -0.349 N 
ATOM      2  C   UNL A   1      45.211 -17.862 -37.153  0.00  0.00    +0.005 A 
ATOM      3  C   UNL A   1      44.005 -17.743 -36.472  0.00  0.00    -0.041 A 
ATOM      4  C   UNL A   1      43.522 -18.810 -35.708  0.00  0.00    -0.025 A 
ATOM      5  C   UNL A   1      44.306 -19.962 -35.627  0.00  0.00    -0.041 A 
ATOM      6  C   UNL A   1      45.511 -20.037 -36.322  0.00  0.00    +0.005 A 
ENDROOT
BRANCH   1   7
ATOM      7  C   UNL A   1      47.220 -19.103 -37.816  0.00  0.00    +0.048 C 
BRANCH   7  13
ATOM      8  C   UNL A   1      47.183 -23.158 -40.824  0.00  0.00    -0.040 C 
ATOM      9  C   UNL A   1      47.017 -21.677 -40.630  0.00  0.00    -0.050 A 
ATOM     10  C   UNL A   1      46.625 -20.869 -41.701  0.00  0.00    -0.059 A 
ATOM     11  C   UNL A   1      46.427 -19.502 -41.518  0.00  0.00    -0.061 A 
ATOM     12  C   UNL A   1      46.614 -18.928 -40.261  0.00  0.00    -0.057 A 
ATOM     13  C   UNL A   1      46.994 -19.722 -39.169  0.00  0.00    -0.028 A 
ATOM     14  C   UNL A   1      47.187 -21.101 -39.364  0.00  0.00    -0.054 A 
ENDBRANCH   7  13
ENDBRANCH   1   7
BRANCH   4  15
ATOM     15  C   UNL A   1      42.204 -18.723 -34.961  0.00  0.00    +0.049 C 
BRANCH  15  16
ATOM     16  N   UNL A   1      41.341 -19.865 -35.247  0.00  0.00    -0.339 N 
ATOM     17  C   UNL A   1      41.016 -20.859 -34.355  0.00  0.00    +0.023 A 
ATOM     18  C   UNL A   1      40.205 -21.769 -35.003  0.00  0.00    -0.019 A 
ATOM     19  C   UNL A   1      40.022 -21.314 -36.336  0.00  0.00    +0.003 A 
ATOM     20  C   UNL A   1      39.310 -21.813 -37.446  0.00  0.00    -0.052 A 
ATOM     21  C   UNL A   1      39.311 -21.099 -38.647  0.00  0.00    -0.061 A 
ATOM     22  C   UNL A   1      40.007 -19.900 -38.755  0.00  0.00    -0.060 A 
ATOM     23  C   UNL A   1      40.723 -19.384 -37.670  0.00  0.00    -0.038 A 
ATOM     24  C   UNL A   1      40.724 -20.110 -36.466  0.00  0.00    +0.050 A 
ATOM     25  C   UNL A   1      39.661 -22.989 -34.336  0.00  0.00    -0.025 C 
ATOM     26  C   UNL A   1      39.760 -22.876 -32.805  0.00  0.00    -0.049 C 
ATOM     27  C   UNL A   1      41.128 -22.337 -32.357  0.00  0.00    -0.047 C 
ATOM     28  C   UNL A   1      41.411 -20.931 -32.917  0.00  0.00    -0.012 C 
ENDBRANCH  15  16
ENDBRANCH   4  15
TORSDOF 4
ENDMDL
MODEL 18
REMARK VINA RESULT:    -7.712     17.285     20.541
REMARK INTER + INTRA:          -9.722
REMARK INTER:                  -8.780
REMARK INTRA:                  -0.943
REMARK UNBOUND:                -0.207
REMARK  Name = cpd351.pdb
REMARK  5 active torsions:
REMARK  status: ('A' for Active; 'I' for Inactive)
REMARK    1  A    between atoms: C_1  and  C_2
REMARK    2  A    between atoms: C_6  and  C_7
REMARK    3  A    between atoms: C_7  and  N_8
REMARK    4  A    between atoms: C_11  and  C_12
REMARK    5  A    between atoms: C_12  and  N_13
REMARK                            x       y       z     vdW  Elec       q    Type
REMARK                         _______ _______ _______ _____ _____    ______ ____
ROOT
ATOM      1  N   UNL A   1      42.679 -20.603 -40.158  0.00  0.00    -0.349 N 
ATOM      2  C   UNL A   1      41.935 -21.539 -39.526  0.00  0.00    +0.005 A 
ATOM      3  C   UNL A   1      41.119 -21.192 -38.455  0.00  0.00    -0.041 A 
ATOM      4  C   UNL A   1      41.073 -19.868 -38.008  0.00  0.00    -0.025 A 
ATOM      5  C   UNL A   1      41.835 -18.920 -38.693  0.00  0.00    -0.041 A 
ATOM      6  C   UNL A   1      42.636 -19.311 -39.763  0.00  0.00    +0.005 A 
ENDROOT
BRANCH   1   7
ATOM      7  C   UNL A   1      43.549 -21.000 -41.293  0.00  0.00    +0.048 C 
BRANCH   7  13
ATOM      8  C   UNL A   1      47.861 -23.537 -41.970  0.00  0.00    -0.040 C 
ATOM      9  C   UNL A   1      46.968 -22.693 -41.107  0.00  0.00    -0.050 A 
ATOM     10  C   UNL A   1      47.401 -22.279 -39.843  0.00  0.00    -0.059 A 
ATOM     11  C   UNL A   1      46.595 -21.459 -39.055  0.00  0.00    -0.061 A 
ATOM     12  C   UNL A   1      45.351 -21.039 -39.523  0.00  0.00    -0.057 A 
ATOM     13  C   UNL A   1      44.902 -21.431 -40.793  0.00  0.00    -0.028 A 
ATOM     14  C   UNL A   1      45.725 -22.255 -41.581  0.00  0.00    -0.054 A 
ENDBRANCH   7  13
ENDBRANCH   1   7
BRANCH   4  15
ATOM     15  C   UNL A   1      40.204 -19.454 -36.835  0.00  0.00    +0.049 C 
BRANCH  15  16
ATOM     16  N   UNL A   1      40.841 -19.751 -35.555  0.00  0.00    -0.339 N 
ATOM     17  C   UNL A   1      41.739 -18.937 -34.906  0.00  0.00    +0.023 A 
ATOM     18  C   UNL A   1      42.133 -19.573 -33.746  0.00  0.00    -0.019 A 
ATOM     19  C   UNL A   1      41.449 -20.817 -33.679  0.00  0.00    +0.003 A 
ATOM     20  C   UNL A   1      41.444 -21.876 -32.749  0.00  0.00    -0.052 A 
ATOM     21  C   UNL A   1      40.621 -22.984 -32.967  0.00  0.00    -0.061 A 
ATOM     22  C   UNL A   1      39.806 -23.049 -34.092  0.00  0.00    -0.060 A 
ATOM     23  C   UNL A   1      39.794 -22.012 -35.031  0.00  0.00    -0.038 A 
ATOM     24  C   UNL A   1      40.629 -20.902 -34.811  0.00  0.00    +0.050 A 
ATOM     25  C   UNL A   1      43.112 -18.979 -32.788  0.00  0.00    -0.025 C 
ATOM     26  C   UNL A   1      43.280 -17.468 -33.030  0.00  0.00    -0.049 C 
ATOM     27  C   UNL A   1      43.415 -17.140 -34.525  0.00  0.00    -0.047 C 
ATOM     28  C   UNL A   1      42.179 -17.576 -35.332  0.00  0.00    -0.012 C 
ENDBRANCH  15  16
ENDBRANCH   4  15
TORSDOF 4
ENDMDL
MODEL 19
REMARK VINA RESULT:    -7.537     18.499     21.616
REMARK INTER + INTRA:          -9.506
REMARK INTER:                  -8.378
REMARK INTRA:                  -1.128
REMARK UNBOUND:                -0.207
REMARK  Name = cpd351.pdb
REMARK  5 active torsions:
REMARK  status: ('A' for Active; 'I' for Inactive)
REMARK    1  A    between atoms: C_1  and  C_2
REMARK    2  A    between atoms: C_6  and  C_7
REMARK    3  A    between atoms: C_7  and  N_8
REMARK    4  A    between atoms: C_11  and  C_12
REMARK    5  A    between atoms: C_12  and  N_13
REMARK                            x       y       z     vdW  Elec       q    Type
REMARK                         _______ _______ _______ _____ _____    ______ ____
ROOT
ATOM      1  N   UNL A   1      45.422 -18.891 -38.523  0.00  0.00    -0.349 N 
ATOM      2  C   UNL A   1      44.172 -19.250 -38.152  0.00  0.00    +0.005 A 
ATOM      3  C   UNL A   1      43.897 -19.602 -36.836  0.00  0.00    -0.041 A 
ATOM      4  C   UNL A   1      44.918 -19.606 -35.881  0.00  0.00    -0.025 A 
ATOM      5  C   UNL A   1      46.194 -19.211 -36.289  0.00  0.00    -0.041 A 
ATOM      6  C   UNL A   1      46.425 -18.862 -37.617  0.00  0.00    +0.005 A 
ENDROOT
BRANCH   1   7
ATOM      7  C   UNL A   1      45.693 -18.528 -39.936  0.00  0.00    +0.048 C 
BRANCH   7  13
ATOM      8  C   UNL A   1      46.901 -23.184 -41.468  0.00  0.00    -0.040 C 
ATOM      9  C   UNL A   1      46.066 -21.943 -41.605  0.00  0.00    -0.050 A 
ATOM     10  C   UNL A   1      45.042 -21.888 -42.555  0.00  0.00    -0.059 A 
ATOM     11  C   UNL A   1      44.236 -20.756 -42.658  0.00  0.00    -0.061 A 
ATOM     12  C   UNL A   1      44.440 -19.669 -41.808  0.00  0.00    -0.057 A 
ATOM     13  C   UNL A   1      45.453 -19.708 -40.839  0.00  0.00    -0.028 A 
ATOM     14  C   UNL A   1      46.258 -20.857 -40.741  0.00  0.00    -0.054 A 
ENDBRANCH   7  13
ENDBRANCH   1   7
BRANCH   4  15
ATOM     15  C   UNL A   1      44.659 -19.997 -34.438  0.00  0.00    +0.049 C 
BRANCH  15  16
ATOM     16  N   UNL A   1      43.572 -19.219 -33.851  0.00  0.00    -0.339 N 
ATOM     17  C   UNL A   1      42.331 -19.709 -33.523  0.00  0.00    +0.023 A 
ATOM     18  C   UNL A   1      41.578 -18.667 -33.020  0.00  0.00    -0.019 A 
ATOM     19  C   UNL A   1      42.387 -17.500 -33.036  0.00  0.00    +0.003 A 
ATOM     20  C   UNL A   1      42.171 -16.160 -32.653  0.00  0.00    -0.052 A 
ATOM     21  C   UNL A   1      43.207 -15.229 -32.777  0.00  0.00    -0.061 A 
ATOM     22  C   UNL A   1      44.448 -15.615 -33.272  0.00  0.00    -0.060 A 
ATOM     23  C   UNL A   1      44.687 -16.938 -33.661  0.00  0.00    -0.038 A 
ATOM     24  C   UNL A   1      43.640 -17.868 -33.541  0.00  0.00    +0.050 A 
ATOM     25  C   UNL A   1      40.166 -18.833 -32.564  0.00  0.00    -0.025 C 
ATOM     26  C   UNL A   1      39.828 -20.317 -32.333  0.00  0.00    -0.049 C 
ATOM     27  C   UNL A   1      40.345 -21.206 -33.475  0.00  0.00    -0.047 C 
ATOM     28  C   UNL A   1      41.875 -21.126 -33.628  0.00  0.00    -0.012 C 
ENDBRANCH  15  16
ENDBRANCH   4  15
TORSDOF 4
ENDMDL
MODEL 20
REMARK VINA RESULT:    -7.448     18.479     21.435
REMARK INTER + INTRA:          -9.396
REMARK INTER:                  -8.402
REMARK INTRA:                  -0.994
REMARK UNBOUND:                -0.207
REMARK  Name = cpd351.pdb
REMARK  5 active torsions:
REMARK  status: ('A' for Active; 'I' for Inactive)
REMARK    1  A    between atoms: C_1  and  C_2
REMARK    2  A    between atoms: C_6  and  C_7
REMARK    3  A    between atoms: C_7  and  N_8
REMARK    4  A    between atoms: C_11  and  C_12
REMARK    5  A    between atoms: C_12  and  N_13
REMARK                            x       y       z     vdW  Elec       q    Type
REMARK                         _______ _______ _______ _____ _____    ______ ____
ROOT
ATOM      1  N   UNL A   1      45.311 -18.940 -38.631  0.00  0.00    -0.349 N 
ATOM      2  C   UNL A   1      46.352 -18.859 -37.772  0.00  0.00    +0.005 A 
ATOM      3  C   UNL A   1      46.195 -19.196 -36.433  0.00  0.00    -0.041 A 
ATOM      4  C   UNL A   1      44.948 -19.608 -35.954  0.00  0.00    -0.025 A 
ATOM      5  C   UNL A   1      43.896 -19.703 -36.867  0.00  0.00    -0.041 A 
ATOM      6  C   UNL A   1      44.099 -19.359 -38.202  0.00  0.00    +0.005 A 
ENDROOT
BRANCH   1   7
ATOM      7  C   UNL A   1      45.501 -18.566 -40.054  0.00  0.00    +0.048 C 
BRANCH   7  13
ATOM      8  C   UNL A   1      46.997 -23.165 -41.504  0.00  0.00    -0.040 C 
ATOM      9  C   UNL A   1      46.093 -21.977 -41.668  0.00  0.00    -0.050 A 
ATOM     10  C   UNL A   1      45.079 -21.995 -42.630  0.00  0.00    -0.059 A 
ATOM     11  C   UNL A   1      44.209 -20.914 -42.758  0.00  0.00    -0.061 A 
ATOM     12  C   UNL A   1      44.340 -19.805 -41.922  0.00  0.00    -0.057 A 
ATOM     13  C   UNL A   1      45.342 -19.771 -40.942  0.00  0.00    -0.028 A 
ATOM     14  C   UNL A   1      46.211 -20.869 -40.819  0.00  0.00    -0.054 A 
ENDBRANCH   7  13
ENDBRANCH   1   7
BRANCH   4  15
ATOM     15  C   UNL A   1      44.734 -19.972 -34.496  0.00  0.00    +0.049 C 
BRANCH  15  16
ATOM     16  N   UNL A   1      43.645 -19.205 -33.898  0.00  0.00    -0.339 N 
ATOM     17  C   UNL A   1      43.667 -17.853 -33.653  0.00  0.00    +0.023 A 
ATOM     18  C   UNL A   1      42.469 -17.505 -33.061  0.00  0.00    -0.019 A 
ATOM     19  C   UNL A   1      41.685 -18.684 -32.944  0.00  0.00    +0.003 A 
ATOM     20  C   UNL A   1      40.399 -18.951 -32.431  0.00  0.00    -0.052 A 
ATOM     21  C   UNL A   1      39.889 -20.251 -32.484  0.00  0.00    -0.061 A 
ATOM     22  C   UNL A   1      40.639 -21.282 -33.041  0.00  0.00    -0.060 A 
ATOM     23  C   UNL A   1      41.918 -21.044 -33.554  0.00  0.00    -0.038 A 
ATOM     24  C   UNL A   1      42.429 -19.735 -33.492  0.00  0.00    +0.050 A 
ATOM     25  C   UNL A   1      42.144 -16.107 -32.648  0.00  0.00    -0.025 C 
ATOM     26  C   UNL A   1      43.083 -15.095 -33.328  0.00  0.00    -0.049 C 
ATOM     27  C   UNL A   1      44.549 -15.556 -33.286  0.00  0.00    -0.047 C 
ATOM     28  C   UNL A   1      44.758 -16.898 -34.010  0.00  0.00    -0.012 C 
ENDBRANCH  15  16
ENDBRANCH   4  15
TORSDOF 4
ENDMDL
