REMARK  Name = cpd351.pdb
REMARK  5 active torsions:
REMARK  status: ('A' for Active; 'I' for Inactive)
REMARK    1  A    between atoms: C_1  and  C_2
REMARK    2  A    between atoms: C_6  and  C_7
REMARK    3  A    between atoms: C_7  and  N_8
REMARK    4  A    between atoms: C_11  and  C_12
REMARK    5  A    between atoms: C_12  and  N_13
REMARK                            x       y       z     vdW  Elec       q    Type
REMARK                         _______ _______ _______ _____ _____    ______ ____
ROOT
ATOM      1  N   UNL A   1       3.510  -1.450   0.719  0.00  0.00    -0.349 N 
ATOM      2  C   UNL A   1       2.440  -2.211   1.042  0.00  0.00    +0.005 A 
ATOM      3  C   UNL A   1       1.304  -2.215   0.241  0.00  0.00    -0.041 A 
ATOM      4  C   UNL A   1       1.249  -1.414  -0.904  0.00  0.00    -0.025 A 
ATOM      5  C   UNL A   1       2.376  -0.655  -1.224  0.00  0.00    -0.041 A 
ATOM      6  C   UNL A   1       3.495  -0.684  -0.395  0.00  0.00    +0.005 A 
ENDROOT
BRANCH   1   7
ATOM      7  C   UNL A   1       4.707  -1.456   1.595  0.00  0.00    +0.048 C 
BRANCH   7  13
ATOM      8  C   UNL A   1       8.577  -3.025  -1.243  0.00  0.00    -0.040 C 
ATOM      9  C   UNL A   1       7.506  -3.308  -0.228  0.00  0.00    -0.050 A 
ATOM     10  C   UNL A   1       7.408  -4.576   0.353  0.00  0.00    -0.059 A 
ATOM     11  C   UNL A   1       6.445  -4.833   1.327  0.00  0.00    -0.061 A 
ATOM     12  C   UNL A   1       5.573  -3.824   1.735  0.00  0.00    -0.057 A 
ATOM     13  C   UNL A   1       5.662  -2.541   1.175  0.00  0.00    -0.028 A 
ATOM     14  C   UNL A   1       6.640  -2.292   0.196  0.00  0.00    -0.054 A 
ENDBRANCH   7  13
ENDBRANCH   1   7
BRANCH   4  15
ATOM     15  C   UNL A   1       0.022  -1.382  -1.796  0.00  0.00    +0.049 C 
BRANCH  15  16
ATOM     16  N   UNL A   1      -1.197  -1.128  -1.034  0.00  0.00    -0.339 N 
ATOM     17  C   UNL A   1      -1.619   0.105  -0.597  0.00  0.00    +0.023 A 
ATOM     18  C   UNL A   1      -2.795  -0.068   0.105  0.00  0.00    -0.019 A 
ATOM     19  C   UNL A   1      -3.107  -1.454   0.093  0.00  0.00    +0.003 A 
ATOM     20  C   UNL A   1      -4.161  -2.219   0.633  0.00  0.00    -0.052 A 
ATOM     21  C   UNL A   1      -4.193  -3.600   0.421  0.00  0.00    -0.061 A 
ATOM     22  C   UNL A   1      -3.195  -4.224  -0.320  0.00  0.00    -0.060 A 
ATOM     23  C   UNL A   1      -2.137  -3.488  -0.864  0.00  0.00    -0.038 A 
ATOM     24  C   UNL A   1      -2.106  -2.100  -0.642  0.00  0.00    +0.050 A 
ATOM     25  C   UNL A   1      -3.539   1.064   0.733  0.00  0.00    -0.025 C 
ATOM     26  C   UNL A   1      -3.083   2.416   0.156  0.00  0.00    -0.049 C 
ATOM     27  C   UNL A   1      -1.552   2.506   0.049  0.00  0.00    -0.047 C 
ATOM     28  C   UNL A   1      -0.968   1.420  -0.872  0.00  0.00    -0.012 C 
ENDBRANCH  15  16
ENDBRANCH   4  15
TORSDOF 4
