REMARK  Name = cpd241.pdb
REMARK  6 active torsions:
REMARK  status: ('A' for Active; 'I' for Inactive)
REMARK    1  A    between atoms: C_1  and  C_2
REMARK    2  A    between atoms: N_4  and  C_5
REMARK    3  A    between atoms: C_8  and  C_9
REMARK    4  A    between atoms: C_9  and  O_10
REMARK    5  A    between atoms: N_12  and  C_13
REMARK    6  A    between atoms: N_12  and  C_14
REMARK                            x       y       z     vdW  Elec       q    Type
REMARK                         _______ _______ _______ _____ _____    ______ ____
ROOT
ATOM      1  C   UNL     1      -1.610   0.755   0.294  0.00  0.00    +0.033 A 
ATOM      2  C   UNL     1      -1.020   1.985   0.016  0.00  0.00    -0.040 A 
ATOM      3  C   UNL     1       0.338   2.068  -0.329  0.00  0.00    -0.052 A 
ATOM      4  C   UNL     1       1.146   0.921  -0.404  0.00  0.00    +0.009 A 
ATOM      5  C   UNL     1       0.551  -0.312  -0.111  0.00  0.00    -0.052 A 
ATOM      6  C   UNL     1      -0.804  -0.390   0.234  0.00  0.00    -0.040 A 
ENDROOT
BRANCH   4   7
ATOM      7  C   UNL     1       2.625   1.033  -0.753  0.00  0.00    +0.179 C 
ATOM      8  C   UNL     1       3.419   1.558   0.495  0.00  0.00    -0.029 C 
ATOM      9  N   UNL     1       4.957   1.726   0.201  0.00  0.00    +0.381 N 
ATOM     10  C   UNL     1       5.746   1.426   1.466  0.00  0.00    -0.100 C 
ATOM     11  C   UNL     1       5.246   3.161  -0.229  0.00  0.00    -0.100 C 
ATOM     12  C   UNL     1       5.373   0.767  -0.944  0.00  0.00    -0.064 C 
ATOM     13  C   UNL     1       4.495  -0.489  -0.934  0.00  0.00    +0.037 C 
ATOM     14  O   UNL     1       3.114  -0.233  -1.206  0.00  0.00    -0.348 OA
BRANCH   7  15
ATOM     15  O   UNL     1       2.788   1.941  -1.840  0.00  0.00    -0.362 OA
ATOM     16  H   UNL     1       2.468   2.819  -1.579  0.00  0.00    +0.000 HD
ENDBRANCH   7  15
ENDBRANCH   4   7
BRANCH   1  20
ATOM     17  C   UNL     1      -4.040   2.775   0.300  0.00  0.00    +0.012 C 
ATOM     18  C   UNL     1      -4.055   1.341   0.736  0.00  0.00    +0.214 C 
ATOM     19  O   UNL     1      -5.093   0.835   1.172  0.00  0.00    -0.276 OA
ATOM     20  N   UNL     1      -2.951   0.548   0.656  0.00  0.00    -0.286 N 
ATOM     21  H   UNL     1      -3.135  -0.385   0.910  0.00  0.00    +0.000 HD
ENDBRANCH   1  20
TORSDOF 3
