MODEL 1
REMARK VINA RESULT:    -7.128      0.000      0.000
REMARK INTER + INTRA:          -8.511
REMARK INTER:                  -8.169
REMARK INTRA:                  -0.341
REMARK UNBOUND:                -0.341
REMARK  Name = cpd241.pdb
REMARK  6 active torsions:
REMARK  status: ('A' for Active; 'I' for Inactive)
REMARK    1  A    between atoms: C_1  and  C_2
REMARK    2  A    between atoms: N_4  and  C_5
REMARK    3  A    between atoms: C_8  and  C_9
REMARK    4  A    between atoms: C_9  and  O_10
REMARK    5  A    between atoms: N_12  and  C_13
REMARK    6  A    between atoms: N_12  and  C_14
REMARK                            x       y       z     vdW  Elec       q    Type
REMARK                         _______ _______ _______ _____ _____    ______ ____
ROOT
ATOM      1  C   UNL     1      40.730 -37.208 -30.026  0.00  0.00    +0.033 A 
ATOM      2  C   UNL     1      40.418 -37.963 -28.898  0.00  0.00    -0.040 A 
ATOM      3  C   UNL     1      39.082 -38.246 -28.572  0.00  0.00    -0.052 A 
ATOM      4  C   UNL     1      38.020 -37.780 -29.365  0.00  0.00    +0.009 A 
ATOM      5  C   UNL     1      38.339 -37.011 -30.490  0.00  0.00    -0.052 A 
ATOM      6  C   UNL     1      39.673 -36.730 -30.811  0.00  0.00    -0.040 A 
ENDROOT
BRANCH   4   7
ATOM      7  C   UNL     1      36.575 -38.074 -28.980  0.00  0.00    +0.179 C 
ATOM      8  C   UNL     1      35.892 -36.757 -28.468  0.00  0.00    -0.029 C 
ATOM      9  N   UNL     1      34.399 -36.989 -28.024  0.00  0.00    +0.381 N 
ATOM     10  C   UNL     1      33.586 -35.739 -28.324  0.00  0.00    -0.100 C 
ATOM     11  C   UNL     1      34.343 -37.262 -26.524  0.00  0.00    -0.100 C 
ATOM     12  C   UNL     1      33.819 -38.213 -28.778  0.00  0.00    -0.064 C 
ATOM     13  C   UNL     1      34.480 -38.355 -30.153  0.00  0.00    +0.037 C 
ATOM     14  O   UNL     1      35.881 -38.639 -30.096  0.00  0.00    -0.348 OA
BRANCH   7  15
ATOM     15  O   UNL     1      36.550 -39.058 -27.949  0.00  0.00    -0.362 OA
ATOM     16  H   UNL     1      35.769 -39.623 -28.059  0.00  0.00    +0.000 HD
ENDBRANCH   7  15
ENDBRANCH   4   7
BRANCH   1  20
ATOM     17  C   UNL     1      43.176 -39.048 -30.813  0.00  0.00    +0.012 C 
ATOM     18  C   UNL     1      43.149 -37.550 -30.768  0.00  0.00    +0.214 C 
ATOM     19  O   UNL     1      44.163 -36.902 -31.040  0.00  0.00    -0.276 OA
ATOM     20  N   UNL     1      42.022 -36.855 -30.448  0.00  0.00    -0.286 N 
ATOM     21  H   UNL     1      42.141 -35.881 -30.531  0.00  0.00    +0.000 HD
ENDBRANCH   1  20
TORSDOF 3
ENDMDL
MODEL 2
REMARK VINA RESULT:    -6.931      1.716      2.565
REMARK INTER + INTRA:          -8.285
REMARK INTER:                  -7.910
REMARK INTRA:                  -0.376
REMARK UNBOUND:                -0.341
REMARK  Name = cpd241.pdb
REMARK  6 active torsions:
REMARK  status: ('A' for Active; 'I' for Inactive)
REMARK    1  A    between atoms: C_1  and  C_2
REMARK    2  A    between atoms: N_4  and  C_5
REMARK    3  A    between atoms: C_8  and  C_9
REMARK    4  A    between atoms: C_9  and  O_10
REMARK    5  A    between atoms: N_12  and  C_13
REMARK    6  A    between atoms: N_12  and  C_14
REMARK                            x       y       z     vdW  Elec       q    Type
REMARK                         _______ _______ _______ _____ _____    ______ ____
ROOT
ATOM      1  C   UNL     1      40.460 -37.136 -29.764  0.00  0.00    +0.033 A 
ATOM      2  C   UNL     1      40.123 -38.036 -28.756  0.00  0.00    -0.040 A 
ATOM      3  C   UNL     1      38.808 -38.510 -28.628  0.00  0.00    -0.052 A 
ATOM      4  C   UNL     1      37.792 -38.097 -29.505  0.00  0.00    +0.009 A 
ATOM      5  C   UNL     1      38.133 -37.182 -30.509  0.00  0.00    -0.052 A 
ATOM      6  C   UNL     1      39.446 -36.710 -30.632  0.00  0.00    -0.040 A 
ENDROOT
BRANCH   4   7
ATOM      7  C   UNL     1      36.364 -38.601 -29.334  0.00  0.00    +0.179 C 
ATOM      8  C   UNL     1      36.384 -40.149 -29.074  0.00  0.00    -0.029 C 
ATOM      9  N   UNL     1      34.936 -40.749 -28.913  0.00  0.00    +0.381 N 
ATOM     10  C   UNL     1      34.979 -41.906 -27.927  0.00  0.00    -0.100 C 
ATOM     11  C   UNL     1      34.442 -41.270 -30.259  0.00  0.00    -0.100 C 
ATOM     12  C   UNL     1      33.969 -39.643 -28.419  0.00  0.00    -0.064 C 
ATOM     13  C   UNL     1      34.721 -38.621 -27.560  0.00  0.00    +0.037 C 
ATOM     14  O   UNL     1      35.720 -37.887 -28.275  0.00  0.00    -0.348 OA
BRANCH   7  15
ATOM     15  O   UNL     1      35.619 -38.325 -30.518  0.00  0.00    -0.362 OA
ATOM     16  H   UNL     1      36.031 -37.588 -30.995  0.00  0.00    +0.000 HD
ENDBRANCH   7  15
ENDBRANCH   4   7
BRANCH   1  20
ATOM     17  C   UNL     1      42.570 -37.770 -32.029  0.00  0.00    +0.012 C 
ATOM     18  C   UNL     1      42.728 -36.810 -30.889  0.00  0.00    +0.214 C 
ATOM     19  O   UNL     1      43.779 -36.178 -30.750  0.00  0.00    -0.276 OA
ATOM     20  N   UNL     1      41.734 -36.587 -29.986  0.00  0.00    -0.286 N 
ATOM     21  H   UNL     1      41.959 -35.879 -29.340  0.00  0.00    +0.000 HD
ENDBRANCH   1  20
TORSDOF 3
ENDMDL
MODEL 3
REMARK VINA RESULT:    -6.882      1.652      2.289
REMARK INTER + INTRA:          -8.229
REMARK INTER:                  -7.929
REMARK INTRA:                  -0.300
REMARK UNBOUND:                -0.341
REMARK  Name = cpd241.pdb
REMARK  6 active torsions:
REMARK  status: ('A' for Active; 'I' for Inactive)
REMARK    1  A    between atoms: C_1  and  C_2
REMARK    2  A    between atoms: N_4  and  C_5
REMARK    3  A    between atoms: C_8  and  C_9
REMARK    4  A    between atoms: C_9  and  O_10
REMARK    5  A    between atoms: N_12  and  C_13
REMARK    6  A    between atoms: N_12  and  C_14
REMARK                            x       y       z     vdW  Elec       q    Type
REMARK                         _______ _______ _______ _____ _____    ______ ____
ROOT
ATOM      1  C   UNL     1      40.645 -36.390 -30.757  0.00  0.00    +0.033 A 
ATOM      2  C   UNL     1      39.885 -37.060 -29.802  0.00  0.00    -0.040 A 
ATOM      3  C   UNL     1      38.484 -36.979 -29.814  0.00  0.00    -0.052 A 
ATOM      4  C   UNL     1      37.802 -36.222 -30.782  0.00  0.00    +0.009 A 
ATOM      5  C   UNL     1      38.571 -35.540 -31.732  0.00  0.00    -0.052 A 
ATOM      6  C   UNL     1      39.969 -35.623 -31.716  0.00  0.00    -0.040 A 
ENDROOT
BRANCH   4   7
ATOM      7  C   UNL     1      36.282 -36.123 -30.763  0.00  0.00    +0.179 C 
ATOM      8  C   UNL     1      35.747 -36.552 -29.351  0.00  0.00    -0.029 C 
ATOM      9  N   UNL     1      34.175 -36.501 -29.263  0.00  0.00    +0.381 N 
ATOM     10  C   UNL     1      33.764 -36.114 -27.851  0.00  0.00    -0.100 C 
ATOM     11  C   UNL     1      33.596 -37.875 -29.584  0.00  0.00    -0.100 C 
ATOM     12  C   UNL     1      33.632 -35.476 -30.292  0.00  0.00    -0.064 C 
ATOM     13  C   UNL     1      34.652 -34.354 -30.517  0.00  0.00    +0.037 C 
ATOM     14  O   UNL     1      35.878 -34.794 -31.108  0.00  0.00    -0.348 OA
BRANCH   7  15
ATOM     15  O   UNL     1      35.738 -36.983 -31.762  0.00  0.00    -0.362 OA
ATOM     16  H   UNL     1      35.066 -37.557 -31.363  0.00  0.00    +0.000 HD
ENDBRANCH   7  15
ENDBRANCH   4   7
BRANCH   1  20
ATOM     17  C   UNL     1      42.665 -38.816 -30.882  0.00  0.00    +0.012 C 
ATOM     18  C   UNL     1      43.005 -37.357 -30.860  0.00  0.00    +0.214 C 
ATOM     19  O   UNL     1      44.185 -36.993 -30.873  0.00  0.00    -0.276 OA
ATOM     20  N   UNL     1      42.047 -36.390 -30.842  0.00  0.00    -0.286 N 
ATOM     21  H   UNL     1      42.422 -35.482 -30.903  0.00  0.00    +0.000 HD
ENDBRANCH   1  20
TORSDOF 3
ENDMDL
MODEL 4
REMARK VINA RESULT:    -6.552      1.991      2.565
REMARK INTER + INTRA:          -7.851
REMARK INTER:                  -7.726
REMARK INTRA:                  -0.126
REMARK UNBOUND:                -0.341
REMARK  Name = cpd241.pdb
REMARK  6 active torsions:
REMARK  status: ('A' for Active; 'I' for Inactive)
REMARK    1  A    between atoms: C_1  and  C_2
REMARK    2  A    between atoms: N_4  and  C_5
REMARK    3  A    between atoms: C_8  and  C_9
REMARK    4  A    between atoms: C_9  and  O_10
REMARK    5  A    between atoms: N_12  and  C_13
REMARK    6  A    between atoms: N_12  and  C_14
REMARK                            x       y       z     vdW  Elec       q    Type
REMARK                         _______ _______ _______ _____ _____    ______ ____
ROOT
ATOM      1  C   UNL     1      40.415 -36.223 -30.925  0.00  0.00    +0.033 A 
ATOM      2  C   UNL     1      39.566 -35.545 -31.795  0.00  0.00    -0.040 A 
ATOM      3  C   UNL     1      38.172 -35.645 -31.661  0.00  0.00    -0.052 A 
ATOM      4  C   UNL     1      37.588 -36.428 -30.651  0.00  0.00    +0.009 A 
ATOM      5  C   UNL     1      38.447 -37.118 -29.787  0.00  0.00    -0.052 A 
ATOM      6  C   UNL     1      39.837 -37.016 -29.926  0.00  0.00    -0.040 A 
ENDROOT
BRANCH   4   7
ATOM      7  C   UNL     1      36.073 -36.547 -30.537  0.00  0.00    +0.179 C 
ATOM      8  C   UNL     1      35.398 -35.301 -31.212  0.00  0.00    -0.029 C 
ATOM      9  N   UNL     1      33.827 -35.340 -31.109  0.00  0.00    +0.381 N 
ATOM     10  C   UNL     1      33.227 -34.694 -32.347  0.00  0.00    -0.100 C 
ATOM     11  C   UNL     1      33.372 -34.562 -29.879  0.00  0.00    -0.100 C 
ATOM     12  C   UNL     1      33.354 -36.811 -30.975  0.00  0.00    -0.064 C 
ATOM     13  C   UNL     1      34.326 -37.752 -31.694  0.00  0.00    +0.037 C 
ATOM     14  O   UNL     1      35.638 -37.777 -31.123  0.00  0.00    -0.348 OA
BRANCH   7  15
ATOM     15  O   UNL     1      35.705 -36.603 -29.161  0.00  0.00    -0.362 OA
ATOM     16  H   UNL     1      34.742 -36.517 -29.080  0.00  0.00    +0.000 HD
ENDBRANCH   7  15
ENDBRANCH   4   7
BRANCH   1  20
ATOM     17  C   UNL     1      42.470 -38.623 -30.894  0.00  0.00    +0.012 C 
ATOM     18  C   UNL     1      42.790 -37.159 -30.917  0.00  0.00    +0.214 C 
ATOM     19  O   UNL     1      43.965 -36.780 -30.906  0.00  0.00    -0.276 OA
ATOM     20  N   UNL     1      41.819 -36.206 -30.966  0.00  0.00    -0.286 N 
ATOM     21  H   UNL     1      42.185 -35.296 -31.049  0.00  0.00    +0.000 HD
ENDBRANCH   1  20
TORSDOF 3
ENDMDL
MODEL 5
REMARK VINA RESULT:    -6.533      3.073      4.180
REMARK INTER + INTRA:          -7.829
REMARK INTER:                  -7.725
REMARK INTRA:                  -0.103
REMARK UNBOUND:                -0.341
REMARK  Name = cpd241.pdb
REMARK  6 active torsions:
REMARK  status: ('A' for Active; 'I' for Inactive)
REMARK    1  A    between atoms: C_1  and  C_2
REMARK    2  A    between atoms: N_4  and  C_5
REMARK    3  A    between atoms: C_8  and  C_9
REMARK    4  A    between atoms: C_9  and  O_10
REMARK    5  A    between atoms: N_12  and  C_13
REMARK    6  A    between atoms: N_12  and  C_14
REMARK                            x       y       z     vdW  Elec       q    Type
REMARK                         _______ _______ _______ _____ _____    ______ ____
ROOT
ATOM      1  C   UNL     1      38.883 -36.190 -30.790  0.00  0.00    +0.033 A 
ATOM      2  C   UNL     1      38.686 -35.033 -31.540  0.00  0.00    -0.040 A 
ATOM      3  C   UNL     1      37.444 -34.381 -31.541  0.00  0.00    -0.052 A 
ATOM      4  C   UNL     1      36.360 -34.869 -30.791  0.00  0.00    +0.009 A 
ATOM      5  C   UNL     1      36.559 -36.040 -30.049  0.00  0.00    -0.052 A 
ATOM      6  C   UNL     1      37.801 -36.688 -30.052  0.00  0.00    -0.040 A 
ENDROOT
BRANCH   4   7
ATOM      7  C   UNL     1      35.010 -34.164 -30.826  0.00  0.00    +0.179 C 
ATOM      8  C   UNL     1      34.129 -34.661 -29.626  0.00  0.00    -0.029 C 
ATOM      9  N   UNL     1      32.702 -33.993 -29.611  0.00  0.00    +0.381 N 
ATOM     10  C   UNL     1      32.243 -33.822 -28.172  0.00  0.00    -0.100 C 
ATOM     11  C   UNL     1      31.706 -34.889 -30.342  0.00  0.00    -0.100 C 
ATOM     12  C   UNL     1      32.765 -32.622 -30.333  0.00  0.00    -0.064 C 
ATOM     13  C   UNL     1      34.156 -31.998 -30.173  0.00  0.00    +0.037 C 
ATOM     14  O   UNL     1      35.202 -32.747 -30.799  0.00  0.00    -0.348 OA
BRANCH   7  15
ATOM     15  O   UNL     1      34.352 -34.459 -32.056  0.00  0.00    -0.362 OA
ATOM     16  H   UNL     1      34.271 -33.648 -32.583  0.00  0.00    +0.000 HD
ENDBRANCH   7  15
ENDBRANCH   4   7
BRANCH   1  20
ATOM     17  C   UNL     1      41.181 -36.546 -32.930  0.00  0.00    +0.012 C 
ATOM     18  C   UNL     1      41.099 -37.185 -31.576  0.00  0.00    +0.214 C 
ATOM     19  O   UNL     1      41.983 -37.960 -31.200  0.00  0.00    -0.276 OA
ATOM     20  N   UNL     1      40.074 -36.931 -30.716  0.00  0.00    -0.286 N 
ATOM     21  H   UNL     1      40.196 -37.366 -29.842  0.00  0.00    +0.000 HD
ENDBRANCH   1  20
TORSDOF 3
ENDMDL
MODEL 6
REMARK VINA RESULT:    -6.292     20.610     22.105
REMARK INTER + INTRA:          -7.553
REMARK INTER:                  -7.127
REMARK INTRA:                  -0.426
REMARK UNBOUND:                -0.341
REMARK  Name = cpd241.pdb
REMARK  6 active torsions:
REMARK  status: ('A' for Active; 'I' for Inactive)
REMARK    1  A    between atoms: C_1  and  C_2
REMARK    2  A    between atoms: N_4  and  C_5
REMARK    3  A    between atoms: C_8  and  C_9
REMARK    4  A    between atoms: C_9  and  O_10
REMARK    5  A    between atoms: N_12  and  C_13
REMARK    6  A    between atoms: N_12  and  C_14
REMARK                            x       y       z     vdW  Elec       q    Type
REMARK                         _______ _______ _______ _____ _____    ______ ____
ROOT
ATOM      1  C   UNL     1      45.741 -19.149 -34.852  0.00  0.00    +0.033 A 
ATOM      2  C   UNL     1      44.817 -19.734 -35.713  0.00  0.00    -0.040 A 
ATOM      3  C   UNL     1      45.166 -20.044 -37.037  0.00  0.00    -0.052 A 
ATOM      4  C   UNL     1      46.451 -19.774 -37.538  0.00  0.00    +0.009 A 
ATOM      5  C   UNL     1      47.372 -19.173 -36.671  0.00  0.00    -0.052 A 
ATOM      6  C   UNL     1      47.019 -18.865 -35.352  0.00  0.00    -0.040 A 
ENDROOT
BRANCH   4   7
ATOM      7  C   UNL     1      46.803 -20.092 -38.986  0.00  0.00    +0.179 C 
ATOM      8  C   UNL     1      45.690 -21.006 -39.607  0.00  0.00    -0.029 C 
ATOM      9  N   UNL     1      46.000 -21.400 -41.100  0.00  0.00    +0.381 N 
ATOM     10  C   UNL     1      44.694 -21.526 -41.868  0.00  0.00    -0.100 C 
ATOM     11  C   UNL     1      46.724 -22.743 -41.139  0.00  0.00    -0.100 C 
ATOM     12  C   UNL     1      46.911 -20.322 -41.741  0.00  0.00    -0.064 C 
ATOM     13  C   UNL     1      46.640 -18.951 -41.111  0.00  0.00    +0.037 C 
ATOM     14  O   UNL     1      46.972 -18.876 -39.722  0.00  0.00    -0.348 OA
BRANCH   7  15
ATOM     15  O   UNL     1      48.058 -20.768 -39.031  0.00  0.00    -0.362 OA
ATOM     16  H   UNL     1      47.920 -21.686 -39.311  0.00  0.00    +0.000 HD
ENDBRANCH   7  15
ENDBRANCH   4   7
BRANCH   1  20
ATOM     17  C   UNL     1      44.702 -16.420 -33.643  0.00  0.00    +0.012 C 
ATOM     18  C   UNL     1      45.106 -17.649 -32.886  0.00  0.00    +0.214 C 
ATOM     19  O   UNL     1      45.070 -17.658 -31.652  0.00  0.00    -0.276 OA
ATOM     20  N   UNL     1      45.507 -18.788 -33.515  0.00  0.00    -0.286 N 
ATOM     21  H   UNL     1      45.669 -19.530 -32.888  0.00  0.00    +0.000 HD
ENDBRANCH   1  20
TORSDOF 3
ENDMDL
MODEL 7
REMARK VINA RESULT:    -6.205      1.600      2.091
REMARK INTER + INTRA:          -7.454
REMARK INTER:                  -7.440
REMARK INTRA:                  -0.013
REMARK UNBOUND:                -0.341
REMARK  Name = cpd241.pdb
REMARK  6 active torsions:
REMARK  status: ('A' for Active; 'I' for Inactive)
REMARK    1  A    between atoms: C_1  and  C_2
REMARK    2  A    between atoms: N_4  and  C_5
REMARK    3  A    between atoms: C_8  and  C_9
REMARK    4  A    between atoms: C_9  and  O_10
REMARK    5  A    between atoms: N_12  and  C_13
REMARK    6  A    between atoms: N_12  and  C_14
REMARK                            x       y       z     vdW  Elec       q    Type
REMARK                         _______ _______ _______ _____ _____    ______ ____
ROOT
ATOM      1  C   UNL     1      39.207 -35.776 -30.955  0.00  0.00    +0.033 A 
ATOM      2  C   UNL     1      37.874 -35.386 -31.047  0.00  0.00    -0.040 A 
ATOM      3  C   UNL     1      36.878 -36.059 -30.323  0.00  0.00    -0.052 A 
ATOM      4  C   UNL     1      37.187 -37.144 -29.485  0.00  0.00    +0.009 A 
ATOM      5  C   UNL     1      38.528 -37.540 -29.405  0.00  0.00    -0.052 A 
ATOM      6  C   UNL     1      39.518 -36.866 -30.131  0.00  0.00    -0.040 A 
ENDROOT
BRANCH   4   7
ATOM      7  C   UNL     1      36.089 -37.880 -28.728  0.00  0.00    +0.179 C 
ATOM      8  C   UNL     1      35.150 -36.838 -28.024  0.00  0.00    -0.029 C 
ATOM      9  N   UNL     1      34.001 -37.527 -27.196  0.00  0.00    +0.381 N 
ATOM     10  C   UNL     1      32.757 -36.655 -27.240  0.00  0.00    -0.100 C 
ATOM     11  C   UNL     1      34.438 -37.687 -25.743  0.00  0.00    -0.100 C 
ATOM     12  C   UNL     1      33.708 -38.930 -27.787  0.00  0.00    -0.064 C 
ATOM     13  C   UNL     1      33.994 -38.946 -29.292  0.00  0.00    +0.037 C 
ATOM     14  O   UNL     1      35.369 -38.732 -29.624  0.00  0.00    -0.348 OA
BRANCH   7  15
ATOM     15  O   UNL     1      36.678 -38.731 -27.747  0.00  0.00    -0.362 OA
ATOM     16  H   UNL     1      37.228 -39.399 -28.187  0.00  0.00    +0.000 HD
ENDBRANCH   7  15
ENDBRANCH   4   7
BRANCH   1  20
ATOM     17  C   UNL     1      41.691 -37.128 -32.365  0.00  0.00    +0.012 C 
ATOM     18  C   UNL     1      41.413 -35.661 -32.234  0.00  0.00    +0.214 C 
ATOM     19  O   UNL     1      42.209 -34.834 -32.689  0.00  0.00    -0.276 OA
ATOM     20  N   UNL     1      40.286 -35.187 -31.634  0.00  0.00    -0.286 N 
ATOM     21  H   UNL     1      40.210 -34.208 -31.689  0.00  0.00    +0.000 HD
ENDBRANCH   1  20
TORSDOF 3
ENDMDL
MODEL 8
REMARK VINA RESULT:    -6.003     18.299     19.933
REMARK INTER + INTRA:          -7.221
REMARK INTER:                  -6.792
REMARK INTRA:                  -0.429
REMARK UNBOUND:                -0.341
REMARK  Name = cpd241.pdb
REMARK  6 active torsions:
REMARK  status: ('A' for Active; 'I' for Inactive)
REMARK    1  A    between atoms: C_1  and  C_2
REMARK    2  A    between atoms: N_4  and  C_5
REMARK    3  A    between atoms: C_8  and  C_9
REMARK    4  A    between atoms: C_9  and  O_10
REMARK    5  A    between atoms: N_12  and  C_13
REMARK    6  A    between atoms: N_12  and  C_14
REMARK                            x       y       z     vdW  Elec       q    Type
REMARK                         _______ _______ _______ _____ _____    ______ ____
ROOT
ATOM      1  C   UNL     1      45.527 -20.762 -41.085  0.00  0.00    +0.033 A 
ATOM      2  C   UNL     1      44.386 -21.121 -41.798  0.00  0.00    -0.040 A 
ATOM      3  C   UNL     1      43.182 -21.400 -41.132  0.00  0.00    -0.052 A 
ATOM      4  C   UNL     1      43.086 -21.330 -39.732  0.00  0.00    +0.009 A 
ATOM      5  C   UNL     1      44.239 -20.981 -39.019  0.00  0.00    -0.052 A 
ATOM      6  C   UNL     1      45.438 -20.704 -39.687  0.00  0.00    -0.040 A 
ENDROOT
BRANCH   4   7
ATOM      7  C   UNL     1      41.778 -21.664 -39.025  0.00  0.00    +0.179 C 
ATOM      8  C   UNL     1      41.826 -21.122 -37.553  0.00  0.00    -0.029 C 
ATOM      9  N   UNL     1      40.514 -21.454 -36.747  0.00  0.00    +0.381 N 
ATOM     10  C   UNL     1      40.233 -20.332 -35.760  0.00  0.00    -0.100 C 
ATOM     11  C   UNL     1      40.701 -22.755 -35.972  0.00  0.00    -0.100 C 
ATOM     12  C   UNL     1      39.330 -21.625 -37.734  0.00  0.00    -0.064 C 
ATOM     13  C   UNL     1      39.539 -20.751 -38.975  0.00  0.00    +0.037 C 
ATOM     14  O   UNL     1      40.677 -21.122 -39.760  0.00  0.00    -0.348 OA
BRANCH   7  15
ATOM     15  O   UNL     1      41.595 -23.077 -39.008  0.00  0.00    -0.362 OA
ATOM     16  H   UNL     1      40.873 -23.303 -38.402  0.00  0.00    +0.000 HD
ENDBRANCH   7  15
ENDBRANCH   4   7
BRANCH   1  20
ATOM     17  C   UNL     1      47.981 -22.668 -41.658  0.00  0.00    +0.012 C 
ATOM     18  C   UNL     1      47.912 -21.188 -41.887  0.00  0.00    +0.214 C 
ATOM     19  O   UNL     1      48.892 -20.581 -42.330  0.00  0.00    -0.276 OA
ATOM     20  N   UNL     1      46.784 -20.468 -41.637  0.00  0.00    -0.286 N 
ATOM     21  H   UNL     1      46.869 -19.524 -41.904  0.00  0.00    +0.000 HD
ENDBRANCH   1  20
TORSDOF 3
ENDMDL
MODEL 9
REMARK VINA RESULT:    -5.963      4.383      8.131
REMARK INTER + INTRA:          -7.176
REMARK INTER:                  -6.756
REMARK INTRA:                  -0.420
REMARK UNBOUND:                -0.341
REMARK  Name = cpd241.pdb
REMARK  6 active torsions:
REMARK  status: ('A' for Active; 'I' for Inactive)
REMARK    1  A    between atoms: C_1  and  C_2
REMARK    2  A    between atoms: N_4  and  C_5
REMARK    3  A    between atoms: C_8  and  C_9
REMARK    4  A    between atoms: C_9  and  O_10
REMARK    5  A    between atoms: N_12  and  C_13
REMARK    6  A    between atoms: N_12  and  C_14
REMARK                            x       y       z     vdW  Elec       q    Type
REMARK                         _______ _______ _______ _____ _____    ______ ____
ROOT
ATOM      1  C   UNL     1      32.910 -32.053 -30.785  0.00  0.00    +0.033 A 
ATOM      2  C   UNL     1      33.936 -32.320 -29.883  0.00  0.00    -0.040 A 
ATOM      3  C   UNL     1      34.701 -33.492 -29.992  0.00  0.00    -0.052 A 
ATOM      4  C   UNL     1      34.459 -34.432 -31.008  0.00  0.00    +0.009 A 
ATOM      5  C   UNL     1      33.418 -34.165 -31.905  0.00  0.00    -0.052 A 
ATOM      6  C   UNL     1      32.657 -32.995 -31.791  0.00  0.00    -0.040 A 
ENDROOT
BRANCH   4   7
ATOM      7  C   UNL     1      35.281 -35.712 -31.095  0.00  0.00    +0.179 C 
ATOM      8  C   UNL     1      36.218 -35.819 -29.840  0.00  0.00    -0.029 C 
ATOM      9  N   UNL     1      37.121 -37.109 -29.873  0.00  0.00    +0.381 N 
ATOM     10  C   UNL     1      37.347 -37.601 -28.452  0.00  0.00    -0.100 C 
ATOM     11  C   UNL     1      38.473 -36.775 -30.497  0.00  0.00    -0.100 C 
ATOM     12  C   UNL     1      36.431 -38.203 -30.728  0.00  0.00    -0.064 C 
ATOM     13  C   UNL     1      34.908 -38.059 -30.650  0.00  0.00    +0.037 C 
ATOM     14  O   UNL     1      34.410 -36.841 -31.212  0.00  0.00    -0.348 OA
BRANCH   7  15
ATOM     15  O   UNL     1      36.072 -35.688 -32.281  0.00  0.00    -0.362 OA
ATOM     16  H   UNL     1      36.945 -36.069 -32.096  0.00  0.00    +0.000 HD
ENDBRANCH   7  15
ENDBRANCH   4   7
BRANCH   1  20
ATOM     17  C   UNL     1      30.463 -31.365 -28.908  0.00  0.00    +0.012 C 
ATOM     18  C   UNL     1      30.986 -30.546 -30.049  0.00  0.00    +0.214 C 
ATOM     19  O   UNL     1      30.436 -29.484 -30.354  0.00  0.00    -0.276 OA
ATOM     20  N   UNL     1      32.076 -30.923 -30.772  0.00  0.00    -0.286 N 
ATOM     21  H   UNL     1      32.341 -30.249 -31.439  0.00  0.00    +0.000 HD
ENDBRANCH   1  20
TORSDOF 3
ENDMDL
MODEL 10
REMARK VINA RESULT:    -5.956      3.668      5.517
REMARK INTER + INTRA:          -7.168
REMARK INTER:                  -6.775
REMARK INTRA:                  -0.393
REMARK UNBOUND:                -0.341
REMARK  Name = cpd241.pdb
REMARK  6 active torsions:
REMARK  status: ('A' for Active; 'I' for Inactive)
REMARK    1  A    between atoms: C_1  and  C_2
REMARK    2  A    between atoms: N_4  and  C_5
REMARK    3  A    between atoms: C_8  and  C_9
REMARK    4  A    between atoms: C_9  and  O_10
REMARK    5  A    between atoms: N_12  and  C_13
REMARK    6  A    between atoms: N_12  and  C_14
REMARK                            x       y       z     vdW  Elec       q    Type
REMARK                         _______ _______ _______ _____ _____    ______ ____
ROOT
ATOM      1  C   UNL     1      36.792 -37.690 -29.020  0.00  0.00    +0.033 A 
ATOM      2  C   UNL     1      37.307 -36.859 -30.012  0.00  0.00    -0.040 A 
ATOM      3  C   UNL     1      36.571 -35.761 -30.481  0.00  0.00    -0.052 A 
ATOM      4  C   UNL     1      35.296 -35.462 -29.972  0.00  0.00    +0.009 A 
ATOM      5  C   UNL     1      34.777 -36.308 -28.985  0.00  0.00    -0.052 A 
ATOM      6  C   UNL     1      35.515 -37.404 -28.520  0.00  0.00    -0.040 A 
ENDROOT
BRANCH   4   7
ATOM      7  C   UNL     1      34.499 -34.281 -30.514  0.00  0.00    +0.179 C 
ATOM      8  C   UNL     1      32.969 -34.522 -30.260  0.00  0.00    -0.029 C 
ATOM      9  N   UNL     1      32.076 -33.351 -30.819  0.00  0.00    +0.381 N 
ATOM     10  C   UNL     1      30.859 -33.177 -29.925  0.00  0.00    -0.100 C 
ATOM     11  C   UNL     1      31.605 -33.691 -32.230  0.00  0.00    -0.100 C 
ATOM     12  C   UNL     1      32.909 -32.045 -30.871  0.00  0.00    -0.064 C 
ATOM     13  C   UNL     1      33.971 -32.044 -29.765  0.00  0.00    +0.037 C 
ATOM     14  O   UNL     1      34.959 -33.068 -29.909  0.00  0.00    -0.348 OA
BRANCH   7  15
ATOM     15  O   UNL     1      34.737 -34.151 -31.913  0.00  0.00    -0.362 OA
ATOM     16  H   UNL     1      34.531 -34.989 -32.356  0.00  0.00    +0.000 HD
ENDBRANCH   7  15
ENDBRANCH   4   7
BRANCH   1  20
ATOM     17  C   UNL     1      36.333 -40.758 -29.623  0.00  0.00    +0.012 C 
ATOM     18  C   UNL     1      37.287 -40.164 -28.630  0.00  0.00    +0.214 C 
ATOM     19  O   UNL     1      37.988 -40.897 -27.926  0.00  0.00    -0.276 OA
ATOM     20  N   UNL     1      37.429 -38.818 -28.479  0.00  0.00    -0.286 N 
ATOM     21  H   UNL     1      38.143 -38.582 -27.843  0.00  0.00    +0.000 HD
ENDBRANCH   1  20
TORSDOF 3
ENDMDL
MODEL 11
REMARK VINA RESULT:    -5.890      3.221      4.458
REMARK INTER + INTRA:          -7.092
REMARK INTER:                  -7.031
REMARK INTRA:                  -0.062
REMARK UNBOUND:                -0.341
REMARK  Name = cpd241.pdb
REMARK  6 active torsions:
REMARK  status: ('A' for Active; 'I' for Inactive)
REMARK    1  A    between atoms: C_1  and  C_2
REMARK    2  A    between atoms: N_4  and  C_5
REMARK    3  A    between atoms: C_8  and  C_9
REMARK    4  A    between atoms: C_9  and  O_10
REMARK    5  A    between atoms: N_12  and  C_13
REMARK    6  A    between atoms: N_12  and  C_14
REMARK                            x       y       z     vdW  Elec       q    Type
REMARK                         _______ _______ _______ _____ _____    ______ ____
ROOT
ATOM      1  C   UNL     1      37.561 -37.174 -29.089  0.00  0.00    +0.033 A 
ATOM      2  C   UNL     1      37.495 -36.621 -30.365  0.00  0.00    -0.040 A 
ATOM      3  C   UNL     1      36.357 -35.913 -30.782  0.00  0.00    -0.052 A 
ATOM      4  C   UNL     1      35.252 -35.738 -29.933  0.00  0.00    +0.009 A 
ATOM      5  C   UNL     1      35.318 -36.306 -28.655  0.00  0.00    -0.052 A 
ATOM      6  C   UNL     1      36.455 -37.014 -28.244  0.00  0.00    -0.040 A 
ENDROOT
BRANCH   4   7
ATOM      7  C   UNL     1      34.014 -34.989 -30.412  0.00  0.00    +0.179 C 
ATOM      8  C   UNL     1      34.006 -33.544 -29.799  0.00  0.00    -0.029 C 
ATOM      9  N   UNL     1      32.737 -32.716 -30.229  0.00  0.00    +0.381 N 
ATOM     10  C   UNL     1      33.112 -31.247 -30.347  0.00  0.00    -0.100 C 
ATOM     11  C   UNL     1      31.645 -32.861 -29.174  0.00  0.00    -0.100 C 
ATOM     12  C   UNL     1      32.202 -33.254 -31.581  0.00  0.00    -0.064 C 
ATOM     13  C   UNL     1      33.351 -33.821 -32.423  0.00  0.00    +0.037 C 
ATOM     14  O   UNL     1      33.985 -34.965 -31.842  0.00  0.00    -0.348 OA
BRANCH   7  15
ATOM     15  O   UNL     1      32.845 -35.691 -29.997  0.00  0.00    -0.362 OA
ATOM     16  H   UNL     1      32.486 -35.277 -29.196  0.00  0.00    +0.000 HD
ENDBRANCH   7  15
ENDBRANCH   4   7
BRANCH   1  20
ATOM     17  C   UNL     1      40.600 -37.210 -29.956  0.00  0.00    +0.012 C 
ATOM     18  C   UNL     1      39.957 -38.031 -28.879  0.00  0.00    +0.214 C 
ATOM     19  O   UNL     1      40.626 -38.842 -28.233  0.00  0.00    -0.276 OA
ATOM     20  N   UNL     1      38.638 -37.907 -28.564  0.00  0.00    -0.286 N 
ATOM     21  H   UNL     1      38.380 -38.458 -27.790  0.00  0.00    +0.000 HD
ENDBRANCH   1  20
TORSDOF 3
ENDMDL
MODEL 12
REMARK VINA RESULT:    -5.833     20.523     21.950
REMARK INTER + INTRA:          -7.027
REMARK INTER:                  -6.595
REMARK INTRA:                  -0.432
REMARK UNBOUND:                -0.341
REMARK  Name = cpd241.pdb
REMARK  6 active torsions:
REMARK  status: ('A' for Active; 'I' for Inactive)
REMARK    1  A    between atoms: C_1  and  C_2
REMARK    2  A    between atoms: N_4  and  C_5
REMARK    3  A    between atoms: C_8  and  C_9
REMARK    4  A    between atoms: C_9  and  O_10
REMARK    5  A    between atoms: N_12  and  C_13
REMARK    6  A    between atoms: N_12  and  C_14
REMARK                            x       y       z     vdW  Elec       q    Type
REMARK                         _______ _______ _______ _____ _____    ______ ____
ROOT
ATOM      1  C   UNL     1      45.738 -19.061 -35.163  0.00  0.00    +0.033 A 
ATOM      2  C   UNL     1      46.826 -18.695 -35.951  0.00  0.00    -0.040 A 
ATOM      3  C   UNL     1      46.872 -19.032 -37.313  0.00  0.00    -0.052 A 
ATOM      4  C   UNL     1      45.830 -19.748 -37.926  0.00  0.00    +0.009 A 
ATOM      5  C   UNL     1      44.744 -20.125 -37.126  0.00  0.00    -0.052 A 
ATOM      6  C   UNL     1      44.703 -19.788 -35.768  0.00  0.00    -0.040 A 
ENDROOT
BRANCH   4   7
ATOM      7  C   UNL     1      45.909 -20.129 -39.399  0.00  0.00    +0.179 C 
ATOM      8  C   UNL     1      46.895 -21.338 -39.574  0.00  0.00    -0.029 C 
ATOM      9  N   UNL     1      47.051 -21.773 -41.080  0.00  0.00    +0.381 N 
ATOM     10  C   UNL     1      47.273 -23.275 -41.148  0.00  0.00    -0.100 C 
ATOM     11  C   UNL     1      48.255 -21.069 -41.698  0.00  0.00    -0.100 C 
ATOM     12  C   UNL     1      45.777 -21.371 -41.868  0.00  0.00    -0.064 C 
ATOM     13  C   UNL     1      44.551 -21.393 -40.950  0.00  0.00    +0.037 C 
ATOM     14  O   UNL     1      44.601 -20.429 -39.894  0.00  0.00    -0.348 OA
BRANCH   7  15
ATOM     15  O   UNL     1      46.380 -19.015 -40.152  0.00  0.00    -0.362 OA
ATOM     16  H   UNL     1      45.788 -18.258 -40.016  0.00  0.00    +0.000 HD
ENDBRANCH   7  15
ENDBRANCH   4   7
BRANCH   1  20
ATOM     17  C   UNL     1      44.330 -16.621 -33.732  0.00  0.00    +0.012 C 
ATOM     18  C   UNL     1      45.042 -17.766 -33.077  0.00  0.00    +0.214 C 
ATOM     19  O   UNL     1      45.140 -17.815 -31.847  0.00  0.00    -0.276 OA
ATOM     20  N   UNL     1      45.584 -18.788 -33.794  0.00  0.00    -0.286 N 
ATOM     21  H   UNL     1      45.952 -19.500 -33.223  0.00  0.00    +0.000 HD
ENDBRANCH   1  20
TORSDOF 3
ENDMDL
MODEL 13
REMARK VINA RESULT:    -5.827      6.006      8.287
REMARK INTER + INTRA:          -7.020
REMARK INTER:                  -6.632
REMARK INTRA:                  -0.388
REMARK UNBOUND:                -0.341
REMARK  Name = cpd241.pdb
REMARK  6 active torsions:
REMARK  status: ('A' for Active; 'I' for Inactive)
REMARK    1  A    between atoms: C_1  and  C_2
REMARK    2  A    between atoms: N_4  and  C_5
REMARK    3  A    between atoms: C_8  and  C_9
REMARK    4  A    between atoms: C_9  and  O_10
REMARK    5  A    between atoms: N_12  and  C_13
REMARK    6  A    between atoms: N_12  and  C_14
REMARK                            x       y       z     vdW  Elec       q    Type
REMARK                         _______ _______ _______ _____ _____    ______ ____
ROOT
ATOM      1  C   UNL     1      34.696 -33.908 -31.443  0.00  0.00    +0.033 A 
ATOM      2  C   UNL     1      33.383 -34.131 -31.849  0.00  0.00    -0.040 A 
ATOM      3  C   UNL     1      32.358 -33.246 -31.481  0.00  0.00    -0.052 A 
ATOM      4  C   UNL     1      32.617 -32.112 -30.693  0.00  0.00    +0.009 A 
ATOM      5  C   UNL     1      33.936 -31.900 -30.276  0.00  0.00    -0.052 A 
ATOM      6  C   UNL     1      34.956 -32.786 -30.645  0.00  0.00    -0.040 A 
ENDROOT
BRANCH   4   7
ATOM      7  C   UNL     1      31.487 -31.178 -30.280  0.00  0.00    +0.179 C 
ATOM      8  C   UNL     1      30.264 -31.376 -31.244  0.00  0.00    -0.029 C 
ATOM      9  N   UNL     1      29.062 -30.420 -30.894  0.00  0.00    +0.381 N 
ATOM     10  C   UNL     1      27.752 -31.123 -31.212  0.00  0.00    -0.100 C 
ATOM     11  C   UNL     1      29.153 -29.149 -31.733  0.00  0.00    -0.100 C 
ATOM     12  C   UNL     1      29.127 -30.035 -29.394  0.00  0.00    -0.064 C 
ATOM     13  C   UNL     1      29.767 -31.164 -28.580  0.00  0.00    +0.037 C 
ATOM     14  O   UNL     1      31.136 -31.415 -28.913  0.00  0.00    -0.348 OA
BRANCH   7  15
ATOM     15  O   UNL     1      31.938 -29.827 -30.351  0.00  0.00    -0.362 OA
ATOM     16  H   UNL     1      32.734 -29.781 -30.905  0.00  0.00    +0.000 HD
ENDBRANCH   7  15
ENDBRANCH   4   7
BRANCH   1  20
ATOM     17  C   UNL     1      36.203 -36.015 -29.634  0.00  0.00    +0.012 C 
ATOM     18  C   UNL     1      36.545 -35.622 -31.040  0.00  0.00    +0.214 C 
ATOM     19  O   UNL     1      37.519 -36.124 -31.606  0.00  0.00    -0.276 OA
ATOM     20  N   UNL     1      35.800 -34.723 -31.741  0.00  0.00    -0.286 N 
ATOM     21  H   UNL     1      36.105 -34.622 -32.672  0.00  0.00    +0.000 HD
ENDBRANCH   1  20
TORSDOF 3
ENDMDL
MODEL 14
REMARK VINA RESULT:    -5.811     35.143     36.422
REMARK INTER + INTRA:          -7.002
REMARK INTER:                  -6.571
REMARK INTRA:                  -0.431
REMARK UNBOUND:                -0.341
REMARK  Name = cpd241.pdb
REMARK  6 active torsions:
REMARK  status: ('A' for Active; 'I' for Inactive)
REMARK    1  A    between atoms: C_1  and  C_2
REMARK    2  A    between atoms: N_4  and  C_5
REMARK    3  A    between atoms: C_8  and  C_9
REMARK    4  A    between atoms: C_9  and  O_10
REMARK    5  A    between atoms: N_12  and  C_13
REMARK    6  A    between atoms: N_12  and  C_14
REMARK                            x       y       z     vdW  Elec       q    Type
REMARK                         _______ _______ _______ _____ _____    ______ ____
ROOT
ATOM      1  C   UNL     1      62.910 -24.859  -7.139  0.00  0.00    +0.033 A 
ATOM      2  C   UNL     1      62.726 -24.512  -8.475  0.00  0.00    -0.040 A 
ATOM      3  C   UNL     1      62.757 -23.168  -8.878  0.00  0.00    -0.052 A 
ATOM      4  C   UNL     1      62.972 -22.131  -7.954  0.00  0.00    +0.009 A 
ATOM      5  C   UNL     1      63.144 -22.485  -6.610  0.00  0.00    -0.052 A 
ATOM      6  C   UNL     1      63.111 -23.827  -6.213  0.00  0.00    -0.040 A 
ENDROOT
BRANCH   4   7
ATOM      7  C   UNL     1      62.975 -20.676  -8.405  0.00  0.00    +0.179 C 
ATOM      8  C   UNL     1      62.079 -20.522  -9.684  0.00  0.00    -0.029 C 
ATOM      9  N   UNL     1      62.055 -19.044 -10.227  0.00  0.00    +0.381 N 
ATOM     10  C   UNL     1      60.693 -18.755 -10.838  0.00  0.00    -0.100 C 
ATOM     11  C   UNL     1      63.122 -18.872 -11.303  0.00  0.00    -0.100 C 
ATOM     12  C   UNL     1      62.352 -18.061  -9.065  0.00  0.00    -0.064 C 
ATOM     13  C   UNL     1      61.856 -18.640  -7.736  0.00  0.00    +0.037 C 
ATOM     14  O   UNL     1      62.531 -19.835  -7.335  0.00  0.00    -0.348 OA
BRANCH   7  15
ATOM     15  O   UNL     1      64.310 -20.275  -8.705  0.00  0.00    -0.362 OA
ATOM     16  H   UNL     1      64.450 -20.310  -9.665  0.00  0.00    +0.000 HD
ENDBRANCH   7  15
ENDBRANCH   4   7
BRANCH   1  20
ATOM     17  C   UNL     1      65.289 -26.889  -6.684  0.00  0.00    +0.012 C 
ATOM     18  C   UNL     1      63.833 -27.128  -6.418  0.00  0.00    +0.214 C 
ATOM     19  O   UNL     1      63.450 -28.220  -5.990  0.00  0.00    -0.276 OA
ATOM     20  N   UNL     1      62.893 -26.163  -6.618  0.00  0.00    -0.286 N 
ATOM     21  H   UNL     1      61.994 -26.444  -6.331  0.00  0.00    +0.000 HD
ENDBRANCH   1  20
TORSDOF 3
ENDMDL
MODEL 15
REMARK VINA RESULT:    -5.751     32.806     34.842
REMARK INTER + INTRA:          -6.933
REMARK INTER:                  -6.498
REMARK INTRA:                  -0.435
REMARK UNBOUND:                -0.341
REMARK  Name = cpd241.pdb
REMARK  6 active torsions:
REMARK  status: ('A' for Active; 'I' for Inactive)
REMARK    1  A    between atoms: C_1  and  C_2
REMARK    2  A    between atoms: N_4  and  C_5
REMARK    3  A    between atoms: C_8  and  C_9
REMARK    4  A    between atoms: C_9  and  O_10
REMARK    5  A    between atoms: N_12  and  C_13
REMARK    6  A    between atoms: N_12  and  C_14
REMARK                            x       y       z     vdW  Elec       q    Type
REMARK                         _______ _______ _______ _____ _____    ______ ____
ROOT
ATOM      1  C   UNL     1      66.106 -15.008 -29.767  0.00  0.00    +0.033 A 
ATOM      2  C   UNL     1      65.552 -14.086 -28.882  0.00  0.00    -0.040 A 
ATOM      3  C   UNL     1      64.190 -13.754 -28.951  0.00  0.00    -0.052 A 
ATOM      4  C   UNL     1      63.343 -14.333 -29.911  0.00  0.00    +0.009 A 
ATOM      5  C   UNL     1      63.908 -15.249 -30.806  0.00  0.00    -0.052 A 
ATOM      6  C   UNL     1      65.267 -15.577 -30.734  0.00  0.00    -0.040 A 
ENDROOT
BRANCH   4   7
ATOM      7  C   UNL     1      61.873 -13.940 -29.989  0.00  0.00    +0.179 C 
ATOM      8  C   UNL     1      61.755 -12.380 -30.120  0.00  0.00    -0.029 C 
ATOM      9  N   UNL     1      60.258 -11.894 -30.180  0.00  0.00    +0.381 N 
ATOM     10  C   UNL     1      60.165 -10.663 -31.068  0.00  0.00    -0.100 C 
ATOM     11  C   UNL     1      59.780 -11.526 -28.779  0.00  0.00    -0.100 C 
ATOM     12  C   UNL     1      59.365 -13.035 -30.730  0.00  0.00    -0.064 C 
ATOM     13  C   UNL     1      60.162 -13.918 -31.697  0.00  0.00    +0.037 C 
ATOM     14  O   UNL     1      61.247 -14.619 -31.081  0.00  0.00    -0.348 OA
BRANCH   7  15
ATOM     15  O   UNL     1      61.203 -14.372 -28.807  0.00  0.00    -0.362 OA
ATOM     16  H   UNL     1      61.312 -13.705 -28.111  0.00  0.00    +0.000 HD
ENDBRANCH   7  15
ENDBRANCH   4   7
BRANCH   1  20
ATOM     17  C   UNL     1      68.531 -13.843 -31.424  0.00  0.00    +0.012 C 
ATOM     18  C   UNL     1      68.553 -15.018 -30.494  0.00  0.00    +0.214 C 
ATOM     19  O   UNL     1      69.596 -15.656 -30.323  0.00  0.00    -0.276 OA
ATOM     20  N   UNL     1      67.451 -15.412 -29.799  0.00  0.00    -0.286 N 
ATOM     21  H   UNL     1      67.639 -16.151 -29.176  0.00  0.00    +0.000 HD
ENDBRANCH   1  20
TORSDOF 3
ENDMDL
MODEL 16
REMARK VINA RESULT:    -5.744     17.168     18.596
REMARK INTER + INTRA:          -6.925
REMARK INTER:                  -6.498
REMARK INTRA:                  -0.427
REMARK UNBOUND:                -0.341
REMARK  Name = cpd241.pdb
REMARK  6 active torsions:
REMARK  status: ('A' for Active; 'I' for Inactive)
REMARK    1  A    between atoms: C_1  and  C_2
REMARK    2  A    between atoms: N_4  and  C_5
REMARK    3  A    between atoms: C_8  and  C_9
REMARK    4  A    between atoms: C_9  and  O_10
REMARK    5  A    between atoms: N_12  and  C_13
REMARK    6  A    between atoms: N_12  and  C_14
REMARK                            x       y       z     vdW  Elec       q    Type
REMARK                         _______ _______ _______ _____ _____    ______ ____
ROOT
ATOM      1  C   UNL     1      43.136 -20.942 -39.696  0.00  0.00    +0.033 A 
ATOM      2  C   UNL     1      43.416 -20.328 -38.479  0.00  0.00    -0.040 A 
ATOM      3  C   UNL     1      42.697 -20.666 -37.322  0.00  0.00    -0.052 A 
ATOM      4  C   UNL     1      41.674 -21.628 -37.351  0.00  0.00    +0.009 A 
ATOM      5  C   UNL     1      41.388 -22.234 -38.580  0.00  0.00    -0.052 A 
ATOM      6  C   UNL     1      42.107 -21.893 -39.732  0.00  0.00    -0.040 A 
ENDROOT
BRANCH   4   7
ATOM      7  C   UNL     1      40.885 -21.963 -36.091  0.00  0.00    +0.179 C 
ATOM      8  C   UNL     1      41.234 -20.927 -34.965  0.00  0.00    -0.029 C 
ATOM      9  N   UNL     1      40.474 -21.226 -33.618  0.00  0.00    +0.381 N 
ATOM     10  C   UNL     1      40.169 -19.914 -32.912  0.00  0.00    -0.100 C 
ATOM     11  C   UNL     1      41.352 -22.080 -32.709  0.00  0.00    -0.100 C 
ATOM     12  C   UNL     1      39.166 -22.000 -33.923  0.00  0.00    -0.064 C 
ATOM     13  C   UNL     1      38.626 -21.614 -35.304  0.00  0.00    +0.037 C 
ATOM     14  O   UNL     1      39.485 -21.983 -36.386  0.00  0.00    -0.348 OA
BRANCH   7  15
ATOM     15  O   UNL     1      41.224 -23.277 -35.654  0.00  0.00    -0.362 OA
ATOM     16  H   UNL     1      40.694 -23.506 -34.875  0.00  0.00    +0.000 HD
ENDBRANCH   7  15
ENDBRANCH   4   7
BRANCH   1  20
ATOM     17  C   UNL     1      45.826 -22.125 -40.858  0.00  0.00    +0.012 C 
ATOM     18  C   UNL     1      44.942 -21.095 -41.494  0.00  0.00    +0.214 C 
ATOM     19  O   UNL     1      45.249 -20.601 -42.583  0.00  0.00    -0.276 OA
ATOM     20  N   UNL     1      43.780 -20.683 -40.917  0.00  0.00    -0.286 N 
ATOM     21  H   UNL     1      43.275 -20.059 -41.487  0.00  0.00    +0.000 HD
ENDBRANCH   1  20
TORSDOF 3
ENDMDL
MODEL 17
REMARK VINA RESULT:    -5.716     25.371     27.055
REMARK INTER + INTRA:          -6.893
REMARK INTER:                  -6.632
REMARK INTRA:                  -0.261
REMARK UNBOUND:                -0.341
REMARK  Name = cpd241.pdb
REMARK  6 active torsions:
REMARK  status: ('A' for Active; 'I' for Inactive)
REMARK    1  A    between atoms: C_1  and  C_2
REMARK    2  A    between atoms: N_4  and  C_5
REMARK    3  A    between atoms: C_8  and  C_9
REMARK    4  A    between atoms: C_9  and  O_10
REMARK    5  A    between atoms: N_12  and  C_13
REMARK    6  A    between atoms: N_12  and  C_14
REMARK                            x       y       z     vdW  Elec       q    Type
REMARK                         _______ _______ _______ _____ _____    ______ ____
ROOT
ATOM      1  C   UNL     1      47.278 -31.064 -55.092  0.00  0.00    +0.033 A 
ATOM      2  C   UNL     1      47.358 -31.553 -53.791  0.00  0.00    -0.040 A 
ATOM      3  C   UNL     1      46.748 -32.768 -53.442  0.00  0.00    -0.052 A 
ATOM      4  C   UNL     1      46.039 -33.529 -54.386  0.00  0.00    +0.009 A 
ATOM      5  C   UNL     1      45.951 -33.027 -55.690  0.00  0.00    -0.052 A 
ATOM      6  C   UNL     1      46.560 -31.813 -56.033  0.00  0.00    -0.040 A 
ENDROOT
BRANCH   4   7
ATOM      7  C   UNL     1      45.360 -34.832 -53.983  0.00  0.00    +0.179 C 
ATOM      8  C   UNL     1      44.912 -35.609 -55.271  0.00  0.00    -0.029 C 
ATOM      9  N   UNL     1      44.176 -36.959 -54.932  0.00  0.00    +0.381 N 
ATOM     10  C   UNL     1      44.486 -37.986 -56.010  0.00  0.00    -0.100 C 
ATOM     11  C   UNL     1      42.668 -36.729 -54.894  0.00  0.00    -0.100 C 
ATOM     12  C   UNL     1      44.640 -37.468 -53.543  0.00  0.00    -0.064 C 
ATOM     13  C   UNL     1      46.081 -37.026 -53.267  0.00  0.00    +0.037 C 
ATOM     14  O   UNL     1      46.244 -35.608 -53.168  0.00  0.00    -0.348 OA
BRANCH   7  15
ATOM     15  O   UNL     1      44.219 -34.543 -53.178  0.00  0.00    -0.362 OA
ATOM     16  H   UNL     1      44.483 -33.981 -52.433  0.00  0.00    +0.000 HD
ENDBRANCH   7  15
ENDBRANCH   4   7
BRANCH   1  20
ATOM     17  C   UNL     1      47.124 -28.154 -53.871  0.00  0.00    +0.012 C 
ATOM     18  C   UNL     1      47.803 -28.566 -55.141  0.00  0.00    +0.214 C 
ATOM     19  O   UNL     1      48.369 -27.724 -55.845  0.00  0.00    -0.276 OA
ATOM     20  N   UNL     1      47.838 -29.863 -55.556  0.00  0.00    -0.286 N 
ATOM     21  H   UNL     1      48.381 -29.987 -56.368  0.00  0.00    +0.000 HD
ENDBRANCH   1  20
TORSDOF 3
ENDMDL
MODEL 18
REMARK VINA RESULT:    -5.557     18.356     21.195
REMARK INTER + INTRA:          -6.710
REMARK INTER:                  -6.366
REMARK INTRA:                  -0.344
REMARK UNBOUND:                -0.341
REMARK  Name = cpd241.pdb
REMARK  6 active torsions:
REMARK  status: ('A' for Active; 'I' for Inactive)
REMARK    1  A    between atoms: C_1  and  C_2
REMARK    2  A    between atoms: N_4  and  C_5
REMARK    3  A    between atoms: C_8  and  C_9
REMARK    4  A    between atoms: C_9  and  O_10
REMARK    5  A    between atoms: N_12  and  C_13
REMARK    6  A    between atoms: N_12  and  C_14
REMARK                            x       y       z     vdW  Elec       q    Type
REMARK                         _______ _______ _______ _____ _____    ______ ____
ROOT
ATOM      1  C   UNL     1      42.702 -20.366 -36.784  0.00  0.00    +0.033 A 
ATOM      2  C   UNL     1      42.529 -20.806 -38.094  0.00  0.00    -0.040 A 
ATOM      3  C   UNL     1      43.629 -20.958 -38.951  0.00  0.00    -0.052 A 
ATOM      4  C   UNL     1      44.937 -20.672 -38.523  0.00  0.00    +0.009 A 
ATOM      5  C   UNL     1      45.104 -20.218 -37.209  0.00  0.00    -0.052 A 
ATOM      6  C   UNL     1      44.002 -20.067 -36.357  0.00  0.00    -0.040 A 
ENDROOT
BRANCH   4   7
ATOM      7  C   UNL     1      46.117 -20.817 -39.476  0.00  0.00    +0.179 C 
ATOM      8  C   UNL     1      45.926 -22.103 -40.354  0.00  0.00    -0.029 C 
ATOM      9  N   UNL     1      47.124 -22.334 -41.349  0.00  0.00    +0.381 N 
ATOM     10  C   UNL     1      46.602 -22.978 -42.624  0.00  0.00    -0.100 C 
ATOM     11  C   UNL     1      48.150 -23.268 -40.713  0.00  0.00    -0.100 C 
ATOM     12  C   UNL     1      47.808 -20.978 -41.660  0.00  0.00    -0.064 C 
ATOM     13  C   UNL     1      46.789 -19.836 -41.581  0.00  0.00    +0.037 C 
ATOM     14  O   UNL     1      46.243 -19.636 -40.274  0.00  0.00    -0.348 OA
BRANCH   7  15
ATOM     15  O   UNL     1      47.323 -20.926 -38.723  0.00  0.00    -0.362 OA
ATOM     16  H   UNL     1      47.165 -20.629 -37.813  0.00  0.00    +0.000 HD
ENDBRANCH   7  15
ENDBRANCH   4   7
BRANCH   1  20
ATOM     17  C   UNL     1      40.635 -22.430 -35.577  0.00  0.00    +0.012 C 
ATOM     18  C   UNL     1      40.721 -20.962 -35.288  0.00  0.00    +0.214 C 
ATOM     19  O   UNL     1      39.916 -20.432 -34.516  0.00  0.00    -0.276 OA
ATOM     20  N   UNL     1      41.681 -20.169 -35.840  0.00  0.00    -0.286 N 
ATOM     21  H   UNL     1      41.653 -19.246 -35.500  0.00  0.00    +0.000 HD
ENDBRANCH   1  20
TORSDOF 3
ENDMDL
MODEL 19
REMARK VINA RESULT:    -5.522     17.880     20.228
REMARK INTER + INTRA:          -6.671
REMARK INTER:                  -6.240
REMARK INTRA:                  -0.431
REMARK UNBOUND:                -0.341
REMARK  Name = cpd241.pdb
REMARK  6 active torsions:
REMARK  status: ('A' for Active; 'I' for Inactive)
REMARK    1  A    between atoms: C_1  and  C_2
REMARK    2  A    between atoms: N_4  and  C_5
REMARK    3  A    between atoms: C_8  and  C_9
REMARK    4  A    between atoms: C_9  and  O_10
REMARK    5  A    between atoms: N_12  and  C_13
REMARK    6  A    between atoms: N_12  and  C_14
REMARK                            x       y       z     vdW  Elec       q    Type
REMARK                         _______ _______ _______ _____ _____    ______ ____
ROOT
ATOM      1  C   UNL     1      40.111 -20.540 -32.814  0.00  0.00    +0.033 A 
ATOM      2  C   UNL     1      40.742 -19.411 -32.299  0.00  0.00    -0.040 A 
ATOM      3  C   UNL     1      42.060 -19.095 -32.666  0.00  0.00    -0.052 A 
ATOM      4  C   UNL     1      42.785 -19.902 -33.559  0.00  0.00    +0.009 A 
ATOM      5  C   UNL     1      42.150 -21.043 -34.064  0.00  0.00    -0.052 A 
ATOM      6  C   UNL     1      40.836 -21.355 -33.694  0.00  0.00    -0.040 A 
ENDROOT
BRANCH   4   7
ATOM      7  C   UNL     1      44.224 -19.559 -33.925  0.00  0.00    +0.179 C 
ATOM      8  C   UNL     1      44.306 -19.207 -35.452  0.00  0.00    -0.029 C 
ATOM      9  N   UNL     1      45.773 -18.866 -35.911  0.00  0.00    +0.381 N 
ATOM     10  C   UNL     1      45.724 -17.819 -37.013  0.00  0.00    -0.100 C 
ATOM     11  C   UNL     1      46.447 -20.122 -36.457  0.00  0.00    -0.100 C 
ATOM     12  C   UNL     1      46.588 -18.348 -34.699  0.00  0.00    -0.064 C 
ATOM     13  C   UNL     1      45.668 -17.633 -33.703  0.00  0.00    +0.037 C 
ATOM     14  O   UNL     1      44.691 -18.487 -33.101  0.00  0.00    -0.348 OA
BRANCH   7  15
ATOM     15  O   UNL     1      45.063 -20.678 -33.646  0.00  0.00    -0.362 OA
ATOM     16  H   UNL     1      44.918 -21.366 -34.315  0.00  0.00    +0.000 HD
ENDBRANCH   7  15
ENDBRANCH   4   7
BRANCH   1  20
ATOM     17  C   UNL     1      37.406 -19.985 -34.351  0.00  0.00    +0.012 C 
ATOM     18  C   UNL     1      37.580 -20.751 -33.074  0.00  0.00    +0.214 C 
ATOM     19  O   UNL     1      36.599 -21.230 -32.498  0.00  0.00    -0.276 OA
ATOM     20  N   UNL     1      38.805 -20.961 -32.517  0.00  0.00    -0.286 N 
ATOM     21  H   UNL     1      38.765 -21.541 -31.722  0.00  0.00    +0.000 HD
ENDBRANCH   1  20
TORSDOF 3
ENDMDL
MODEL 20
REMARK VINA RESULT:    -5.375     32.882     36.607
REMARK INTER + INTRA:          -6.502
REMARK INTER:                  -6.122
REMARK INTRA:                  -0.380
REMARK UNBOUND:                -0.341
REMARK  Name = cpd241.pdb
REMARK  6 active torsions:
REMARK  status: ('A' for Active; 'I' for Inactive)
REMARK    1  A    between atoms: C_1  and  C_2
REMARK    2  A    between atoms: N_4  and  C_5
REMARK    3  A    between atoms: C_8  and  C_9
REMARK    4  A    between atoms: C_9  and  O_10
REMARK    5  A    between atoms: N_12  and  C_13
REMARK    6  A    between atoms: N_12  and  C_14
REMARK                            x       y       z     vdW  Elec       q    Type
REMARK                         _______ _______ _______ _____ _____    ______ ____
ROOT
ATOM      1  C   UNL     1      62.667 -14.356 -30.021  0.00  0.00    +0.033 A 
ATOM      2  C   UNL     1      63.250 -15.289 -30.873  0.00  0.00    -0.040 A 
ATOM      3  C   UNL     1      64.645 -15.439 -30.927  0.00  0.00    -0.052 A 
ATOM      4  C   UNL     1      65.497 -14.657 -30.129  0.00  0.00    +0.009 A 
ATOM      5  C   UNL     1      64.906 -13.711 -29.283  0.00  0.00    -0.052 A 
ATOM      6  C   UNL     1      63.514 -13.564 -29.233  0.00  0.00    -0.040 A 
ENDROOT
BRANCH   4   7
ATOM      7  C   UNL     1      67.010 -14.814 -30.221  0.00  0.00    +0.179 C 
ATOM      8  C   UNL     1      67.699 -13.443 -29.888  0.00  0.00    -0.029 C 
ATOM      9  N   UNL     1      69.269 -13.521 -29.990  0.00  0.00    +0.381 N 
ATOM     10  C   UNL     1      69.886 -12.587 -28.960  0.00  0.00    -0.100 C 
ATOM     11  C   UNL     1      69.718 -13.083 -31.381  0.00  0.00    -0.100 C 
ATOM     12  C   UNL     1      69.732 -14.981 -29.751  0.00  0.00    -0.064 C 
ATOM     13  C   UNL     1      68.761 -15.702 -28.810  0.00  0.00    +0.037 C 
ATOM     14  O   UNL     1      67.443 -15.859 -29.345  0.00  0.00    -0.348 OA
BRANCH   7  15
ATOM     15  O   UNL     1      67.365 -15.220 -31.541  0.00  0.00    -0.362 OA
ATOM     16  H   UNL     1      67.007 -16.105 -31.714  0.00  0.00    +0.000 HD
ENDBRANCH   7  15
ENDBRANCH   4   7
BRANCH   1  20
ATOM     17  C   UNL     1      60.613 -13.146 -32.095  0.00  0.00    +0.012 C 
ATOM     18  C   UNL     1      60.332 -13.565 -30.684  0.00  0.00    +0.214 C 
ATOM     19  O   UNL     1      59.200 -13.434 -30.210  0.00  0.00    -0.276 OA
ATOM     20  N   UNL     1      61.291 -14.111 -29.886  0.00  0.00    -0.286 N 
ATOM     21  H   UNL     1      60.938 -14.401 -29.014  0.00  0.00    +0.000 HD
ENDBRANCH   1  20
TORSDOF 3
ENDMDL
