@<TRIPOS>MOLECULE
*****
 19 20 0 0 0
SMALL
GASTEIGER

@<TRIPOS>ATOM
      1 C          -2.1213    2.1213    0.0000 C.3     1  UNL1        0.0968
      2 C          -2.3801    1.1554    0.0000 C.2     1  UNL1        0.2461
      3 O          -3.3461    0.8966    0.0000 O.2     1  UNL1       -0.2730
      4 N          -1.6730    0.4483    0.0000 N.am    1  UNL1       -0.1792
      5 C          -0.7071    0.7071    0.0000 C.ar    1  UNL1        0.0733
      6 C          -0.4483    1.6730    0.0000 C.ar    1  UNL1        0.0164
      7 C           0.5176    1.9319    0.0000 C.ar    1  UNL1        0.0020
      8 C           1.2247    1.2247    0.0000 C.ar    1  UNL1        0.0370
      9 C           2.1907    1.4836    0.0000 C.3     1  UNL1        0.2892
     10 O           2.3212    2.4750    0.0000 O.3     1  UNL1       -0.1840
     11 C           3.0567    1.9836    0.0000 C.3     1  UNL1        0.1734
     12 N           3.9227    1.4836    0.0000 N.4     1  UNL1        0.3121
     13 C           4.9227    1.4836    0.0000 C.3     1  UNL1        0.1710
     14 C           4.4227    2.3496    0.0000 C.3     1  UNL1        0.1710
     15 C           3.9227    0.4836    0.0000 C.3     1  UNL1        0.1419
     16 C           3.0567   -0.0164    0.0000 C.3     1  UNL1        0.2058
     17 O           2.1907    0.4836    0.0000 O.3     1  UNL1       -0.3184
     18 C           0.9659    0.2588    0.0000 C.ar    1  UNL1        0.0020
     19 C           0.0000   -0.0000    0.0000 C.ar    1  UNL1        0.0164
@<TRIPOS>UNITY_ATOM_ATTR
12 1
charge 1
@<TRIPOS>BOND
     1     1     2    1
     2     2     3    2
     3     2     4   am
     4     4     5    1
     5     5     6   ar
     6     6     7   ar
     7     7     8   ar
     8     8     9    1
     9     9    10    1
    10     9    11    1
    11    11    12    1
    12    12    13    1
    13    12    14    1
    14    12    15    1
    15    15    16    1
    16    16    17    1
    17     9    17    1
    18     8    18   ar
    19    18    19   ar
    20     5    19   ar
