REMARK  Name = cpd44.pdb
REMARK  21 active torsions:
REMARK  status: ('A' for Active; 'I' for Inactive)
REMARK    1  A    between atoms: C_1  and  C_2
REMARK    2  A    between atoms: C_6  and  N_7
REMARK    3  A    between atoms: N_7  and  C_8
REMARK    4  A    between atoms: C_13  and  C_14
REMARK    5  A    between atoms: N_16  and  C_17
REMARK    6  A    between atoms: C_17  and  C_18
REMARK    7  A    between atoms: C_18  and  C_19
REMARK    8  A    between atoms: C_19  and  C_20
REMARK    9  A    between atoms: C_20  and  C_21
REMARK   10  A    between atoms: C_21  and  C_22
REMARK   11  A    between atoms: N_24  and  C_25
REMARK   12  A    between atoms: C_25  and  C_26
REMARK   13  A    between atoms: C_26  and  C_27
REMARK   14  A    between atoms: C_27  and  C_28
REMARK   15  A    between atoms: C_28  and  C_29
REMARK   16  A    between atoms: C_29  and  C_30
REMARK   17  A    between atoms: C_30  and  C_31
REMARK   18  A    between atoms: C_31  and  C_32
REMARK   19  A    between atoms: C_32  and  N_33
REMARK   20  A    between atoms: N_33  and  C_34
REMARK   21  A    between atoms: C_48  and  C_49
REMARK                            x       y       z     vdW  Elec       q    Type
REMARK                         _______ _______ _______ _____ _____    ______ ____
ROOT
ATOM      1  C   UNL A   1       3.903   6.455  -1.145  0.00  0.00    +0.213 C 
ATOM      2  O   UNL A   1       4.241   7.496  -1.698  0.00  0.00    -0.276 OA
ATOM      3  N   UNL A   1       3.743   6.327   0.216  0.00  0.00    -0.315 N 
ATOM      4  H   UNL A   1       3.415   5.472   0.578  0.00  0.00    +0.000 HD
ENDROOT
BRANCH   1   5
ATOM      5  C   UNL A   1       3.627   5.188  -1.927  0.00  0.00    +0.024 C 
BRANCH   5   6
ATOM      6  C   UNL A   1       4.626   4.084  -1.596  0.00  0.00    -0.045 C 
BRANCH   6   7
ATOM      7  C   UNL A   1       4.648   2.932  -2.606  0.00  0.00    -0.051 C 
BRANCH   7   8
ATOM      8  C   UNL A   1       3.320   2.181  -2.751  0.00  0.00    -0.037 C 
BRANCH   8   9
ATOM      9  C   UNL A   1       2.487   2.669  -3.939  0.00  0.00    +0.012 C 
BRANCH   9  12
ATOM     10  C   UNL A   1       0.133   1.993  -3.285  0.00  0.00    +0.246 C 
ATOM     11  O   UNL A   1      -0.635   1.037  -3.205  0.00  0.00    -0.270 OA
ATOM     12  N   UNL A   1       1.254   1.910  -4.076  0.00  0.00    -0.311 N 
ATOM     13  H   UNL A   1       1.218   1.264  -4.818  0.00  0.00    +0.000 HD
BRANCH  10  19
ATOM     14  C   UNL A   1      -0.442   3.088  -1.111  0.00  0.00    +0.044 A 
ATOM     15  C   UNL A   1      -0.600   4.272  -0.373  0.00  0.00    -0.040 A 
ATOM     16  C   UNL A   1      -0.567   5.524  -0.995  0.00  0.00    -0.060 A 
ATOM     17  C   UNL A   1      -0.354   5.617  -2.368  0.00  0.00    -0.061 A 
ATOM     18  C   UNL A   1      -0.137   4.461  -3.114  0.00  0.00    -0.048 A 
ATOM     19  C   UNL A   1      -0.131   3.208  -2.482  0.00  0.00    +0.058 A 
BRANCH  14  20
ATOM     20  N   UNL A   1      -0.437   1.819  -0.463  0.00  0.00    -0.314 N 
ATOM     21  H   UNL A   1       0.143   1.127  -0.856  0.00  0.00    +0.000 HD
BRANCH  20  27
ATOM     22  C   UNL A   1      -0.967  -1.081   3.578  0.00  0.00    -0.039 C 
ATOM     23  C   UNL A   1      -1.463  -0.026   2.626  0.00  0.00    -0.046 A 
ATOM     24  C   UNL A   1      -2.757   0.485   2.805  0.00  0.00    -0.058 A 
ATOM     25  C   UNL A   1      -3.273   1.436   1.930  0.00  0.00    -0.060 A 
ATOM     26  C   UNL A   1      -2.498   1.895   0.870  0.00  0.00    -0.040 A 
ATOM     27  C   UNL A   1      -1.181   1.444   0.692  0.00  0.00    +0.035 A 
ATOM     28  C   UNL A   1      -0.659   0.464   1.569  0.00  0.00    -0.026 A 
ATOM     29  C   UNL A   1       0.725  -0.090   1.335  0.00  0.00    -0.038 C 
ENDBRANCH  20  27
ENDBRANCH  14  20
ENDBRANCH  10  19
ENDBRANCH   9  12
ENDBRANCH   8   9
ENDBRANCH   7   8
ENDBRANCH   6   7
ENDBRANCH   5   6
ENDBRANCH   1   5
BRANCH   3  30
ATOM     30  C   UNL A   1       4.041   7.407   1.135  0.00  0.00    +0.012 C 
BRANCH  30  31
ATOM     31  C   UNL A   1       5.430   7.273   1.762  0.00  0.00    -0.037 C 
BRANCH  31  32
ATOM     32  C   UNL A   1       6.565   7.446   0.748  0.00  0.00    -0.052 C 
BRANCH  32  33
ATOM     33  C   UNL A   1       7.938   7.378   1.421  0.00  0.00    -0.053 C 
BRANCH  33  34
ATOM     34  C   UNL A   1       9.061   7.491   0.388  0.00  0.00    -0.053 C 
BRANCH  34  35
ATOM     35  C   UNL A   1      10.440   7.385   1.040  0.00  0.00    -0.052 C 
BRANCH  35  36
ATOM     36  C   UNL A   1      11.551   7.440  -0.010  0.00  0.00    -0.037 C 
BRANCH  36  37
ATOM     37  C   UNL A   1      12.934   7.294   0.626  0.00  0.00    +0.009 C 
BRANCH  37  38
ATOM     38  N   UNL A   1      13.946   7.289  -0.440  0.00  0.00    -0.343 N 
ATOM     39  H   UNL A   1      13.749   7.473  -1.387  0.00  0.00    +0.000 HD
BRANCH  38  40
ATOM     40  C   UNL A   1      15.247   6.986   0.059  0.00  0.00    +0.041 A 
ATOM     41  C   UNL A   1      16.137   8.018   0.421  0.00  0.00    -0.005 A 
ATOM     42  C   UNL A   1      17.376   7.646   0.952  0.00  0.00    +0.047 A 
ATOM     43  N   UNL A   1      17.732   6.360   1.181  0.00  0.00    -0.251 NA
ATOM     44  C   UNL A   1      16.880   5.381   0.849  0.00  0.00    +0.073 A 
ATOM     45  C   UNL A   1      17.268   4.066   1.076  0.00  0.00    -0.036 A 
ATOM     46  C   UNL A   1      16.449   2.984   0.744  0.00  0.00    -0.060 A 
ATOM     47  C   UNL A   1      15.212   3.215   0.163  0.00  0.00    -0.061 A 
ATOM     48  C   UNL A   1      14.802   4.527  -0.072  0.00  0.00    -0.051 A 
ATOM     49  C   UNL A   1      15.618   5.630   0.277  0.00  0.00    +0.021 A 
ATOM     50  C   UNL A   1      18.400   8.669   1.373  0.00  0.00    -0.010 C 
ATOM     51  C   UNL A   1      18.191  10.033   0.726  0.00  0.00    -0.047 C 
ATOM     52  C   UNL A   1      16.739  10.457   0.886  0.00  0.00    -0.049 C 
ATOM     53  C   UNL A   1      15.812   9.473   0.173  0.00  0.00    -0.024 C 
ENDBRANCH  38  40
ENDBRANCH  37  38
ENDBRANCH  36  37
ENDBRANCH  35  36
ENDBRANCH  34  35
ENDBRANCH  33  34
ENDBRANCH  32  33
ENDBRANCH  31  32
ENDBRANCH  30  31
ENDBRANCH   3  30
TORSDOF 19
