MODEL 1
REMARK VINA RESULT:    -6.694      0.000      0.000
REMARK INTER + INTRA:         -20.341
REMARK INTER:                 -14.128
REMARK INTRA:                  -6.213
REMARK UNBOUND:                -6.213
REMARK  Name = cpd44.pdb
REMARK  21 active torsions:
REMARK  status: ('A' for Active; 'I' for Inactive)
REMARK    1  A    between atoms: C_1  and  C_2
REMARK    2  A    between atoms: C_6  and  N_7
REMARK    3  A    between atoms: N_7  and  C_8
REMARK    4  A    between atoms: C_13  and  C_14
REMARK    5  A    between atoms: N_16  and  C_17
REMARK    6  A    between atoms: C_17  and  C_18
REMARK    7  A    between atoms: C_18  and  C_19
REMARK    8  A    between atoms: C_19  and  C_20
REMARK    9  A    between atoms: C_20  and  C_21
REMARK   10  A    between atoms: C_21  and  C_22
REMARK   11  A    between atoms: N_24  and  C_25
REMARK   12  A    between atoms: C_25  and  C_26
REMARK   13  A    between atoms: C_26  and  C_27
REMARK   14  A    between atoms: C_27  and  C_28
REMARK   15  A    between atoms: C_28  and  C_29
REMARK   16  A    between atoms: C_29  and  C_30
REMARK   17  A    between atoms: C_30  and  C_31
REMARK   18  A    between atoms: C_31  and  C_32
REMARK   19  A    between atoms: C_32  and  N_33
REMARK   20  A    between atoms: N_33  and  C_34
REMARK   21  A    between atoms: C_48  and  C_49
REMARK                            x       y       z     vdW  Elec       q    Type
REMARK                         _______ _______ _______ _____ _____    ______ ____
ROOT
ATOM      1  C   UNL A   1      40.837 -16.451 -39.709  0.00  0.00    +0.213 C 
ATOM      2  O   UNL A   1      41.483 -17.429 -39.351  0.00  0.00    -0.276 OA
ATOM      3  N   UNL A   1      39.502 -16.270 -39.426  0.00  0.00    -0.315 N 
ATOM      4  H   UNL A   1      39.067 -15.430 -39.702  0.00  0.00    +0.000 HD
ENDROOT
BRANCH   1   5
ATOM      5  C   UNL A   1      41.461 -15.331 -40.513  0.00  0.00    +0.024 C 
BRANCH   5   6
ATOM      6  C   UNL A   1      42.983 -15.331 -40.406  0.00  0.00    -0.045 C 
BRANCH   6   7
ATOM      7  C   UNL A   1      43.693 -16.074 -41.542  0.00  0.00    -0.051 C 
BRANCH   7   8
ATOM      8  C   UNL A   1      44.692 -17.142 -41.084  0.00  0.00    -0.037 C 
BRANCH   8   9
ATOM      9  C   UNL A   1      44.468 -18.496 -41.763  0.00  0.00    +0.012 C 
BRANCH   9  12
ATOM     10  C   UNL A   1      43.511 -20.687 -40.921  0.00  0.00    +0.246 C 
ATOM     11  O   UNL A   1      42.462 -21.275 -40.667  0.00  0.00    -0.270 OA
ATOM     12  N   UNL A   1      43.524 -19.316 -41.021  0.00  0.00    -0.311 N 
ATOM     13  H   UNL A   1      42.813 -18.837 -40.537  0.00  0.00    +0.000 HD
BRANCH  10  19
ATOM     14  C   UNL A   1      45.683 -21.647 -40.136  0.00  0.00    +0.044 A 
ATOM     15  C   UNL A   1      46.792 -22.467 -40.396  0.00  0.00    -0.040 A 
ATOM     16  C   UNL A   1      47.019 -22.996 -41.671  0.00  0.00    -0.060 A 
ATOM     17  C   UNL A   1      46.128 -22.730 -42.707  0.00  0.00    -0.061 A 
ATOM     18  C   UNL A   1      44.989 -21.967 -42.461  0.00  0.00    -0.048 A 
ATOM     19  C   UNL A   1      44.742 -21.470 -41.172  0.00  0.00    +0.058 A 
BRANCH  14  20
ATOM     20  N   UNL A   1      45.438 -21.145 -38.825  0.00  0.00    -0.314 N 
ATOM     21  H   UNL A   1      45.056 -21.780 -38.176  0.00  0.00    +0.000 HD
BRANCH  20  27
ATOM     22  C   UNL A   1      43.774 -16.947 -36.674  0.00  0.00    -0.039 C 
ATOM     23  C   UNL A   1      44.842 -17.754 -37.362  0.00  0.00    -0.046 A 
ATOM     24  C   UNL A   1      46.057 -17.128 -37.677  0.00  0.00    -0.058 A 
ATOM     25  C   UNL A   1      47.062 -17.822 -38.345  0.00  0.00    -0.060 A 
ATOM     26  C   UNL A   1      46.868 -19.153 -38.698  0.00  0.00    -0.040 A 
ATOM     27  C   UNL A   1      45.685 -19.825 -38.352  0.00  0.00    +0.035 A 
ATOM     28  C   UNL A   1      44.654 -19.118 -37.690  0.00  0.00    -0.026 A 
ATOM     29  C   UNL A   1      43.345 -19.807 -37.390  0.00  0.00    -0.038 C 
ENDBRANCH  20  27
ENDBRANCH  14  20
ENDBRANCH  10  19
ENDBRANCH   9  12
ENDBRANCH   8   9
ENDBRANCH   7   8
ENDBRANCH   6   7
ENDBRANCH   5   6
ENDBRANCH   1   5
BRANCH   3  30
ATOM     30  C   UNL A   1      38.713 -17.272 -38.738  0.00  0.00    +0.012 C 
BRANCH  30  31
ATOM     31  C   UNL A   1      38.690 -17.057 -37.224  0.00  0.00    -0.037 C 
BRANCH  31  32
ATOM     32  C   UNL A   1      38.801 -18.363 -36.431  0.00  0.00    -0.052 C 
BRANCH  32  33
ATOM     33  C   UNL A   1      39.572 -19.432 -37.209  0.00  0.00    -0.053 C 
BRANCH  33  34
ATOM     34  C   UNL A   1      38.828 -20.768 -37.190  0.00  0.00    -0.053 C 
BRANCH  34  35
ATOM     35  C   UNL A   1      39.728 -21.922 -37.636  0.00  0.00    -0.052 C 
BRANCH  35  36
ATOM     36  C   UNL A   1      40.142 -22.788 -36.446  0.00  0.00    -0.037 C 
BRANCH  36  37
ATOM     37  C   UNL A   1      41.401 -22.246 -35.767  0.00  0.00    +0.009 C 
BRANCH  37  38
ATOM     38  N   UNL A   1      41.206 -22.287 -34.310  0.00  0.00    -0.343 N 
ATOM     39  H   UNL A   1      41.268 -23.107 -33.769  0.00  0.00    +0.000 HD
BRANCH  38  40
ATOM     40  C   UNL A   1      40.918 -20.997 -33.773  0.00  0.00    +0.041 A 
ATOM     41  C   UNL A   1      41.945 -20.049 -33.587  0.00  0.00    -0.005 A 
ATOM     42  C   UNL A   1      41.580 -18.788 -33.106  0.00  0.00    +0.047 A 
ATOM     43  N   UNL A   1      40.298 -18.425 -32.866  0.00  0.00    -0.251 NA
ATOM     44  C   UNL A   1      39.322 -19.323 -33.056  0.00  0.00    +0.073 A 
ATOM     45  C   UNL A   1      38.013 -18.938 -32.789  0.00  0.00    -0.036 A 
ATOM     46  C   UNL A   1      36.937 -19.816 -32.943  0.00  0.00    -0.060 A 
ATOM     47  C   UNL A   1      37.169 -21.115 -33.368  0.00  0.00    -0.061 A 
ATOM     48  C   UNL A   1      38.474 -21.521 -33.643  0.00  0.00    -0.051 A 
ATOM     49  C   UNL A   1      39.569 -20.633 -33.506  0.00  0.00    +0.021 A 
ATOM     50  C   UNL A   1      42.598 -17.701 -32.873  0.00  0.00    -0.010 C 
ATOM     51  C   UNL A   1      44.019 -18.229 -32.719  0.00  0.00    -0.047 C 
ATOM     52  C   UNL A   1      44.335 -19.188 -33.857  0.00  0.00    -0.049 C 
ATOM     53  C   UNL A   1      43.398 -20.395 -33.816  0.00  0.00    -0.024 C 
ENDBRANCH  38  40
ENDBRANCH  37  38
ENDBRANCH  36  37
ENDBRANCH  35  36
ENDBRANCH  34  35
ENDBRANCH  33  34
ENDBRANCH  32  33
ENDBRANCH  31  32
ENDBRANCH  30  31
ENDBRANCH   3  30
TORSDOF 19
ENDMDL
MODEL 2
REMARK VINA RESULT:    -6.660      1.955      5.383
REMARK INTER + INTRA:         -20.270
REMARK INTER:                 -14.130
REMARK INTRA:                  -6.140
REMARK UNBOUND:                -6.213
REMARK  Name = cpd44.pdb
REMARK  21 active torsions:
REMARK  status: ('A' for Active; 'I' for Inactive)
REMARK    1  A    between atoms: C_1  and  C_2
REMARK    2  A    between atoms: C_6  and  N_7
REMARK    3  A    between atoms: N_7  and  C_8
REMARK    4  A    between atoms: C_13  and  C_14
REMARK    5  A    between atoms: N_16  and  C_17
REMARK    6  A    between atoms: C_17  and  C_18
REMARK    7  A    between atoms: C_18  and  C_19
REMARK    8  A    between atoms: C_19  and  C_20
REMARK    9  A    between atoms: C_20  and  C_21
REMARK   10  A    between atoms: C_21  and  C_22
REMARK   11  A    between atoms: N_24  and  C_25
REMARK   12  A    between atoms: C_25  and  C_26
REMARK   13  A    between atoms: C_26  and  C_27
REMARK   14  A    between atoms: C_27  and  C_28
REMARK   15  A    between atoms: C_28  and  C_29
REMARK   16  A    between atoms: C_29  and  C_30
REMARK   17  A    between atoms: C_30  and  C_31
REMARK   18  A    between atoms: C_31  and  C_32
REMARK   19  A    between atoms: C_32  and  N_33
REMARK   20  A    between atoms: N_33  and  C_34
REMARK   21  A    between atoms: C_48  and  C_49
REMARK                            x       y       z     vdW  Elec       q    Type
REMARK                         _______ _______ _______ _____ _____    ______ ____
ROOT
ATOM      1  C   UNL A   1      39.114 -17.670 -37.908  0.00  0.00    +0.213 C 
ATOM      2  O   UNL A   1      39.776 -18.492 -38.533  0.00  0.00    -0.276 OA
ATOM      3  N   UNL A   1      38.166 -18.005 -36.968  0.00  0.00    -0.315 N 
ATOM      4  H   UNL A   1      37.716 -17.286 -36.469  0.00  0.00    +0.000 HD
ENDROOT
BRANCH   1   5
ATOM      5  C   UNL A   1      39.281 -16.181 -38.121  0.00  0.00    +0.024 C 
BRANCH   5   6
ATOM      6  C   UNL A   1      39.822 -15.483 -36.877  0.00  0.00    -0.045 C 
BRANCH   6   7
ATOM      7  C   UNL A   1      40.985 -16.217 -36.201  0.00  0.00    -0.051 C 
BRANCH   7   8
ATOM      8  C   UNL A   1      42.377 -15.800 -36.689  0.00  0.00    -0.037 C 
BRANCH   8   9
ATOM      9  C   UNL A   1      43.031 -16.852 -37.589  0.00  0.00    +0.012 C 
BRANCH   9  12
ATOM     10  C   UNL A   1      45.563 -16.767 -37.496  0.00  0.00    +0.246 C 
ATOM     11  O   UNL A   1      46.534 -16.030 -37.653  0.00  0.00    -0.270 OA
ATOM     12  N   UNL A   1      44.347 -16.427 -38.039  0.00  0.00    -0.311 N 
ATOM     13  H   UNL A   1      44.370 -15.828 -38.820  0.00  0.00    +0.000 HD
BRANCH  10  19
ATOM     14  C   UNL A   1      46.285 -19.147 -37.232  0.00  0.00    +0.044 A 
ATOM     15  C   UNL A   1      46.473 -20.253 -36.388  0.00  0.00    -0.040 A 
ATOM     16  C   UNL A   1      45.996 -20.252 -35.074  0.00  0.00    -0.060 A 
ATOM     17  C   UNL A   1      45.337 -19.133 -34.570  0.00  0.00    -0.061 A 
ATOM     18  C   UNL A   1      45.188 -18.001 -35.368  0.00  0.00    -0.048 A 
ATOM     19  C   UNL A   1      45.703 -17.990 -36.674  0.00  0.00    +0.058 A 
BRANCH  14  20
ATOM     20  N   UNL A   1      46.810 -19.142 -38.557  0.00  0.00    -0.314 N 
ATOM     21  H   UNL A   1      47.426 -18.407 -38.782  0.00  0.00    +0.000 HD
BRANCH  20  27
ATOM     22  C   UNL A   1      44.698 -20.237 -42.957  0.00  0.00    -0.039 C 
ATOM     23  C   UNL A   1      45.444 -20.625 -41.708  0.00  0.00    -0.046 A 
ATOM     24  C   UNL A   1      45.741 -21.979 -41.497  0.00  0.00    -0.058 A 
ATOM     25  C   UNL A   1      46.398 -22.391 -40.342  0.00  0.00    -0.060 A 
ATOM     26  C   UNL A   1      46.774 -21.453 -39.386  0.00  0.00    -0.040 A 
ATOM     27  C   UNL A   1      46.539 -20.084 -39.589  0.00  0.00    +0.035 A 
ATOM     28  C   UNL A   1      45.856 -19.663 -40.755  0.00  0.00    -0.026 A 
ATOM     29  C   UNL A   1      45.522 -18.203 -40.942  0.00  0.00    -0.038 C 
ENDBRANCH  20  27
ENDBRANCH  14  20
ENDBRANCH  10  19
ENDBRANCH   9  12
ENDBRANCH   8   9
ENDBRANCH   7   8
ENDBRANCH   6   7
ENDBRANCH   5   6
ENDBRANCH   1   5
BRANCH   3  30
ATOM     30  C   UNL A   1      37.808 -19.381 -36.687  0.00  0.00    +0.012 C 
BRANCH  30  31
ATOM     31  C   UNL A   1      37.959 -19.732 -35.206  0.00  0.00    -0.037 C 
BRANCH  31  32
ATOM     32  C   UNL A   1      37.141 -18.819 -34.287  0.00  0.00    -0.052 C 
BRANCH  32  33
ATOM     33  C   UNL A   1      37.951 -18.376 -33.066  0.00  0.00    -0.053 C 
BRANCH  33  34
ATOM     34  C   UNL A   1      39.183 -19.263 -32.874  0.00  0.00    -0.053 C 
BRANCH  34  35
ATOM     35  C   UNL A   1      40.373 -18.467 -32.338  0.00  0.00    -0.052 C 
BRANCH  35  36
ATOM     36  C   UNL A   1      41.697 -19.088 -32.784  0.00  0.00    -0.037 C 
BRANCH  36  37
ATOM     37  C   UNL A   1      41.661 -19.492 -34.258  0.00  0.00    +0.009 C 
BRANCH  37  38
ATOM     38  N   UNL A   1      42.171 -20.865 -34.385  0.00  0.00    -0.343 N 
ATOM     39  H   UNL A   1      42.925 -21.222 -33.863  0.00  0.00    +0.000 HD
BRANCH  38  40
ATOM     40  C   UNL A   1      41.444 -21.618 -35.353  0.00  0.00    +0.041 A 
ATOM     41  C   UNL A   1      40.314 -22.373 -34.977  0.00  0.00    -0.005 A 
ATOM     42  C   UNL A   1      39.620 -23.044 -35.989  0.00  0.00    +0.047 A 
ATOM     43  N   UNL A   1      39.948 -22.959 -37.300  0.00  0.00    -0.251 NA
ATOM     44  C   UNL A   1      41.014 -22.231 -37.657  0.00  0.00    +0.073 A 
ATOM     45  C   UNL A   1      41.346 -22.168 -39.005  0.00  0.00    -0.036 A 
ATOM     46  C   UNL A   1      42.451 -21.446 -39.463  0.00  0.00    -0.060 A 
ATOM     47  C   UNL A   1      43.253 -20.774 -38.554  0.00  0.00    -0.061 A 
ATOM     48  C   UNL A   1      42.937 -20.823 -37.197  0.00  0.00    -0.051 A 
ATOM     49  C   UNL A   1      41.810 -21.537 -36.726  0.00  0.00    +0.021 A 
ATOM     50  C   UNL A   1      38.398 -23.877 -35.696  0.00  0.00    -0.010 C 
ATOM     51  C   UNL A   1      38.303 -24.319 -34.241  0.00  0.00    -0.047 C 
ATOM     52  C   UNL A   1      38.511 -23.119 -33.329  0.00  0.00    -0.049 C 
ATOM     53  C   UNL A   1      39.905 -22.528 -33.531  0.00  0.00    -0.024 C 
ENDBRANCH  38  40
ENDBRANCH  37  38
ENDBRANCH  36  37
ENDBRANCH  35  36
ENDBRANCH  34  35
ENDBRANCH  33  34
ENDBRANCH  32  33
ENDBRANCH  31  32
ENDBRANCH  30  31
ENDBRANCH   3  30
TORSDOF 19
ENDMDL
MODEL 3
REMARK VINA RESULT:    -6.456      2.083      8.178
REMARK INTER + INTRA:         -19.839
REMARK INTER:                 -13.352
REMARK INTRA:                  -6.487
REMARK UNBOUND:                -6.213
REMARK  Name = cpd44.pdb
REMARK  21 active torsions:
REMARK  status: ('A' for Active; 'I' for Inactive)
REMARK    1  A    between atoms: C_1  and  C_2
REMARK    2  A    between atoms: C_6  and  N_7
REMARK    3  A    between atoms: N_7  and  C_8
REMARK    4  A    between atoms: C_13  and  C_14
REMARK    5  A    between atoms: N_16  and  C_17
REMARK    6  A    between atoms: C_17  and  C_18
REMARK    7  A    between atoms: C_18  and  C_19
REMARK    8  A    between atoms: C_19  and  C_20
REMARK    9  A    between atoms: C_20  and  C_21
REMARK   10  A    between atoms: C_21  and  C_22
REMARK   11  A    between atoms: N_24  and  C_25
REMARK   12  A    between atoms: C_25  and  C_26
REMARK   13  A    between atoms: C_26  and  C_27
REMARK   14  A    between atoms: C_27  and  C_28
REMARK   15  A    between atoms: C_28  and  C_29
REMARK   16  A    between atoms: C_29  and  C_30
REMARK   17  A    between atoms: C_30  and  C_31
REMARK   18  A    between atoms: C_31  and  C_32
REMARK   19  A    between atoms: C_32  and  N_33
REMARK   20  A    between atoms: N_33  and  C_34
REMARK   21  A    between atoms: C_48  and  C_49
REMARK                            x       y       z     vdW  Elec       q    Type
REMARK                         _______ _______ _______ _____ _____    ______ ____
ROOT
ATOM      1  C   UNL A   1      40.056 -22.274 -36.636  0.00  0.00    +0.213 C 
ATOM      2  O   UNL A   1      40.957 -21.635 -36.101  0.00  0.00    -0.276 OA
ATOM      3  N   UNL A   1      39.757 -22.201 -37.977  0.00  0.00    -0.315 N 
ATOM      4  H   UNL A   1      39.055 -22.788 -38.340  0.00  0.00    +0.000 HD
ENDROOT
BRANCH   1   5
ATOM      5  C   UNL A   1      39.171 -23.218 -35.850  0.00  0.00    +0.024 C 
BRANCH   5   6
ATOM      6  C   UNL A   1      39.262 -22.968 -34.348  0.00  0.00    -0.045 C 
BRANCH   6   7
ATOM      7  C   UNL A   1      37.986 -22.387 -33.729  0.00  0.00    -0.051 C 
BRANCH   7   8
ATOM      8  C   UNL A   1      37.988 -20.864 -33.565  0.00  0.00    -0.037 C 
BRANCH   8   9
ATOM      9  C   UNL A   1      39.384 -20.297 -33.293  0.00  0.00    +0.012 C 
BRANCH   9  12
ATOM     10  C   UNL A   1      40.369 -18.054 -32.643  0.00  0.00    +0.246 C 
ATOM     11  O   UNL A   1      40.274 -17.127 -31.841  0.00  0.00    -0.270 OA
ATOM     12  N   UNL A   1      39.321 -18.925 -32.813  0.00  0.00    -0.311 N 
ATOM     13  H   UNL A   1      38.426 -18.583 -32.584  0.00  0.00    +0.000 HD
BRANCH  10  19
ATOM     14  C   UNL A   1      41.837 -17.613 -34.620  0.00  0.00    +0.044 A 
ATOM     15  C   UNL A   1      43.089 -17.764 -35.237  0.00  0.00    -0.040 A 
ATOM     16  C   UNL A   1      44.064 -18.612 -34.702  0.00  0.00    -0.060 A 
ATOM     17  C   UNL A   1      43.812 -19.311 -33.524  0.00  0.00    -0.061 A 
ATOM     18  C   UNL A   1      42.601 -19.134 -32.861  0.00  0.00    -0.048 A 
ATOM     19  C   UNL A   1      41.639 -18.253 -33.378  0.00  0.00    +0.058 A 
BRANCH  14  20
ATOM     20  N   UNL A   1      40.865 -16.717 -35.150  0.00  0.00    -0.314 N 
ATOM     21  H   UNL A   1      40.304 -16.239 -34.496  0.00  0.00    +0.000 HD
BRANCH  20  27
ATOM     22  C   UNL A   1      38.945 -18.095 -39.558  0.00  0.00    -0.039 C 
ATOM     23  C   UNL A   1      39.734 -17.153 -38.690  0.00  0.00    -0.046 A 
ATOM     24  C   UNL A   1      40.364 -16.053 -39.291  0.00  0.00    -0.058 A 
ATOM     25  C   UNL A   1      41.133 -15.174 -38.536  0.00  0.00    -0.060 A 
ATOM     26  C   UNL A   1      41.275 -15.378 -37.167  0.00  0.00    -0.040 A 
ATOM     27  C   UNL A   1      40.617 -16.437 -36.524  0.00  0.00    +0.035 A 
ATOM     28  C   UNL A   1      39.848 -17.344 -37.292  0.00  0.00    -0.026 A 
ATOM     29  C   UNL A   1      39.206 -18.535 -36.623  0.00  0.00    -0.038 C 
ENDBRANCH  20  27
ENDBRANCH  14  20
ENDBRANCH  10  19
ENDBRANCH   9  12
ENDBRANCH   8   9
ENDBRANCH   7   8
ENDBRANCH   6   7
ENDBRANCH   5   6
ENDBRANCH   1   5
BRANCH   3  30
ATOM     30  C   UNL A   1      40.441 -21.291 -38.874  0.00  0.00    +0.012 C 
BRANCH  30  31
ATOM     31  C   UNL A   1      41.612 -21.957 -39.600  0.00  0.00    -0.037 C 
BRANCH  31  32
ATOM     32  C   UNL A   1      42.804 -21.017 -39.802  0.00  0.00    -0.052 C 
BRANCH  32  33
ATOM     33  C   UNL A   1      43.243 -20.371 -38.485  0.00  0.00    -0.053 C 
BRANCH  33  34
ATOM     34  C   UNL A   1      43.110 -18.848 -38.551  0.00  0.00    -0.053 C 
BRANCH  34  35
ATOM     35  C   UNL A   1      42.873 -18.364 -39.982  0.00  0.00    -0.052 C 
BRANCH  35  36
ATOM     36  C   UNL A   1      43.838 -17.235 -40.348  0.00  0.00    -0.037 C 
BRANCH  36  37
ATOM     37  C   UNL A   1      44.840 -17.675 -41.416  0.00  0.00    +0.009 C 
BRANCH  37  38
ATOM     38  N   UNL A   1      46.200 -17.529 -40.878  0.00  0.00    -0.343 N 
ATOM     39  H   UNL A   1      46.817 -16.805 -41.131  0.00  0.00    +0.000 HD
BRANCH  38  40
ATOM     40  C   UNL A   1      46.520 -18.560 -39.946  0.00  0.00    +0.041 A 
ATOM     41  C   UNL A   1      46.774 -18.254 -38.594  0.00  0.00    -0.005 A 
ATOM     42  C   UNL A   1      47.030 -19.321 -37.727  0.00  0.00    +0.047 A 
ATOM     43  N   UNL A   1      46.990 -20.619 -38.112  0.00  0.00    -0.251 NA
ATOM     44  C   UNL A   1      46.734 -20.909 -39.394  0.00  0.00    +0.073 A 
ATOM     45  C   UNL A   1      46.713 -22.245 -39.775  0.00  0.00    -0.036 A 
ATOM     46  C   UNL A   1      46.472 -22.636 -41.095  0.00  0.00    -0.060 A 
ATOM     47  C   UNL A   1      46.253 -21.670 -42.065  0.00  0.00    -0.061 A 
ATOM     48  C   UNL A   1      46.268 -20.324 -41.704  0.00  0.00    -0.051 A 
ATOM     49  C   UNL A   1      46.494 -19.919 -40.366  0.00  0.00    +0.021 A 
ATOM     50  C   UNL A   1      47.312 -19.106 -36.262  0.00  0.00    -0.010 C 
ATOM     51  C   UNL A   1      47.782 -17.692 -35.940  0.00  0.00    -0.047 C 
ATOM     52  C   UNL A   1      46.841 -16.683 -36.580  0.00  0.00    -0.049 C 
ATOM     53  C   UNL A   1      46.855 -16.827 -38.102  0.00  0.00    -0.024 C 
ENDBRANCH  38  40
ENDBRANCH  37  38
ENDBRANCH  36  37
ENDBRANCH  35  36
ENDBRANCH  34  35
ENDBRANCH  33  34
ENDBRANCH  32  33
ENDBRANCH  31  32
ENDBRANCH  30  31
ENDBRANCH   3  30
TORSDOF 19
ENDMDL
MODEL 4
REMARK VINA RESULT:    -6.432      2.183      7.566
REMARK INTER + INTRA:         -19.788
REMARK INTER:                 -11.761
REMARK INTRA:                  -8.027
REMARK UNBOUND:                -6.213
REMARK  Name = cpd44.pdb
REMARK  21 active torsions:
REMARK  status: ('A' for Active; 'I' for Inactive)
REMARK    1  A    between atoms: C_1  and  C_2
REMARK    2  A    between atoms: C_6  and  N_7
REMARK    3  A    between atoms: N_7  and  C_8
REMARK    4  A    between atoms: C_13  and  C_14
REMARK    5  A    between atoms: N_16  and  C_17
REMARK    6  A    between atoms: C_17  and  C_18
REMARK    7  A    between atoms: C_18  and  C_19
REMARK    8  A    between atoms: C_19  and  C_20
REMARK    9  A    between atoms: C_20  and  C_21
REMARK   10  A    between atoms: C_21  and  C_22
REMARK   11  A    between atoms: N_24  and  C_25
REMARK   12  A    between atoms: C_25  and  C_26
REMARK   13  A    between atoms: C_26  and  C_27
REMARK   14  A    between atoms: C_27  and  C_28
REMARK   15  A    between atoms: C_28  and  C_29
REMARK   16  A    between atoms: C_29  and  C_30
REMARK   17  A    between atoms: C_30  and  C_31
REMARK   18  A    between atoms: C_31  and  C_32
REMARK   19  A    between atoms: C_32  and  N_33
REMARK   20  A    between atoms: N_33  and  C_34
REMARK   21  A    between atoms: C_48  and  C_49
REMARK                            x       y       z     vdW  Elec       q    Type
REMARK                         _______ _______ _______ _____ _____    ______ ____
ROOT
ATOM      1  C   UNL A   1      43.271 -20.925 -40.730  0.00  0.00    +0.213 C 
ATOM      2  O   UNL A   1      43.498 -21.371 -41.849  0.00  0.00    -0.276 OA
ATOM      3  N   UNL A   1      43.564 -19.637 -40.344  0.00  0.00    -0.315 N 
ATOM      4  H   UNL A   1      43.300 -19.339 -39.443  0.00  0.00    +0.000 HD
ENDROOT
BRANCH   1   5
ATOM      5  C   UNL A   1      42.636 -21.772 -39.647  0.00  0.00    +0.024 C 
BRANCH   5   6
ATOM      6  C   UNL A   1      41.113 -21.748 -39.724  0.00  0.00    -0.045 C 
BRANCH   6   7
ATOM      7  C   UNL A   1      40.416 -22.599 -38.657  0.00  0.00    -0.051 C 
BRANCH   7   8
ATOM      8  C   UNL A   1      40.438 -22.003 -37.246  0.00  0.00    -0.037 C 
BRANCH   8   9
ATOM      9  C   UNL A   1      39.544 -22.765 -36.264  0.00  0.00    +0.012 C 
BRANCH   9  12
ATOM     10  C   UNL A   1      40.227 -22.348 -33.858  0.00  0.00    +0.246 C 
ATOM     11  O   UNL A   1      41.163 -22.433 -33.067  0.00  0.00    -0.270 OA
ATOM     12  N   UNL A   1      40.246 -23.071 -35.027  0.00  0.00    -0.311 N 
ATOM     13  H   UNL A   1      40.798 -23.886 -35.027  0.00  0.00    +0.000 HD
BRANCH  10  19
ATOM     14  C   UNL A   1      39.258 -20.042 -33.820  0.00  0.00    +0.044 A 
ATOM     15  C   UNL A   1      38.142 -19.217 -33.608  0.00  0.00    -0.040 A 
ATOM     16  C   UNL A   1      36.962 -19.722 -33.055  0.00  0.00    -0.060 A 
ATOM     17  C   UNL A   1      36.867 -21.070 -32.721  0.00  0.00    -0.061 A 
ATOM     18  C   UNL A   1      37.939 -21.922 -32.975  0.00  0.00    -0.048 A 
ATOM     19  C   UNL A   1      39.109 -21.422 -33.567  0.00  0.00    +0.058 A 
BRANCH  14  20
ATOM     20  N   UNL A   1      40.443 -19.527 -34.422  0.00  0.00    -0.314 N 
ATOM     21  H   UNL A   1      40.576 -19.732 -35.376  0.00  0.00    +0.000 HD
BRANCH  20  27
ATOM     22  C   UNL A   1      42.596 -15.087 -33.605  0.00  0.00    -0.039 C 
ATOM     23  C   UNL A   1      42.540 -16.583 -33.455  0.00  0.00    -0.046 A 
ATOM     24  C   UNL A   1      43.599 -17.233 -32.804  0.00  0.00    -0.058 A 
ATOM     25  C   UNL A   1      43.609 -18.618 -32.671  0.00  0.00    -0.060 A 
ATOM     26  C   UNL A   1      42.556 -19.371 -33.180  0.00  0.00    -0.040 A 
ATOM     27  C   UNL A   1      41.456 -18.750 -33.791  0.00  0.00    +0.035 A 
ATOM     28  C   UNL A   1      41.450 -17.343 -33.944  0.00  0.00    -0.026 A 
ATOM     29  C   UNL A   1      40.312 -16.673 -34.675  0.00  0.00    -0.038 C 
ENDBRANCH  20  27
ENDBRANCH  14  20
ENDBRANCH  10  19
ENDBRANCH   9  12
ENDBRANCH   8   9
ENDBRANCH   7   8
ENDBRANCH   6   7
ENDBRANCH   5   6
ENDBRANCH   1   5
BRANCH   3  30
ATOM     30  C   UNL A   1      44.249 -18.705 -41.216  0.00  0.00    +0.012 C 
BRANCH  30  31
ATOM     31  C   UNL A   1      45.070 -17.674 -40.439  0.00  0.00    -0.037 C 
BRANCH  31  32
ATOM     32  C   UNL A   1      46.093 -18.312 -39.494  0.00  0.00    -0.052 C 
BRANCH  32  33
ATOM     33  C   UNL A   1      47.258 -17.364 -39.201  0.00  0.00    -0.053 C 
BRANCH  33  34
ATOM     34  C   UNL A   1      46.816 -15.903 -39.306  0.00  0.00    -0.053 C 
BRANCH  34  35
ATOM     35  C   UNL A   1      47.464 -15.038 -38.224  0.00  0.00    -0.052 C 
BRANCH  35  36
ATOM     36  C   UNL A   1      46.434 -14.122 -37.561  0.00  0.00    -0.037 C 
BRANCH  36  37
ATOM     37  C   UNL A   1      45.004 -14.555 -37.887  0.00  0.00    +0.009 C 
BRANCH  37  38
ATOM     38  N   UNL A   1      44.385 -15.097 -36.668  0.00  0.00    -0.343 N 
ATOM     39  H   UNL A   1      44.255 -14.580 -35.840  0.00  0.00    +0.000 HD
BRANCH  38  40
ATOM     40  C   UNL A   1      43.995 -16.459 -36.826  0.00  0.00    +0.041 A 
ATOM     41  C   UNL A   1      44.778 -17.499 -36.283  0.00  0.00    -0.005 A 
ATOM     42  C   UNL A   1      44.307 -18.807 -36.432  0.00  0.00    +0.047 A 
ATOM     43  N   UNL A   1      43.124 -19.111 -37.016  0.00  0.00    -0.251 NA
ATOM     44  C   UNL A   1      42.375 -18.121 -37.520  0.00  0.00    +0.073 A 
ATOM     45  C   UNL A   1      41.171 -18.451 -38.130  0.00  0.00    -0.036 A 
ATOM     46  C   UNL A   1      40.337 -17.484 -38.696  0.00  0.00    -0.060 A 
ATOM     47  C   UNL A   1      40.713 -16.151 -38.661  0.00  0.00    -0.061 A 
ATOM     48  C   UNL A   1      41.916 -15.796 -38.051  0.00  0.00    -0.051 A 
ATOM     49  C   UNL A   1      42.760 -16.768 -37.460  0.00  0.00    +0.021 A 
ATOM     50  C   UNL A   1      45.065 -19.992 -35.888  0.00  0.00    -0.010 C 
ATOM     51  C   UNL A   1      46.541 -19.702 -35.644  0.00  0.00    -0.047 C 
ATOM     52  C   UNL A   1      46.685 -18.413 -34.850  0.00  0.00    -0.049 C 
ATOM     53  C   UNL A   1      46.118 -17.233 -35.637  0.00  0.00    -0.024 C 
ENDBRANCH  38  40
ENDBRANCH  37  38
ENDBRANCH  36  37
ENDBRANCH  35  36
ENDBRANCH  34  35
ENDBRANCH  33  34
ENDBRANCH  32  33
ENDBRANCH  31  32
ENDBRANCH  30  31
ENDBRANCH   3  30
TORSDOF 19
ENDMDL
MODEL 5
REMARK VINA RESULT:    -6.364      2.164      7.957
REMARK INTER + INTRA:         -19.647
REMARK INTER:                 -11.763
REMARK INTRA:                  -7.883
REMARK UNBOUND:                -6.213
REMARK  Name = cpd44.pdb
REMARK  21 active torsions:
REMARK  status: ('A' for Active; 'I' for Inactive)
REMARK    1  A    between atoms: C_1  and  C_2
REMARK    2  A    between atoms: C_6  and  N_7
REMARK    3  A    between atoms: N_7  and  C_8
REMARK    4  A    between atoms: C_13  and  C_14
REMARK    5  A    between atoms: N_16  and  C_17
REMARK    6  A    between atoms: C_17  and  C_18
REMARK    7  A    between atoms: C_18  and  C_19
REMARK    8  A    between atoms: C_19  and  C_20
REMARK    9  A    between atoms: C_20  and  C_21
REMARK   10  A    between atoms: C_21  and  C_22
REMARK   11  A    between atoms: N_24  and  C_25
REMARK   12  A    between atoms: C_25  and  C_26
REMARK   13  A    between atoms: C_26  and  C_27
REMARK   14  A    between atoms: C_27  and  C_28
REMARK   15  A    between atoms: C_28  and  C_29
REMARK   16  A    between atoms: C_29  and  C_30
REMARK   17  A    between atoms: C_30  and  C_31
REMARK   18  A    between atoms: C_31  and  C_32
REMARK   19  A    between atoms: C_32  and  N_33
REMARK   20  A    between atoms: N_33  and  C_34
REMARK   21  A    between atoms: C_48  and  C_49
REMARK                            x       y       z     vdW  Elec       q    Type
REMARK                         _______ _______ _______ _____ _____    ______ ____
ROOT
ATOM      1  C   UNL A   1      43.210 -20.934 -40.593  0.00  0.00    +0.213 C 
ATOM      2  O   UNL A   1      43.304 -21.307 -41.758  0.00  0.00    -0.276 OA
ATOM      3  N   UNL A   1      43.680 -19.725 -40.134  0.00  0.00    -0.315 N 
ATOM      4  H   UNL A   1      43.516 -19.476 -39.196  0.00  0.00    +0.000 HD
ENDROOT
BRANCH   1   5
ATOM      5  C   UNL A   1      42.555 -21.792 -39.531  0.00  0.00    +0.024 C 
BRANCH   5   6
ATOM      6  C   UNL A   1      41.035 -21.662 -39.550  0.00  0.00    -0.045 C 
BRANCH   6   7
ATOM      7  C   UNL A   1      40.313 -22.578 -38.556  0.00  0.00    -0.051 C 
BRANCH   7   8
ATOM      8  C   UNL A   1      40.297 -22.069 -37.111  0.00  0.00    -0.037 C 
BRANCH   8   9
ATOM      9  C   UNL A   1      39.315 -22.836 -36.221  0.00  0.00    +0.012 C 
BRANCH   9  12
ATOM     10  C   UNL A   1      39.879 -22.458 -33.779  0.00  0.00    +0.246 C 
ATOM     11  O   UNL A   1      40.755 -22.611 -32.931  0.00  0.00    -0.270 OA
ATOM     12  N   UNL A   1      39.913 -23.188 -34.943  0.00  0.00    -0.311 N 
ATOM     13  H   UNL A   1      40.397 -24.044 -34.907  0.00  0.00    +0.000 HD
BRANCH  10  19
ATOM     14  C   UNL A   1      39.090 -20.085 -33.821  0.00  0.00    +0.044 A 
ATOM     15  C   UNL A   1      38.031 -19.173 -33.679  0.00  0.00    -0.040 A 
ATOM     16  C   UNL A   1      36.788 -19.578 -33.183  0.00  0.00    -0.060 A 
ATOM     17  C   UNL A   1      36.573 -20.910 -32.838  0.00  0.00    -0.061 A 
ATOM     18  C   UNL A   1      37.588 -21.845 -33.023  0.00  0.00    -0.048 A 
ATOM     19  C   UNL A   1      38.822 -21.445 -33.558  0.00  0.00    +0.058 A 
BRANCH  14  20
ATOM     20  N   UNL A   1      40.341 -19.672 -34.365  0.00  0.00    -0.314 N 
ATOM     21  H   UNL A   1      40.673 -20.181 -35.139  0.00  0.00    +0.000 HD
BRANCH  20  27
ATOM     22  C   UNL A   1      44.684 -18.067 -32.473  0.00  0.00    -0.039 C 
ATOM     23  C   UNL A   1      43.265 -17.839 -32.919  0.00  0.00    -0.046 A 
ATOM     24  C   UNL A   1      42.699 -16.569 -32.735  0.00  0.00    -0.058 A 
ATOM     25  C   UNL A   1      41.379 -16.320 -33.099  0.00  0.00    -0.060 A 
ATOM     26  C   UNL A   1      40.612 -17.335 -33.661  0.00  0.00    -0.040 A 
ATOM     27  C   UNL A   1      41.162 -18.602 -33.908  0.00  0.00    +0.035 A 
ATOM     28  C   UNL A   1      42.498 -18.865 -33.523  0.00  0.00    -0.026 A 
ATOM     29  C   UNL A   1      43.072 -20.248 -33.705  0.00  0.00    -0.038 C 
ENDBRANCH  20  27
ENDBRANCH  14  20
ENDBRANCH  10  19
ENDBRANCH   9  12
ENDBRANCH   8   9
ENDBRANCH   7   8
ENDBRANCH   6   7
ENDBRANCH   5   6
ENDBRANCH   1   5
BRANCH   3  30
ATOM     30  C   UNL A   1      44.410 -18.806 -40.985  0.00  0.00    +0.012 C 
BRANCH  30  31
ATOM     31  C   UNL A   1      45.065 -17.673 -40.192  0.00  0.00    -0.037 C 
BRANCH  31  32
ATOM     32  C   UNL A   1      46.466 -18.029 -39.684  0.00  0.00    -0.052 C 
BRANCH  32  33
ATOM     33  C   UNL A   1      47.332 -16.781 -39.498  0.00  0.00    -0.053 C 
BRANCH  33  34
ATOM     34  C   UNL A   1      46.514 -15.628 -38.913  0.00  0.00    -0.053 C 
BRANCH  34  35
ATOM     35  C   UNL A   1      47.325 -14.819 -37.899  0.00  0.00    -0.052 C 
BRANCH  35  36
ATOM     36  C   UNL A   1      46.408 -14.124 -36.891  0.00  0.00    -0.037 C 
BRANCH  36  37
ATOM     37  C   UNL A   1      44.950 -14.550 -37.069  0.00  0.00    +0.009 C 
BRANCH  37  38
ATOM     38  N   UNL A   1      44.548 -15.353 -35.905  0.00  0.00    -0.343 N 
ATOM     39  H   UNL A   1      44.593 -15.035 -34.975  0.00  0.00    +0.000 HD
BRANCH  38  40
ATOM     40  C   UNL A   1      44.084 -16.647 -36.284  0.00  0.00    +0.041 A 
ATOM     41  C   UNL A   1      42.777 -16.825 -36.783  0.00  0.00    -0.005 A 
ATOM     42  C   UNL A   1      42.409 -18.114 -37.183  0.00  0.00    +0.047 A 
ATOM     43  N   UNL A   1      43.255 -19.170 -37.164  0.00  0.00    -0.251 NA
ATOM     44  C   UNL A   1      44.500 -18.996 -36.701  0.00  0.00    +0.073 A 
ATOM     45  C   UNL A   1      45.351 -20.095 -36.673  0.00  0.00    -0.036 A 
ATOM     46  C   UNL A   1      46.659 -20.007 -36.191  0.00  0.00    -0.060 A 
ATOM     47  C   UNL A   1      47.133 -18.794 -35.716  0.00  0.00    -0.061 A 
ATOM     48  C   UNL A   1      46.297 -17.678 -35.737  0.00  0.00    -0.051 A 
ATOM     49  C   UNL A   1      44.976 -17.754 -36.240  0.00  0.00    +0.021 A 
ATOM     50  C   UNL A   1      41.038 -18.413 -37.733  0.00  0.00    -0.010 C 
ATOM     51  C   UNL A   1      39.993 -17.372 -37.350  0.00  0.00    -0.047 C 
ATOM     52  C   UNL A   1      40.527 -15.979 -37.648  0.00  0.00    -0.049 C 
ATOM     53  C   UNL A   1      41.775 -15.694 -36.813  0.00  0.00    -0.024 C 
ENDBRANCH  38  40
ENDBRANCH  37  38
ENDBRANCH  36  37
ENDBRANCH  35  36
ENDBRANCH  34  35
ENDBRANCH  33  34
ENDBRANCH  32  33
ENDBRANCH  31  32
ENDBRANCH  30  31
ENDBRANCH   3  30
TORSDOF 19
ENDMDL
MODEL 6
REMARK VINA RESULT:    -6.166      1.878      7.876
REMARK INTER + INTRA:         -19.228
REMARK INTER:                 -12.409
REMARK INTRA:                  -6.819
REMARK UNBOUND:                -6.213
REMARK  Name = cpd44.pdb
REMARK  21 active torsions:
REMARK  status: ('A' for Active; 'I' for Inactive)
REMARK    1  A    between atoms: C_1  and  C_2
REMARK    2  A    between atoms: C_6  and  N_7
REMARK    3  A    between atoms: N_7  and  C_8
REMARK    4  A    between atoms: C_13  and  C_14
REMARK    5  A    between atoms: N_16  and  C_17
REMARK    6  A    between atoms: C_17  and  C_18
REMARK    7  A    between atoms: C_18  and  C_19
REMARK    8  A    between atoms: C_19  and  C_20
REMARK    9  A    between atoms: C_20  and  C_21
REMARK   10  A    between atoms: C_21  and  C_22
REMARK   11  A    between atoms: N_24  and  C_25
REMARK   12  A    between atoms: C_25  and  C_26
REMARK   13  A    between atoms: C_26  and  C_27
REMARK   14  A    between atoms: C_27  and  C_28
REMARK   15  A    between atoms: C_28  and  C_29
REMARK   16  A    between atoms: C_29  and  C_30
REMARK   17  A    between atoms: C_30  and  C_31
REMARK   18  A    between atoms: C_31  and  C_32
REMARK   19  A    between atoms: C_32  and  N_33
REMARK   20  A    between atoms: N_33  and  C_34
REMARK   21  A    between atoms: C_48  and  C_49
REMARK                            x       y       z     vdW  Elec       q    Type
REMARK                         _______ _______ _______ _____ _____    ______ ____
ROOT
ATOM      1  C   UNL A   1      37.826 -17.510 -37.579  0.00  0.00    +0.213 C 
ATOM      2  O   UNL A   1      37.106 -17.962 -38.463  0.00  0.00    -0.276 OA
ATOM      3  N   UNL A   1      38.427 -16.273 -37.637  0.00  0.00    -0.315 N 
ATOM      4  H   UNL A   1      38.945 -15.960 -36.861  0.00  0.00    +0.000 HD
ENDROOT
BRANCH   1   5
ATOM      5  C   UNL A   1      38.127 -18.291 -36.317  0.00  0.00    +0.024 C 
BRANCH   5   6
ATOM      6  C   UNL A   1      38.672 -19.682 -36.623  0.00  0.00    -0.045 C 
BRANCH   6   7
ATOM      7  C   UNL A   1      40.125 -19.695 -37.109  0.00  0.00    -0.051 C 
BRANCH   7   8
ATOM      8  C   UNL A   1      40.781 -21.080 -37.132  0.00  0.00    -0.037 C 
BRANCH   8   9
ATOM      9  C   UNL A   1      42.310 -21.015 -37.105  0.00  0.00    +0.012 C 
BRANCH   9  12
ATOM     10  C   UNL A   1      43.306 -20.175 -34.930  0.00  0.00    +0.246 C 
ATOM     11  O   UNL A   1      44.104 -20.450 -34.037  0.00  0.00    -0.270 OA
ATOM     12  N   UNL A   1      42.829 -21.166 -35.755  0.00  0.00    -0.311 N 
ATOM     13  H   UNL A   1      42.839 -22.081 -35.390  0.00  0.00    +0.000 HD
BRANCH  10  19
ATOM     14  C   UNL A   1      41.913 -18.187 -34.330  0.00  0.00    +0.044 A 
ATOM     15  C   UNL A   1      41.632 -16.824 -34.514  0.00  0.00    -0.040 A 
ATOM     16  C   UNL A   1      42.232 -16.092 -35.543  0.00  0.00    -0.060 A 
ATOM     17  C   UNL A   1      43.144 -16.707 -36.398  0.00  0.00    -0.061 A 
ATOM     18  C   UNL A   1      43.483 -18.043 -36.202  0.00  0.00    -0.048 A 
ATOM     19  C   UNL A   1      42.910 -18.765 -35.144  0.00  0.00    +0.058 A 
BRANCH  14  20
ATOM     20  N   UNL A   1      41.327 -18.914 -33.254  0.00  0.00    -0.314 N 
ATOM     21  H   UNL A   1      41.949 -19.351 -32.628  0.00  0.00    +0.000 HD
BRANCH  20  27
ATOM     22  C   UNL A   1      37.249 -21.812 -33.212  0.00  0.00    -0.039 C 
ATOM     23  C   UNL A   1      37.938 -20.485 -33.036  0.00  0.00    -0.046 A 
ATOM     24  C   UNL A   1      37.156 -19.356 -32.748  0.00  0.00    -0.058 A 
ATOM     25  C   UNL A   1      37.743 -18.102 -32.611  0.00  0.00    -0.060 A 
ATOM     26  C   UNL A   1      39.120 -17.962 -32.751  0.00  0.00    -0.040 A 
ATOM     27  C   UNL A   1      39.937 -19.078 -32.987  0.00  0.00    +0.035 A 
ATOM     28  C   UNL A   1      39.343 -20.352 -33.144  0.00  0.00    -0.026 A 
ATOM     29  C   UNL A   1      40.204 -21.544 -33.483  0.00  0.00    -0.038 C 
ENDBRANCH  20  27
ENDBRANCH  14  20
ENDBRANCH  10  19
ENDBRANCH   9  12
ENDBRANCH   8   9
ENDBRANCH   7   8
ENDBRANCH   6   7
ENDBRANCH   5   6
ENDBRANCH   1   5
BRANCH   3  30
ATOM     30  C   UNL A   1      38.322 -15.416 -38.801  0.00  0.00    +0.012 C 
BRANCH  30  31
ATOM     31  C   UNL A   1      39.379 -15.738 -39.859  0.00  0.00    -0.037 C 
BRANCH  31  32
ATOM     32  C   UNL A   1      40.788 -15.881 -39.275  0.00  0.00    -0.052 C 
BRANCH  32  33
ATOM     33  C   UNL A   1      41.339 -17.295 -39.469  0.00  0.00    -0.053 C 
BRANCH  33  34
ATOM     34  C   UNL A   1      42.746 -17.259 -40.068  0.00  0.00    -0.053 C 
BRANCH  34  35
ATOM     35  C   UNL A   1      43.154 -15.839 -40.465  0.00  0.00    -0.052 C 
BRANCH  35  36
ATOM     36  C   UNL A   1      44.591 -15.805 -40.986  0.00  0.00    -0.037 C 
BRANCH  36  37
ATOM     37  C   UNL A   1      45.604 -16.025 -39.862  0.00  0.00    +0.009 C 
BRANCH  37  38
ATOM     38  N   UNL A   1      46.545 -17.077 -40.272  0.00  0.00    -0.343 N 
ATOM     39  H   UNL A   1      47.301 -16.931 -40.884  0.00  0.00    +0.000 HD
BRANCH  38  40
ATOM     40  C   UNL A   1      46.232 -18.335 -39.677  0.00  0.00    +0.041 A 
ATOM     41  C   UNL A   1      45.701 -19.385 -40.453  0.00  0.00    -0.005 A 
ATOM     42  C   UNL A   1      45.468 -20.607 -39.815  0.00  0.00    +0.047 A 
ATOM     43  N   UNL A   1      45.777 -20.839 -38.517  0.00  0.00    -0.251 NA
ATOM     44  C   UNL A   1      46.294 -19.844 -37.784  0.00  0.00    +0.073 A 
ATOM     45  C   UNL A   1      46.590 -20.095 -36.449  0.00  0.00    -0.036 A 
ATOM     46  C   UNL A   1      47.115 -19.111 -35.609  0.00  0.00    -0.060 A 
ATOM     47  C   UNL A   1      47.347 -17.838 -36.107  0.00  0.00    -0.061 A 
ATOM     48  C   UNL A   1      47.059 -17.565 -37.444  0.00  0.00    -0.051 A 
ATOM     49  C   UNL A   1      46.542 -18.561 -38.307  0.00  0.00    +0.021 A 
ATOM     50  C   UNL A   1      44.905 -21.795 -40.552  0.00  0.00    -0.010 C 
ATOM     51  C   UNL A   1      44.171 -21.417 -41.833  0.00  0.00    -0.047 C 
ATOM     52  C   UNL A   1      45.040 -20.485 -42.663  0.00  0.00    -0.049 C 
ATOM     53  C   UNL A   1      45.314 -19.188 -41.901  0.00  0.00    -0.024 C 
ENDBRANCH  38  40
ENDBRANCH  37  38
ENDBRANCH  36  37
ENDBRANCH  35  36
ENDBRANCH  34  35
ENDBRANCH  33  34
ENDBRANCH  32  33
ENDBRANCH  31  32
ENDBRANCH  30  31
ENDBRANCH   3  30
TORSDOF 19
ENDMDL
MODEL 7
REMARK VINA RESULT:    -6.150      1.910      7.793
REMARK INTER + INTRA:         -19.194
REMARK INTER:                 -12.514
REMARK INTRA:                  -6.680
REMARK UNBOUND:                -6.213
REMARK  Name = cpd44.pdb
REMARK  21 active torsions:
REMARK  status: ('A' for Active; 'I' for Inactive)
REMARK    1  A    between atoms: C_1  and  C_2
REMARK    2  A    between atoms: C_6  and  N_7
REMARK    3  A    between atoms: N_7  and  C_8
REMARK    4  A    between atoms: C_13  and  C_14
REMARK    5  A    between atoms: N_16  and  C_17
REMARK    6  A    between atoms: C_17  and  C_18
REMARK    7  A    between atoms: C_18  and  C_19
REMARK    8  A    between atoms: C_19  and  C_20
REMARK    9  A    between atoms: C_20  and  C_21
REMARK   10  A    between atoms: C_21  and  C_22
REMARK   11  A    between atoms: N_24  and  C_25
REMARK   12  A    between atoms: C_25  and  C_26
REMARK   13  A    between atoms: C_26  and  C_27
REMARK   14  A    between atoms: C_27  and  C_28
REMARK   15  A    between atoms: C_28  and  C_29
REMARK   16  A    between atoms: C_29  and  C_30
REMARK   17  A    between atoms: C_30  and  C_31
REMARK   18  A    between atoms: C_31  and  C_32
REMARK   19  A    between atoms: C_32  and  N_33
REMARK   20  A    between atoms: N_33  and  C_34
REMARK   21  A    between atoms: C_48  and  C_49
REMARK                            x       y       z     vdW  Elec       q    Type
REMARK                         _______ _______ _______ _____ _____    ______ ____
ROOT
ATOM      1  C   UNL A   1      37.922 -17.411 -37.687  0.00  0.00    +0.213 C 
ATOM      2  O   UNL A   1      37.245 -17.974 -38.541  0.00  0.00    -0.276 OA
ATOM      3  N   UNL A   1      38.537 -16.194 -37.875  0.00  0.00    -0.315 N 
ATOM      4  H   UNL A   1      39.017 -15.782 -37.121  0.00  0.00    +0.000 HD
ENDROOT
BRANCH   1   5
ATOM      5  C   UNL A   1      38.148 -18.019 -36.319  0.00  0.00    +0.024 C 
BRANCH   5   6
ATOM      6  C   UNL A   1      38.572 -19.481 -36.407  0.00  0.00    -0.045 C 
BRANCH   6   7
ATOM      7  C   UNL A   1      39.960 -19.698 -37.020  0.00  0.00    -0.051 C 
BRANCH   7   8
ATOM      8  C   UNL A   1      40.544 -21.098 -36.806  0.00  0.00    -0.037 C 
BRANCH   8   9
ATOM      9  C   UNL A   1      42.075 -21.108 -36.785  0.00  0.00    +0.012 C 
BRANCH   9  12
ATOM     10  C   UNL A   1      43.113 -20.185 -34.664  0.00  0.00    +0.246 C 
ATOM     11  O   UNL A   1      43.901 -20.440 -33.757  0.00  0.00    -0.270 OA
ATOM     12  N   UNL A   1      42.591 -21.201 -35.429  0.00  0.00    -0.311 N 
ATOM     13  H   UNL A   1      42.564 -22.092 -35.011  0.00  0.00    +0.000 HD
BRANCH  10  19
ATOM     14  C   UNL A   1      41.790 -18.114 -34.195  0.00  0.00    +0.044 A 
ATOM     15  C   UNL A   1      41.566 -16.753 -34.456  0.00  0.00    -0.040 A 
ATOM     16  C   UNL A   1      42.210 -16.102 -35.514  0.00  0.00    -0.060 A 
ATOM     17  C   UNL A   1      43.108 -16.797 -36.319  0.00  0.00    -0.061 A 
ATOM     18  C   UNL A   1      43.392 -18.133 -36.045  0.00  0.00    -0.048 A 
ATOM     19  C   UNL A   1      42.775 -18.774 -34.960  0.00  0.00    +0.058 A 
BRANCH  14  20
ATOM     20  N   UNL A   1      41.161 -18.759 -33.091  0.00  0.00    -0.314 N 
ATOM     21  H   UNL A   1      41.757 -19.183 -32.431  0.00  0.00    +0.000 HD
BRANCH  20  27
ATOM     22  C   UNL A   1      36.998 -21.522 -32.856  0.00  0.00    -0.039 C 
ATOM     23  C   UNL A   1      37.723 -20.204 -32.795  0.00  0.00    -0.046 A 
ATOM     24  C   UNL A   1      36.970 -19.031 -32.636  0.00  0.00    -0.058 A 
ATOM     25  C   UNL A   1      37.592 -17.786 -32.609  0.00  0.00    -0.060 A 
ATOM     26  C   UNL A   1      38.975 -17.700 -32.731  0.00  0.00    -0.040 A 
ATOM     27  C   UNL A   1      39.763 -18.856 -32.839  0.00  0.00    +0.035 A 
ATOM     28  C   UNL A   1      39.133 -20.122 -32.885  0.00  0.00    -0.026 A 
ATOM     29  C   UNL A   1      39.964 -21.365 -33.087  0.00  0.00    -0.038 C 
ENDBRANCH  20  27
ENDBRANCH  14  20
ENDBRANCH  10  19
ENDBRANCH   9  12
ENDBRANCH   8   9
ENDBRANCH   7   8
ENDBRANCH   6   7
ENDBRANCH   5   6
ENDBRANCH   1   5
BRANCH   3  30
ATOM     30  C   UNL A   1      38.502 -15.499 -39.146  0.00  0.00    +0.012 C 
BRANCH  30  31
ATOM     31  C   UNL A   1      39.668 -15.890 -40.057  0.00  0.00    -0.037 C 
BRANCH  31  32
ATOM     32  C   UNL A   1      40.985 -16.078 -39.298  0.00  0.00    -0.052 C 
BRANCH  32  33
ATOM     33  C   UNL A   1      41.562 -17.480 -39.509  0.00  0.00    -0.053 C 
BRANCH  33  34
ATOM     34  C   UNL A   1      42.976 -17.409 -40.089  0.00  0.00    -0.053 C 
BRANCH  34  35
ATOM     35  C   UNL A   1      43.455 -15.964 -40.232  0.00  0.00    -0.052 C 
BRANCH  35  36
ATOM     36  C   UNL A   1      44.878 -15.908 -40.792  0.00  0.00    -0.037 C 
BRANCH  36  37
ATOM     37  C   UNL A   1      45.923 -16.122 -39.696  0.00  0.00    +0.009 C 
BRANCH  37  38
ATOM     38  N   UNL A   1      46.848 -17.180 -40.125  0.00  0.00    -0.343 N 
ATOM     39  H   UNL A   1      47.602 -17.036 -40.742  0.00  0.00    +0.000 HD
BRANCH  38  40
ATOM     40  C   UNL A   1      46.524 -18.441 -39.544  0.00  0.00    +0.041 A 
ATOM     41  C   UNL A   1      46.679 -18.656 -38.159  0.00  0.00    -0.005 A 
ATOM     42  C   UNL A   1      46.292 -19.900 -37.650  0.00  0.00    +0.047 A 
ATOM     43  N   UNL A   1      45.734 -20.873 -38.408  0.00  0.00    -0.251 NA
ATOM     44  C   UNL A   1      45.575 -20.663 -39.722  0.00  0.00    +0.073 A 
ATOM     45  C   UNL A   1      45.015 -21.678 -40.488  0.00  0.00    -0.036 A 
ATOM     46  C   UNL A   1      44.829 -21.550 -41.866  0.00  0.00    -0.060 A 
ATOM     47  C   UNL A   1      45.218 -20.382 -42.503  0.00  0.00    -0.061 A 
ATOM     48  C   UNL A   1      45.780 -19.349 -41.754  0.00  0.00    -0.051 A 
ATOM     49  C   UNL A   1      45.956 -19.464 -40.354  0.00  0.00    +0.021 A 
ATOM     50  C   UNL A   1      46.414 -20.233 -36.185  0.00  0.00    -0.010 C 
ATOM     51  C   UNL A   1      47.413 -19.349 -35.447  0.00  0.00    -0.047 C 
ATOM     52  C   UNL A   1      47.135 -17.888 -35.765  0.00  0.00    -0.049 C 
ATOM     53  C   UNL A   1      47.315 -17.621 -37.259  0.00  0.00    -0.024 C 
ENDBRANCH  38  40
ENDBRANCH  37  38
ENDBRANCH  36  37
ENDBRANCH  35  36
ENDBRANCH  34  35
ENDBRANCH  33  34
ENDBRANCH  32  33
ENDBRANCH  31  32
ENDBRANCH  30  31
ENDBRANCH   3  30
TORSDOF 19
ENDMDL
MODEL 8
REMARK VINA RESULT:    -6.122      2.386      5.639
REMARK INTER + INTRA:         -19.135
REMARK INTER:                 -13.460
REMARK INTRA:                  -5.676
REMARK UNBOUND:                -6.213
REMARK  Name = cpd44.pdb
REMARK  21 active torsions:
REMARK  status: ('A' for Active; 'I' for Inactive)
REMARK    1  A    between atoms: C_1  and  C_2
REMARK    2  A    between atoms: C_6  and  N_7
REMARK    3  A    between atoms: N_7  and  C_8
REMARK    4  A    between atoms: C_13  and  C_14
REMARK    5  A    between atoms: N_16  and  C_17
REMARK    6  A    between atoms: C_17  and  C_18
REMARK    7  A    between atoms: C_18  and  C_19
REMARK    8  A    between atoms: C_19  and  C_20
REMARK    9  A    between atoms: C_20  and  C_21
REMARK   10  A    between atoms: C_21  and  C_22
REMARK   11  A    between atoms: N_24  and  C_25
REMARK   12  A    between atoms: C_25  and  C_26
REMARK   13  A    between atoms: C_26  and  C_27
REMARK   14  A    between atoms: C_27  and  C_28
REMARK   15  A    between atoms: C_28  and  C_29
REMARK   16  A    between atoms: C_29  and  C_30
REMARK   17  A    between atoms: C_30  and  C_31
REMARK   18  A    between atoms: C_31  and  C_32
REMARK   19  A    between atoms: C_32  and  N_33
REMARK   20  A    between atoms: N_33  and  C_34
REMARK   21  A    between atoms: C_48  and  C_49
REMARK                            x       y       z     vdW  Elec       q    Type
REMARK                         _______ _______ _______ _____ _____    ______ ____
ROOT
ATOM      1  C   UNL A   1      42.136 -14.969 -35.647  0.00  0.00    +0.213 C 
ATOM      2  O   UNL A   1      42.445 -14.176 -34.764  0.00  0.00    -0.276 OA
ATOM      3  N   UNL A   1      42.169 -14.673 -36.990  0.00  0.00    -0.315 N 
ATOM      4  H   UNL A   1      41.960 -15.383 -37.640  0.00  0.00    +0.000 HD
ENDROOT
BRANCH   1   5
ATOM      5  C   UNL A   1      41.679 -16.378 -35.331  0.00  0.00    +0.024 C 
BRANCH   5   6
ATOM      6  C   UNL A   1      41.747 -17.288 -36.552  0.00  0.00    -0.045 C 
BRANCH   6   7
ATOM      7  C   UNL A   1      43.026 -18.127 -36.641  0.00  0.00    -0.051 C 
BRANCH   7   8
ATOM      8  C   UNL A   1      43.431 -18.818 -35.334  0.00  0.00    -0.037 C 
BRANCH   8   9
ATOM      9  C   UNL A   1      44.134 -20.159 -35.563  0.00  0.00    +0.012 C 
BRANCH   9  12
ATOM     10  C   UNL A   1      46.608 -19.840 -35.115  0.00  0.00    +0.246 C 
ATOM     11  O   UNL A   1      47.597 -20.363 -34.605  0.00  0.00    -0.270 OA
ATOM     12  N   UNL A   1      45.349 -20.269 -34.771  0.00  0.00    -0.311 N 
ATOM     13  H   UNL A   1      45.259 -20.699 -33.890  0.00  0.00    +0.000 HD
BRANCH  10  19
ATOM     14  C   UNL A   1      46.984 -19.148 -37.489  0.00  0.00    +0.044 A 
ATOM     15  C   UNL A   1      47.065 -18.113 -38.435  0.00  0.00    -0.040 A 
ATOM     16  C   UNL A   1      47.071 -16.771 -38.042  0.00  0.00    -0.060 A 
ATOM     17  C   UNL A   1      46.975 -16.436 -36.694  0.00  0.00    -0.061 A 
ATOM     18  C   UNL A   1      46.835 -17.442 -35.740  0.00  0.00    -0.048 A 
ATOM     19  C   UNL A   1      46.790 -18.787 -36.139  0.00  0.00    +0.058 A 
BRANCH  14  20
ATOM     20  N   UNL A   1      46.938 -20.511 -37.901  0.00  0.00    -0.314 N 
ATOM     21  H   UNL A   1      47.484 -21.145 -37.383  0.00  0.00    +0.000 HD
BRANCH  20  27
ATOM     22  C   UNL A   1      46.782 -23.074 -42.194  0.00  0.00    -0.039 C 
ATOM     23  C   UNL A   1      46.133 -22.250 -41.114  0.00  0.00    -0.046 A 
ATOM     24  C   UNL A   1      44.786 -21.887 -41.265  0.00  0.00    -0.058 A 
ATOM     25  C   UNL A   1      44.152 -21.096 -40.312  0.00  0.00    -0.060 A 
ATOM     26  C   UNL A   1      44.853 -20.667 -39.190  0.00  0.00    -0.040 A 
ATOM     27  C   UNL A   1      46.186 -21.054 -38.982  0.00  0.00    +0.035 A 
ATOM     28  C   UNL A   1      46.840 -21.843 -39.958  0.00  0.00    -0.026 A 
ATOM     29  C   UNL A   1      48.297 -22.193 -39.784  0.00  0.00    -0.038 C 
ENDBRANCH  20  27
ENDBRANCH  14  20
ENDBRANCH  10  19
ENDBRANCH   9  12
ENDBRANCH   8   9
ENDBRANCH   7   8
ENDBRANCH   6   7
ENDBRANCH   5   6
ENDBRANCH   1   5
BRANCH   3  30
ATOM     30  C   UNL A   1      42.502 -13.351 -37.483  0.00  0.00    +0.012 C 
BRANCH  30  31
ATOM     31  C   UNL A   1      42.028 -13.128 -38.920  0.00  0.00    -0.037 C 
BRANCH  31  32
ATOM     32  C   UNL A   1      41.749 -14.434 -39.670  0.00  0.00    -0.052 C 
BRANCH  32  33
ATOM     33  C   UNL A   1      40.468 -14.345 -40.503  0.00  0.00    -0.053 C 
BRANCH  33  34
ATOM     34  C   UNL A   1      39.378 -15.254 -39.932  0.00  0.00    -0.053 C 
BRANCH  34  35
ATOM     35  C   UNL A   1      39.923 -16.641 -39.590  0.00  0.00    -0.052 C 
BRANCH  35  36
ATOM     36  C   UNL A   1      38.792 -17.666 -39.483  0.00  0.00    -0.037 C 
BRANCH  36  37
ATOM     37  C   UNL A   1      38.130 -17.632 -38.105  0.00  0.00    +0.009 C 
BRANCH  37  38
ATOM     38  N   UNL A   1      37.798 -19.007 -37.707  0.00  0.00    -0.343 N 
ATOM     39  H   UNL A   1      36.992 -19.487 -38.005  0.00  0.00    +0.000 HD
BRANCH  38  40
ATOM     40  C   UNL A   1      38.781 -19.564 -36.837  0.00  0.00    +0.041 A 
ATOM     41  C   UNL A   1      38.807 -19.224 -35.469  0.00  0.00    -0.005 A 
ATOM     42  C   UNL A   1      39.766 -19.849 -34.665  0.00  0.00    +0.047 A 
ATOM     43  N   UNL A   1      40.622 -20.792 -35.125  0.00  0.00    -0.251 NA
ATOM     44  C   UNL A   1      40.588 -21.124 -36.422  0.00  0.00    +0.073 A 
ATOM     45  C   UNL A   1      41.484 -22.082 -36.880  0.00  0.00    -0.036 A 
ATOM     46  C   UNL A   1      41.528 -22.475 -38.220  0.00  0.00    -0.060 A 
ATOM     47  C   UNL A   1      40.662 -21.894 -39.132  0.00  0.00    -0.061 A 
ATOM     48  C   UNL A   1      39.753 -20.931 -38.694  0.00  0.00    -0.051 A 
ATOM     49  C   UNL A   1      39.689 -20.540 -37.335  0.00  0.00    +0.021 A 
ATOM     50  C   UNL A   1      39.879 -19.559 -33.190  0.00  0.00    -0.010 C 
ATOM     51  C   UNL A   1      39.249 -18.231 -32.787  0.00  0.00    -0.047 C 
ATOM     52  C   UNL A   1      37.846 -18.134 -33.367  0.00  0.00    -0.049 C 
ATOM     53  C   UNL A   1      37.895 -18.165 -34.894  0.00  0.00    -0.024 C 
ENDBRANCH  38  40
ENDBRANCH  37  38
ENDBRANCH  36  37
ENDBRANCH  35  36
ENDBRANCH  34  35
ENDBRANCH  33  34
ENDBRANCH  32  33
ENDBRANCH  31  32
ENDBRANCH  30  31
ENDBRANCH   3  30
TORSDOF 19
ENDMDL
MODEL 9
REMARK VINA RESULT:    -6.107      2.125      6.947
REMARK INTER + INTRA:         -19.102
REMARK INTER:                 -12.216
REMARK INTRA:                  -6.887
REMARK UNBOUND:                -6.213
REMARK  Name = cpd44.pdb
REMARK  21 active torsions:
REMARK  status: ('A' for Active; 'I' for Inactive)
REMARK    1  A    between atoms: C_1  and  C_2
REMARK    2  A    between atoms: C_6  and  N_7
REMARK    3  A    between atoms: N_7  and  C_8
REMARK    4  A    between atoms: C_13  and  C_14
REMARK    5  A    between atoms: N_16  and  C_17
REMARK    6  A    between atoms: C_17  and  C_18
REMARK    7  A    between atoms: C_18  and  C_19
REMARK    8  A    between atoms: C_19  and  C_20
REMARK    9  A    between atoms: C_20  and  C_21
REMARK   10  A    between atoms: C_21  and  C_22
REMARK   11  A    between atoms: N_24  and  C_25
REMARK   12  A    between atoms: C_25  and  C_26
REMARK   13  A    between atoms: C_26  and  C_27
REMARK   14  A    between atoms: C_27  and  C_28
REMARK   15  A    between atoms: C_28  and  C_29
REMARK   16  A    between atoms: C_29  and  C_30
REMARK   17  A    between atoms: C_30  and  C_31
REMARK   18  A    between atoms: C_31  and  C_32
REMARK   19  A    between atoms: C_32  and  N_33
REMARK   20  A    between atoms: N_33  and  C_34
REMARK   21  A    between atoms: C_48  and  C_49
REMARK                            x       y       z     vdW  Elec       q    Type
REMARK                         _______ _______ _______ _____ _____    ______ ____
ROOT
ATOM      1  C   UNL A   1      39.915 -15.529 -38.532  0.00  0.00    +0.213 C 
ATOM      2  O   UNL A   1      39.257 -16.363 -39.145  0.00  0.00    -0.276 OA
ATOM      3  N   UNL A   1      40.905 -14.762 -39.104  0.00  0.00    -0.315 N 
ATOM      4  H   UNL A   1      41.350 -14.075 -38.557  0.00  0.00    +0.000 HD
ENDROOT
BRANCH   1   5
ATOM      5  C   UNL A   1      39.696 -15.265 -37.057  0.00  0.00    +0.024 C 
BRANCH   5   6
ATOM      6  C   UNL A   1      38.463 -15.989 -36.525  0.00  0.00    -0.045 C 
BRANCH   6   7
ATOM      7  C   UNL A   1      38.734 -16.883 -35.311  0.00  0.00    -0.051 C 
BRANCH   7   8
ATOM      8  C   UNL A   1      38.668 -18.388 -35.595  0.00  0.00    -0.037 C 
BRANCH   8   9
ATOM      9  C   UNL A   1      39.959 -18.935 -36.209  0.00  0.00    +0.012 C 
BRANCH   9  12
ATOM     10  C   UNL A   1      40.907 -21.248 -35.788  0.00  0.00    +0.246 C 
ATOM     11  O   UNL A   1      40.955 -22.163 -34.969  0.00  0.00    -0.270 OA
ATOM     12  N   UNL A   1      40.539 -19.985 -35.388  0.00  0.00    -0.311 N 
ATOM     13  H   UNL A   1      40.684 -19.768 -34.438  0.00  0.00    +0.000 HD
BRANCH  10  19
ATOM     14  C   UNL A   1      42.431 -21.137 -37.768  0.00  0.00    +0.044 A 
ATOM     15  C   UNL A   1      42.692 -21.502 -39.099  0.00  0.00    -0.040 A 
ATOM     16  C   UNL A   1      41.718 -22.129 -39.883  0.00  0.00    -0.060 A 
ATOM     17  C   UNL A   1      40.468 -22.422 -39.343  0.00  0.00    -0.061 A 
ATOM     18  C   UNL A   1      40.204 -22.123 -38.009  0.00  0.00    -0.048 A 
ATOM     19  C   UNL A   1      41.195 -21.530 -37.212  0.00  0.00    +0.058 A 
BRANCH  14  20
ATOM     20  N   UNL A   1      43.442 -20.535 -36.965  0.00  0.00    -0.314 N 
ATOM     21  H   UNL A   1      44.110 -21.142 -36.571  0.00  0.00    +0.000 HD
BRANCH  20  27
ATOM     22  C   UNL A   1      44.212 -16.889 -33.628  0.00  0.00    -0.039 C 
ATOM     23  C   UNL A   1      43.899 -17.373 -35.019  0.00  0.00    -0.046 A 
ATOM     24  C   UNL A   1      43.599 -16.424 -36.007  0.00  0.00    -0.058 A 
ATOM     25  C   UNL A   1      43.269 -16.824 -37.299  0.00  0.00    -0.060 A 
ATOM     26  C   UNL A   1      43.245 -18.177 -37.620  0.00  0.00    -0.040 A 
ATOM     27  C   UNL A   1      43.590 -19.150 -36.670  0.00  0.00    +0.035 A 
ATOM     28  C   UNL A   1      43.909 -18.749 -35.351  0.00  0.00    -0.026 A 
ATOM     29  C   UNL A   1      44.199 -19.792 -34.300  0.00  0.00    -0.038 C 
ENDBRANCH  20  27
ENDBRANCH  14  20
ENDBRANCH  10  19
ENDBRANCH   9  12
ENDBRANCH   8   9
ENDBRANCH   7   8
ENDBRANCH   6   7
ENDBRANCH   5   6
ENDBRANCH   1   5
BRANCH   3  30
ATOM     30  C   UNL A   1      41.314 -14.931 -40.484  0.00  0.00    +0.012 C 
BRANCH  30  31
ATOM     31  C   UNL A   1      42.405 -15.992 -40.643  0.00  0.00    -0.037 C 
BRANCH  31  32
ATOM     32  C   UNL A   1      43.445 -15.627 -41.707  0.00  0.00    -0.052 C 
BRANCH  32  33
ATOM     33  C   UNL A   1      43.815 -14.143 -41.650  0.00  0.00    -0.053 C 
BRANCH  33  34
ATOM     34  C   UNL A   1      45.333 -13.955 -41.681  0.00  0.00    -0.053 C 
BRANCH  34  35
ATOM     35  C   UNL A   1      45.998 -14.529 -40.429  0.00  0.00    -0.052 C 
BRANCH  35  36
ATOM     36  C   UNL A   1      47.371 -15.118 -40.757  0.00  0.00    -0.037 C 
BRANCH  36  37
ATOM     37  C   UNL A   1      47.338 -16.647 -40.770  0.00  0.00    +0.009 C 
BRANCH  37  38
ATOM     38  N   UNL A   1      46.161 -17.101 -40.016  0.00  0.00    -0.343 N 
ATOM     39  H   UNL A   1      45.304 -16.616 -39.990  0.00  0.00    +0.000 HD
BRANCH  38  40
ATOM     40  C   UNL A   1      46.405 -18.325 -39.327  0.00  0.00    +0.041 A 
ATOM     41  C   UNL A   1      46.818 -18.322 -37.979  0.00  0.00    -0.005 A 
ATOM     42  C   UNL A   1      46.988 -19.561 -37.353  0.00  0.00    +0.047 A 
ATOM     43  N   UNL A   1      46.726 -20.743 -37.958  0.00  0.00    -0.251 NA
ATOM     44  C   UNL A   1      46.321 -20.744 -39.235  0.00  0.00    +0.073 A 
ATOM     45  C   UNL A   1      46.072 -21.967 -39.845  0.00  0.00    -0.036 A 
ATOM     46  C   UNL A   1      45.663 -22.061 -41.178  0.00  0.00    -0.060 A 
ATOM     47  C   UNL A   1      45.505 -20.906 -41.928  0.00  0.00    -0.061 A 
ATOM     48  C   UNL A   1      45.748 -19.667 -41.334  0.00  0.00    -0.051 A 
ATOM     49  C   UNL A   1      46.145 -19.562 -39.980  0.00  0.00    +0.021 A 
ATOM     50  C   UNL A   1      47.424 -19.671 -35.914  0.00  0.00    -0.010 C 
ATOM     51  C   UNL A   1      48.121 -18.418 -35.398  0.00  0.00    -0.047 C 
ATOM     52  C   UNL A   1      47.286 -17.192 -35.736  0.00  0.00    -0.049 C 
ATOM     53  C   UNL A   1      47.148 -17.040 -37.250  0.00  0.00    -0.024 C 
ENDBRANCH  38  40
ENDBRANCH  37  38
ENDBRANCH  36  37
ENDBRANCH  35  36
ENDBRANCH  34  35
ENDBRANCH  33  34
ENDBRANCH  32  33
ENDBRANCH  31  32
ENDBRANCH  30  31
ENDBRANCH   3  30
TORSDOF 19
ENDMDL
MODEL 10
REMARK VINA RESULT:    -6.073      2.093      3.846
REMARK INTER + INTRA:         -19.030
REMARK INTER:                 -12.723
REMARK INTRA:                  -6.308
REMARK UNBOUND:                -6.213
REMARK  Name = cpd44.pdb
REMARK  21 active torsions:
REMARK  status: ('A' for Active; 'I' for Inactive)
REMARK    1  A    between atoms: C_1  and  C_2
REMARK    2  A    between atoms: C_6  and  N_7
REMARK    3  A    between atoms: N_7  and  C_8
REMARK    4  A    between atoms: C_13  and  C_14
REMARK    5  A    between atoms: N_16  and  C_17
REMARK    6  A    between atoms: C_17  and  C_18
REMARK    7  A    between atoms: C_18  and  C_19
REMARK    8  A    between atoms: C_19  and  C_20
REMARK    9  A    between atoms: C_20  and  C_21
REMARK   10  A    between atoms: C_21  and  C_22
REMARK   11  A    between atoms: N_24  and  C_25
REMARK   12  A    between atoms: C_25  and  C_26
REMARK   13  A    between atoms: C_26  and  C_27
REMARK   14  A    between atoms: C_27  and  C_28
REMARK   15  A    between atoms: C_28  and  C_29
REMARK   16  A    between atoms: C_29  and  C_30
REMARK   17  A    between atoms: C_30  and  C_31
REMARK   18  A    between atoms: C_31  and  C_32
REMARK   19  A    between atoms: C_32  and  N_33
REMARK   20  A    between atoms: N_33  and  C_34
REMARK   21  A    between atoms: C_48  and  C_49
REMARK                            x       y       z     vdW  Elec       q    Type
REMARK                         _______ _______ _______ _____ _____    ______ ____
ROOT
ATOM      1  C   UNL A   1      41.310 -14.895 -36.508  0.00  0.00    +0.213 C 
ATOM      2  O   UNL A   1      40.453 -14.044 -36.293  0.00  0.00    -0.276 OA
ATOM      3  N   UNL A   1      42.292 -15.237 -35.607  0.00  0.00    -0.315 N 
ATOM      4  H   UNL A   1      42.910 -15.970 -35.833  0.00  0.00    +0.000 HD
ENDROOT
BRANCH   1   5
ATOM      5  C   UNL A   1      41.366 -15.661 -37.813  0.00  0.00    +0.024 C 
BRANCH   5   6
ATOM      6  C   UNL A   1      41.682 -17.137 -37.595  0.00  0.00    -0.045 C 
BRANCH   6   7
ATOM      7  C   UNL A   1      42.729 -17.705 -38.558  0.00  0.00    -0.051 C 
BRANCH   7   8
ATOM      8  C   UNL A   1      43.060 -19.186 -38.344  0.00  0.00    -0.037 C 
BRANCH   8   9
ATOM      9  C   UNL A   1      43.377 -19.919 -39.650  0.00  0.00    +0.012 C 
BRANCH   9  12
ATOM     10  C   UNL A   1      45.355 -19.179 -41.052  0.00  0.00    +0.246 C 
ATOM     11  O   UNL A   1      45.957 -18.193 -41.469  0.00  0.00    -0.270 OA
ATOM     12  N   UNL A   1      44.064 -19.055 -40.597  0.00  0.00    -0.311 N 
ATOM     13  H   UNL A   1      43.548 -18.296 -40.951  0.00  0.00    +0.000 HD
BRANCH  10  19
ATOM     14  C   UNL A   1      47.049 -20.705 -40.022  0.00  0.00    +0.044 A 
ATOM     15  C   UNL A   1      47.618 -21.987 -39.952  0.00  0.00    -0.040 A 
ATOM     16  C   UNL A   1      47.293 -22.977 -40.884  0.00  0.00    -0.060 A 
ATOM     17  C   UNL A   1      46.374 -22.710 -41.895  0.00  0.00    -0.061 A 
ATOM     18  C   UNL A   1      45.752 -21.465 -41.954  0.00  0.00    -0.048 A 
ATOM     19  C   UNL A   1      46.049 -20.485 -40.994  0.00  0.00    +0.058 A 
BRANCH  14  20
ATOM     20  N   UNL A   1      47.356 -19.715 -39.045  0.00  0.00    -0.314 N 
ATOM     21  H   UNL A   1      48.145 -19.153 -39.221  0.00  0.00    +0.000 HD
BRANCH  20  27
ATOM     22  C   UNL A   1      45.716 -16.456 -35.623  0.00  0.00    -0.039 C 
ATOM     23  C   UNL A   1      45.907 -17.857 -36.138  0.00  0.00    -0.046 A 
ATOM     24  C   UNL A   1      45.503 -18.930 -35.330  0.00  0.00    -0.058 A 
ATOM     25  C   UNL A   1      45.691 -20.244 -35.748  0.00  0.00    -0.060 A 
ATOM     26  C   UNL A   1      46.276 -20.501 -36.984  0.00  0.00    -0.040 A 
ATOM     27  C   UNL A   1      46.644 -19.451 -37.840  0.00  0.00    +0.035 A 
ATOM     28  C   UNL A   1      46.471 -18.114 -37.411  0.00  0.00    -0.026 A 
ATOM     29  C   UNL A   1      46.942 -16.980 -38.287  0.00  0.00    -0.038 C 
ENDBRANCH  20  27
ENDBRANCH  14  20
ENDBRANCH  10  19
ENDBRANCH   9  12
ENDBRANCH   8   9
ENDBRANCH   7   8
ENDBRANCH   6   7
ENDBRANCH   5   6
ENDBRANCH   1   5
BRANCH   3  30
ATOM     30  C   UNL A   1      42.450 -14.556 -34.338  0.00  0.00    +0.012 C 
BRANCH  30  31
ATOM     31  C   UNL A   1      42.302 -15.502 -33.145  0.00  0.00    -0.037 C 
BRANCH  31  32
ATOM     32  C   UNL A   1      42.641 -16.956 -33.487  0.00  0.00    -0.052 C 
BRANCH  32  33
ATOM     33  C   UNL A   1      41.539 -17.915 -33.031  0.00  0.00    -0.053 C 
BRANCH  33  34
ATOM     34  C   UNL A   1      41.104 -18.834 -34.174  0.00  0.00    -0.053 C 
BRANCH  34  35
ATOM     35  C   UNL A   1      42.189 -19.854 -34.522  0.00  0.00    -0.052 C 
BRANCH  35  36
ATOM     36  C   UNL A   1      41.661 -20.909 -35.496  0.00  0.00    -0.037 C 
BRANCH  36  37
ATOM     37  C   UNL A   1      40.573 -21.772 -34.855  0.00  0.00    +0.009 C 
BRANCH  37  38
ATOM     38  N   UNL A   1      39.494 -21.975 -35.832  0.00  0.00    -0.343 N 
ATOM     39  H   UNL A   1      39.357 -22.810 -36.335  0.00  0.00    +0.000 HD
BRANCH  38  40
ATOM     40  C   UNL A   1      38.670 -20.819 -35.967  0.00  0.00    +0.041 A 
ATOM     41  C   UNL A   1      38.659 -20.079 -37.167  0.00  0.00    -0.005 A 
ATOM     42  C   UNL A   1      37.787 -18.989 -37.246  0.00  0.00    +0.047 A 
ATOM     43  N   UNL A   1      36.928 -18.650 -36.257  0.00  0.00    -0.251 NA
ATOM     44  C   UNL A   1      36.930 -19.362 -35.122  0.00  0.00    +0.073 A 
ATOM     45  C   UNL A   1      36.052 -18.990 -34.110  0.00  0.00    -0.036 A 
ATOM     46  C   UNL A   1      36.000 -19.666 -32.889  0.00  0.00    -0.060 A 
ATOM     47  C   UNL A   1      36.850 -20.738 -32.663  0.00  0.00    -0.061 A 
ATOM     48  C   UNL A   1      37.738 -21.129 -33.666  0.00  0.00    -0.051 A 
ATOM     49  C   UNL A   1      37.785 -20.460 -34.913  0.00  0.00    +0.021 A 
ATOM     50  C   UNL A   1      37.695 -18.133 -38.483  0.00  0.00    -0.010 C 
ATOM     51  C   UNL A   1      38.924 -18.233 -39.379  0.00  0.00    -0.047 C 
ATOM     52  C   UNL A   1      39.263 -19.696 -39.620  0.00  0.00    -0.049 C 
ATOM     53  C   UNL A   1      39.607 -20.390 -38.303  0.00  0.00    -0.024 C 
ENDBRANCH  38  40
ENDBRANCH  37  38
ENDBRANCH  36  37
ENDBRANCH  35  36
ENDBRANCH  34  35
ENDBRANCH  33  34
ENDBRANCH  32  33
ENDBRANCH  31  32
ENDBRANCH  30  31
ENDBRANCH   3  30
TORSDOF 19
ENDMDL
MODEL 11
REMARK VINA RESULT:    -6.070      1.771      2.962
REMARK INTER + INTRA:         -19.024
REMARK INTER:                 -12.598
REMARK INTRA:                  -6.427
REMARK UNBOUND:                -6.213
REMARK  Name = cpd44.pdb
REMARK  21 active torsions:
REMARK  status: ('A' for Active; 'I' for Inactive)
REMARK    1  A    between atoms: C_1  and  C_2
REMARK    2  A    between atoms: C_6  and  N_7
REMARK    3  A    between atoms: N_7  and  C_8
REMARK    4  A    between atoms: C_13  and  C_14
REMARK    5  A    between atoms: N_16  and  C_17
REMARK    6  A    between atoms: C_17  and  C_18
REMARK    7  A    between atoms: C_18  and  C_19
REMARK    8  A    between atoms: C_19  and  C_20
REMARK    9  A    between atoms: C_20  and  C_21
REMARK   10  A    between atoms: C_21  and  C_22
REMARK   11  A    between atoms: N_24  and  C_25
REMARK   12  A    between atoms: C_25  and  C_26
REMARK   13  A    between atoms: C_26  and  C_27
REMARK   14  A    between atoms: C_27  and  C_28
REMARK   15  A    between atoms: C_28  and  C_29
REMARK   16  A    between atoms: C_29  and  C_30
REMARK   17  A    between atoms: C_30  and  C_31
REMARK   18  A    between atoms: C_31  and  C_32
REMARK   19  A    between atoms: C_32  and  N_33
REMARK   20  A    between atoms: N_33  and  C_34
REMARK   21  A    between atoms: C_48  and  C_49
REMARK                            x       y       z     vdW  Elec       q    Type
REMARK                         _______ _______ _______ _____ _____    ______ ____
ROOT
ATOM      1  C   UNL A   1      38.889 -15.725 -38.617  0.00  0.00    +0.213 C 
ATOM      2  O   UNL A   1      37.830 -15.164 -38.874  0.00  0.00    -0.276 OA
ATOM      3  N   UNL A   1      39.218 -16.208 -37.371  0.00  0.00    -0.315 N 
ATOM      4  H   UNL A   1      40.066 -16.697 -37.259  0.00  0.00    +0.000 HD
ENDROOT
BRANCH   1   5
ATOM      5  C   UNL A   1      39.956 -15.940 -39.670  0.00  0.00    +0.024 C 
BRANCH   5   6
ATOM      6  C   UNL A   1      41.285 -15.305 -39.275  0.00  0.00    -0.045 C 
BRANCH   6   7
ATOM      7  C   UNL A   1      42.488 -15.814 -40.074  0.00  0.00    -0.051 C 
BRANCH   7   8
ATOM      8  C   UNL A   1      43.494 -16.638 -39.263  0.00  0.00    -0.037 C 
BRANCH   8   9
ATOM      9  C   UNL A   1      43.621 -18.080 -39.761  0.00  0.00    +0.012 C 
BRANCH   9  12
ATOM     10  C   UNL A   1      44.119 -20.334 -38.712  0.00  0.00    +0.246 C 
ATOM     11  O   UNL A   1      43.741 -21.131 -37.856  0.00  0.00    -0.270 OA
ATOM     12  N   UNL A   1      43.711 -19.022 -38.656  0.00  0.00    -0.311 N 
ATOM     13  H   UNL A   1      43.451 -18.682 -37.770  0.00  0.00    +0.000 HD
BRANCH  10  19
ATOM     14  C   UNL A   1      46.371 -20.809 -39.689  0.00  0.00    +0.044 A 
ATOM     15  C   UNL A   1      47.129 -21.350 -40.740  0.00  0.00    -0.040 A 
ATOM     16  C   UNL A   1      46.525 -21.766 -41.930  0.00  0.00    -0.060 A 
ATOM     17  C   UNL A   1      45.145 -21.670 -42.084  0.00  0.00    -0.061 A 
ATOM     18  C   UNL A   1      44.363 -21.191 -41.035  0.00  0.00    -0.048 A 
ATOM     19  C   UNL A   1      44.967 -20.810 -39.827  0.00  0.00    +0.058 A 
BRANCH  14  20
ATOM     20  N   UNL A   1      46.991 -20.424 -38.464  0.00  0.00    -0.314 N 
ATOM     21  H   UNL A   1      47.442 -21.137 -37.957  0.00  0.00    +0.000 HD
BRANCH  20  27
ATOM     22  C   UNL A   1      46.332 -17.410 -34.527  0.00  0.00    -0.039 C 
ATOM     23  C   UNL A   1      46.635 -17.647 -35.982  0.00  0.00    -0.046 A 
ATOM     24  C   UNL A   1      46.806 -16.537 -36.822  0.00  0.00    -0.058 A 
ATOM     25  C   UNL A   1      47.052 -16.705 -38.181  0.00  0.00    -0.060 A 
ATOM     26  C   UNL A   1      47.140 -17.986 -38.716  0.00  0.00    -0.040 A 
ATOM     27  C   UNL A   1      47.026 -19.119 -37.896  0.00  0.00    +0.035 A 
ATOM     28  C   UNL A   1      46.758 -18.952 -36.517  0.00  0.00    -0.026 A 
ATOM     29  C   UNL A   1      46.549 -20.164 -35.642  0.00  0.00    -0.038 C 
ENDBRANCH  20  27
ENDBRANCH  14  20
ENDBRANCH  10  19
ENDBRANCH   9  12
ENDBRANCH   8   9
ENDBRANCH   7   8
ENDBRANCH   6   7
ENDBRANCH   5   6
ENDBRANCH   1   5
BRANCH   3  30
ATOM     30  C   UNL A   1      38.360 -16.023 -36.218  0.00  0.00    +0.012 C 
BRANCH  30  31
ATOM     31  C   UNL A   1      38.852 -16.798 -34.994  0.00  0.00    -0.037 C 
BRANCH  31  32
ATOM     32  C   UNL A   1      38.227 -18.192 -34.876  0.00  0.00    -0.052 C 
BRANCH  32  33
ATOM     33  C   UNL A   1      38.269 -18.708 -33.436  0.00  0.00    -0.053 C 
BRANCH  33  34
ATOM     34  C   UNL A   1      38.183 -20.235 -33.399  0.00  0.00    -0.053 C 
BRANCH  34  35
ATOM     35  C   UNL A   1      38.931 -20.813 -32.197  0.00  0.00    -0.052 C 
BRANCH  35  36
ATOM     36  C   UNL A   1      39.672 -22.097 -32.575  0.00  0.00    -0.037 C 
BRANCH  36  37
ATOM     37  C   UNL A   1      39.626 -22.350 -34.083  0.00  0.00    +0.009 C 
BRANCH  37  38
ATOM     38  N   UNL A   1      40.968 -22.130 -34.640  0.00  0.00    -0.343 N 
ATOM     39  H   UNL A   1      41.713 -22.768 -34.549  0.00  0.00    +0.000 HD
BRANCH  38  40
ATOM     40  C   UNL A   1      41.064 -20.885 -35.328  0.00  0.00    +0.041 A 
ATOM     41  C   UNL A   1      41.760 -19.799 -34.756  0.00  0.00    -0.005 A 
ATOM     42  C   UNL A   1      41.858 -18.626 -35.510  0.00  0.00    +0.047 A 
ATOM     43  N   UNL A   1      41.370 -18.505 -36.767  0.00  0.00    -0.251 NA
ATOM     44  C   UNL A   1      40.721 -19.542 -37.314  0.00  0.00    +0.073 A 
ATOM     45  C   UNL A   1      40.212 -19.396 -38.599  0.00  0.00    -0.036 A 
ATOM     46  C   UNL A   1      39.507 -20.419 -39.238  0.00  0.00    -0.060 A 
ATOM     47  C   UNL A   1      39.296 -21.619 -38.578  0.00  0.00    -0.061 A 
ATOM     48  C   UNL A   1      39.800 -21.788 -37.289  0.00  0.00    -0.051 A 
ATOM     49  C   UNL A   1      40.530 -20.763 -36.640  0.00  0.00    +0.021 A 
ATOM     50  C   UNL A   1      42.581 -17.408 -34.994  0.00  0.00    -0.010 C 
ATOM     51  C   UNL A   1      42.729 -17.391 -33.478  0.00  0.00    -0.047 C 
ATOM     52  C   UNL A   1      43.279 -18.728 -33.003  0.00  0.00    -0.049 C 
ATOM     53  C   UNL A   1      42.311 -19.859 -33.350  0.00  0.00    -0.024 C 
ENDBRANCH  38  40
ENDBRANCH  37  38
ENDBRANCH  36  37
ENDBRANCH  35  36
ENDBRANCH  34  35
ENDBRANCH  33  34
ENDBRANCH  32  33
ENDBRANCH  31  32
ENDBRANCH  30  31
ENDBRANCH   3  30
TORSDOF 19
ENDMDL
MODEL 12
REMARK VINA RESULT:    -6.031      2.171      6.005
REMARK INTER + INTRA:         -18.943
REMARK INTER:                 -12.872
REMARK INTRA:                  -6.070
REMARK UNBOUND:                -6.213
REMARK  Name = cpd44.pdb
REMARK  21 active torsions:
REMARK  status: ('A' for Active; 'I' for Inactive)
REMARK    1  A    between atoms: C_1  and  C_2
REMARK    2  A    between atoms: C_6  and  N_7
REMARK    3  A    between atoms: N_7  and  C_8
REMARK    4  A    between atoms: C_13  and  C_14
REMARK    5  A    between atoms: N_16  and  C_17
REMARK    6  A    between atoms: C_17  and  C_18
REMARK    7  A    between atoms: C_18  and  C_19
REMARK    8  A    between atoms: C_19  and  C_20
REMARK    9  A    between atoms: C_20  and  C_21
REMARK   10  A    between atoms: C_21  and  C_22
REMARK   11  A    between atoms: N_24  and  C_25
REMARK   12  A    between atoms: C_25  and  C_26
REMARK   13  A    between atoms: C_26  and  C_27
REMARK   14  A    between atoms: C_27  and  C_28
REMARK   15  A    between atoms: C_28  and  C_29
REMARK   16  A    between atoms: C_29  and  C_30
REMARK   17  A    between atoms: C_30  and  C_31
REMARK   18  A    between atoms: C_31  and  C_32
REMARK   19  A    between atoms: C_32  and  N_33
REMARK   20  A    between atoms: N_33  and  C_34
REMARK   21  A    between atoms: C_48  and  C_49
REMARK                            x       y       z     vdW  Elec       q    Type
REMARK                         _______ _______ _______ _____ _____    ______ ____
ROOT
ATOM      1  C   UNL A   1      41.123 -16.397 -34.034  0.00  0.00    +0.213 C 
ATOM      2  O   UNL A   1      40.074 -16.015 -34.541  0.00  0.00    -0.276 OA
ATOM      3  N   UNL A   1      42.370 -16.025 -34.481  0.00  0.00    -0.315 N 
ATOM      4  H   UNL A   1      43.164 -16.331 -33.984  0.00  0.00    +0.000 HD
ENDROOT
BRANCH   1   5
ATOM      5  C   UNL A   1      41.140 -17.334 -32.844  0.00  0.00    +0.024 C 
BRANCH   5   6
ATOM      6  C   UNL A   1      40.791 -18.765 -33.240  0.00  0.00    -0.045 C 
BRANCH   6   7
ATOM      7  C   UNL A   1      41.435 -19.231 -34.550  0.00  0.00    -0.051 C 
BRANCH   7   8
ATOM      8  C   UNL A   1      42.727 -20.038 -34.378  0.00  0.00    -0.037 C 
BRANCH   8   9
ATOM      9  C   UNL A   1      43.935 -19.376 -35.045  0.00  0.00    +0.012 C 
BRANCH   9  12
ATOM     10  C   UNL A   1      46.454 -19.614 -34.882  0.00  0.00    +0.246 C 
ATOM     11  O   UNL A   1      47.353 -20.339 -34.463  0.00  0.00    -0.270 OA
ATOM     12  N   UNL A   1      45.178 -19.745 -34.386  0.00  0.00    -0.311 N 
ATOM     13  H   UNL A   1      45.098 -20.131 -33.484  0.00  0.00    +0.000 HD
BRANCH  10  19
ATOM     14  C   UNL A   1      46.800 -19.079 -37.301  0.00  0.00    +0.044 A 
ATOM     15  C   UNL A   1      46.994 -18.107 -38.295  0.00  0.00    -0.040 A 
ATOM     16  C   UNL A   1      47.241 -16.771 -37.964  0.00  0.00    -0.060 A 
ATOM     17  C   UNL A   1      47.277 -16.377 -36.629  0.00  0.00    -0.061 A 
ATOM     18  C   UNL A   1      47.031 -17.310 -35.625  0.00  0.00    -0.048 A 
ATOM     19  C   UNL A   1      46.744 -18.643 -35.960  0.00  0.00    +0.058 A 
BRANCH  14  20
ATOM     20  N   UNL A   1      46.510 -20.431 -37.648  0.00  0.00    -0.314 N 
ATOM     21  H   UNL A   1      46.457 -21.074 -36.904  0.00  0.00    +0.000 HD
BRANCH  20  27
ATOM     22  C   UNL A   1      43.386 -21.448 -41.419  0.00  0.00    -0.039 C 
ATOM     23  C   UNL A   1      44.739 -21.505 -40.764  0.00  0.00    -0.046 A 
ATOM     24  C   UNL A   1      45.763 -22.223 -41.399  0.00  0.00    -0.058 A 
ATOM     25  C   UNL A   1      47.022 -22.333 -40.815  0.00  0.00    -0.060 A 
ATOM     26  C   UNL A   1      47.275 -21.720 -39.593  0.00  0.00    -0.040 A 
ATOM     27  C   UNL A   1      46.289 -20.951 -38.955  0.00  0.00    +0.035 A 
ATOM     28  C   UNL A   1      45.003 -20.850 -39.537  0.00  0.00    -0.026 A 
ATOM     29  C   UNL A   1      43.912 -20.097 -38.816  0.00  0.00    -0.038 C 
ENDBRANCH  20  27
ENDBRANCH  14  20
ENDBRANCH  10  19
ENDBRANCH   9  12
ENDBRANCH   8   9
ENDBRANCH   7   8
ENDBRANCH   6   7
ENDBRANCH   5   6
ENDBRANCH   1   5
BRANCH   3  30
ATOM     30  C   UNL A   1      42.556 -15.200 -35.657  0.00  0.00    +0.012 C 
BRANCH  30  31
ATOM     31  C   UNL A   1      43.817 -15.575 -36.439  0.00  0.00    -0.037 C 
BRANCH  31  32
ATOM     32  C   UNL A   1      43.555 -16.606 -37.541  0.00  0.00    -0.052 C 
BRANCH  32  33
ATOM     33  C   UNL A   1      43.654 -15.981 -38.934  0.00  0.00    -0.053 C 
BRANCH  33  34
ATOM     34  C   UNL A   1      42.427 -16.328 -39.779  0.00  0.00    -0.053 C 
BRANCH  34  35
ATOM     35  C   UNL A   1      41.130 -15.900 -39.093  0.00  0.00    -0.052 C 
BRANCH  35  36
ATOM     36  C   UNL A   1      40.103 -17.034 -39.098  0.00  0.00    -0.037 C 
BRANCH  36  37
ATOM     37  C   UNL A   1      39.389 -17.153 -37.751  0.00  0.00    +0.009 C 
BRANCH  37  38
ATOM     38  N   UNL A   1      38.279 -18.108 -37.888  0.00  0.00    -0.343 N 
ATOM     39  H   UNL A   1      37.511 -17.977 -38.490  0.00  0.00    +0.000 HD
BRANCH  38  40
ATOM     40  C   UNL A   1      38.447 -19.246 -37.046  0.00  0.00    +0.041 A 
ATOM     41  C   UNL A   1      37.860 -19.286 -35.765  0.00  0.00    -0.005 A 
ATOM     42  C   UNL A   1      38.022 -20.456 -35.016  0.00  0.00    +0.047 A 
ATOM     43  N   UNL A   1      38.662 -21.555 -35.481  0.00  0.00    -0.251 NA
ATOM     44  C   UNL A   1      39.208 -21.520 -36.704  0.00  0.00    +0.073 A 
ATOM     45  C   UNL A   1      39.874 -22.652 -37.159  0.00  0.00    -0.036 A 
ATOM     46  C   UNL A   1      40.487 -22.696 -38.414  0.00  0.00    -0.060 A 
ATOM     47  C   UNL A   1      40.442 -21.582 -39.237  0.00  0.00    -0.061 A 
ATOM     48  C   UNL A   1      39.777 -20.436 -38.800  0.00  0.00    -0.051 A 
ATOM     49  C   UNL A   1      39.138 -20.389 -37.538  0.00  0.00    +0.021 A 
ATOM     50  C   UNL A   1      37.434 -20.604 -33.636  0.00  0.00    -0.010 C 
ATOM     51  C   UNL A   1      37.120 -19.271 -32.968  0.00  0.00    -0.047 C 
ATOM     52  C   UNL A   1      36.328 -18.394 -33.925  0.00  0.00    -0.049 C 
ATOM     53  C   UNL A   1      37.151 -18.088 -35.176  0.00  0.00    -0.024 C 
ENDBRANCH  38  40
ENDBRANCH  37  38
ENDBRANCH  36  37
ENDBRANCH  35  36
ENDBRANCH  34  35
ENDBRANCH  33  34
ENDBRANCH  32  33
ENDBRANCH  31  32
ENDBRANCH  30  31
ENDBRANCH   3  30
TORSDOF 19
ENDMDL
MODEL 13
REMARK VINA RESULT:    -5.994      2.378      5.690
REMARK INTER + INTRA:         -18.864
REMARK INTER:                 -12.736
REMARK INTRA:                  -6.128
REMARK UNBOUND:                -6.213
REMARK  Name = cpd44.pdb
REMARK  21 active torsions:
REMARK  status: ('A' for Active; 'I' for Inactive)
REMARK    1  A    between atoms: C_1  and  C_2
REMARK    2  A    between atoms: C_6  and  N_7
REMARK    3  A    between atoms: N_7  and  C_8
REMARK    4  A    between atoms: C_13  and  C_14
REMARK    5  A    between atoms: N_16  and  C_17
REMARK    6  A    between atoms: C_17  and  C_18
REMARK    7  A    between atoms: C_18  and  C_19
REMARK    8  A    between atoms: C_19  and  C_20
REMARK    9  A    between atoms: C_20  and  C_21
REMARK   10  A    between atoms: C_21  and  C_22
REMARK   11  A    between atoms: N_24  and  C_25
REMARK   12  A    between atoms: C_25  and  C_26
REMARK   13  A    between atoms: C_26  and  C_27
REMARK   14  A    between atoms: C_27  and  C_28
REMARK   15  A    between atoms: C_28  and  C_29
REMARK   16  A    between atoms: C_29  and  C_30
REMARK   17  A    between atoms: C_30  and  C_31
REMARK   18  A    between atoms: C_31  and  C_32
REMARK   19  A    between atoms: C_32  and  N_33
REMARK   20  A    between atoms: N_33  and  C_34
REMARK   21  A    between atoms: C_48  and  C_49
REMARK                            x       y       z     vdW  Elec       q    Type
REMARK                         _______ _______ _______ _____ _____    ______ ____
ROOT
ATOM      1  C   UNL A   1      41.624 -15.996 -34.198  0.00  0.00    +0.213 C 
ATOM      2  O   UNL A   1      42.495 -16.167 -33.351  0.00  0.00    -0.276 OA
ATOM      3  N   UNL A   1      40.367 -16.552 -34.128  0.00  0.00    -0.315 N 
ATOM      4  H   UNL A   1      39.705 -16.321 -34.819  0.00  0.00    +0.000 HD
ENDROOT
BRANCH   1   5
ATOM      5  C   UNL A   1      41.859 -15.139 -35.424  0.00  0.00    +0.024 C 
BRANCH   5   6
ATOM      6  C   UNL A   1      43.330 -15.110 -35.826  0.00  0.00    -0.045 C 
BRANCH   6   7
ATOM      7  C   UNL A   1      43.706 -16.127 -36.909  0.00  0.00    -0.051 C 
BRANCH   7   8
ATOM      8  C   UNL A   1      45.144 -16.010 -37.427  0.00  0.00    -0.037 C 
BRANCH   8   9
ATOM      9  C   UNL A   1      46.188 -16.116 -36.313  0.00  0.00    +0.012 C 
BRANCH   9  12
ATOM     10  C   UNL A   1      46.985 -18.517 -36.161  0.00  0.00    +0.246 C 
ATOM     11  O   UNL A   1      47.983 -19.221 -36.017  0.00  0.00    -0.270 OA
ATOM     12  N   UNL A   1      47.119 -17.207 -36.553  0.00  0.00    -0.311 N 
ATOM     13  H   UNL A   1      47.938 -16.982 -37.052  0.00  0.00    +0.000 HD
BRANCH  10  19
ATOM     14  C   UNL A   1      44.974 -19.847 -36.826  0.00  0.00    +0.044 A 
ATOM     15  C   UNL A   1      43.749 -20.427 -36.460  0.00  0.00    -0.040 A 
ATOM     16  C   UNL A   1      43.161 -20.157 -35.220  0.00  0.00    -0.060 A 
ATOM     17  C   UNL A   1      43.799 -19.316 -34.312  0.00  0.00    -0.061 A 
ATOM     18  C   UNL A   1      45.042 -18.774 -34.627  0.00  0.00    -0.048 A 
ATOM     19  C   UNL A   1      45.650 -19.077 -35.856  0.00  0.00    +0.058 A 
BRANCH  14  20
ATOM     20  N   UNL A   1      45.585 -20.159 -38.075  0.00  0.00    -0.314 N 
ATOM     21  H   UNL A   1      46.493 -20.540 -38.037  0.00  0.00    +0.000 HD
BRANCH  20  27
ATOM     22  C   UNL A   1      45.155 -21.633 -42.835  0.00  0.00    -0.039 C 
ATOM     23  C   UNL A   1      44.877 -20.670 -41.713  0.00  0.00    -0.046 A 
ATOM     24  C   UNL A   1      44.173 -19.491 -41.999  0.00  0.00    -0.058 A 
ATOM     25  C   UNL A   1      43.921 -18.553 -41.002  0.00  0.00    -0.060 A 
ATOM     26  C   UNL A   1      44.363 -18.787 -39.704  0.00  0.00    -0.040 A 
ATOM     27  C   UNL A   1      45.025 -19.979 -39.371  0.00  0.00    +0.035 A 
ATOM     28  C   UNL A   1      45.298 -20.927 -40.386  0.00  0.00    -0.026 A 
ATOM     29  C   UNL A   1      46.083 -22.173 -40.056  0.00  0.00    -0.038 C 
ENDBRANCH  20  27
ENDBRANCH  14  20
ENDBRANCH  10  19
ENDBRANCH   9  12
ENDBRANCH   8   9
ENDBRANCH   7   8
ENDBRANCH   6   7
ENDBRANCH   5   6
ENDBRANCH   1   5
BRANCH   3  30
ATOM     30  C   UNL A   1      39.983 -17.466 -33.071  0.00  0.00    +0.012 C 
BRANCH  30  31
ATOM     31  C   UNL A   1      38.699 -17.033 -32.362  0.00  0.00    -0.037 C 
BRANCH  31  32
ATOM     32  C   UNL A   1      37.451 -17.747 -32.891  0.00  0.00    -0.052 C 
BRANCH  32  33
ATOM     33  C   UNL A   1      36.739 -16.918 -33.963  0.00  0.00    -0.053 C 
BRANCH  33  34
ATOM     34  C   UNL A   1      35.647 -17.737 -34.653  0.00  0.00    -0.053 C 
BRANCH  34  35
ATOM     35  C   UNL A   1      36.146 -18.357 -35.958  0.00  0.00    -0.052 C 
BRANCH  35  36
ATOM     36  C   UNL A   1      37.287 -17.533 -36.558  0.00  0.00    -0.037 C 
BRANCH  36  37
ATOM     37  C   UNL A   1      38.522 -18.394 -36.826  0.00  0.00    +0.009 C 
BRANCH  37  38
ATOM     38  N   UNL A   1      38.083 -19.740 -37.219  0.00  0.00    -0.343 N 
ATOM     39  H   UNL A   1      37.203 -19.939 -37.614  0.00  0.00    +0.000 HD
BRANCH  38  40
ATOM     40  C   UNL A   1      39.082 -20.725 -36.962  0.00  0.00    +0.041 A 
ATOM     41  C   UNL A   1      39.136 -21.388 -35.719  0.00  0.00    -0.005 A 
ATOM     42  C   UNL A   1      40.109 -22.378 -35.556  0.00  0.00    +0.047 A 
ATOM     43  N   UNL A   1      40.954 -22.761 -36.543  0.00  0.00    -0.251 NA
ATOM     44  C   UNL A   1      40.892 -22.140 -37.728  0.00  0.00    +0.073 A 
ATOM     45  C   UNL A   1      41.777 -22.535 -38.724  0.00  0.00    -0.036 A 
ATOM     46  C   UNL A   1      41.794 -21.929 -39.983  0.00  0.00    -0.060 A 
ATOM     47  C   UNL A   1      40.911 -20.897 -40.258  0.00  0.00    -0.061 A 
ATOM     48  C   UNL A   1      40.013 -20.486 -39.273  0.00  0.00    -0.051 A 
ATOM     49  C   UNL A   1      39.977 -21.105 -38.000  0.00  0.00    +0.021 A 
ATOM     50  C   UNL A   1      40.252 -23.149 -34.269  0.00  0.00    -0.010 C 
ATOM     51  C   UNL A   1      39.633 -22.440 -33.070  0.00  0.00    -0.047 C 
ATOM     52  C   UNL A   1      38.219 -21.996 -33.413  0.00  0.00    -0.049 C 
ATOM     53  C   UNL A   1      38.238 -20.996 -34.568  0.00  0.00    -0.024 C 
ENDBRANCH  38  40
ENDBRANCH  37  38
ENDBRANCH  36  37
ENDBRANCH  35  36
ENDBRANCH  34  35
ENDBRANCH  33  34
ENDBRANCH  32  33
ENDBRANCH  31  32
ENDBRANCH  30  31
ENDBRANCH   3  30
TORSDOF 19
ENDMDL
MODEL 14
REMARK VINA RESULT:    -5.981      2.124      7.626
REMARK INTER + INTRA:         -18.837
REMARK INTER:                 -12.162
REMARK INTRA:                  -6.675
REMARK UNBOUND:                -6.213
REMARK  Name = cpd44.pdb
REMARK  21 active torsions:
REMARK  status: ('A' for Active; 'I' for Inactive)
REMARK    1  A    between atoms: C_1  and  C_2
REMARK    2  A    between atoms: C_6  and  N_7
REMARK    3  A    between atoms: N_7  and  C_8
REMARK    4  A    between atoms: C_13  and  C_14
REMARK    5  A    between atoms: N_16  and  C_17
REMARK    6  A    between atoms: C_17  and  C_18
REMARK    7  A    between atoms: C_18  and  C_19
REMARK    8  A    between atoms: C_19  and  C_20
REMARK    9  A    between atoms: C_20  and  C_21
REMARK   10  A    between atoms: C_21  and  C_22
REMARK   11  A    between atoms: N_24  and  C_25
REMARK   12  A    between atoms: C_25  and  C_26
REMARK   13  A    between atoms: C_26  and  C_27
REMARK   14  A    between atoms: C_27  and  C_28
REMARK   15  A    between atoms: C_28  and  C_29
REMARK   16  A    between atoms: C_29  and  C_30
REMARK   17  A    between atoms: C_30  and  C_31
REMARK   18  A    between atoms: C_31  and  C_32
REMARK   19  A    between atoms: C_32  and  N_33
REMARK   20  A    between atoms: N_33  and  C_34
REMARK   21  A    between atoms: C_48  and  C_49
REMARK                            x       y       z     vdW  Elec       q    Type
REMARK                         _______ _______ _______ _____ _____    ______ ____
ROOT
ATOM      1  C   UNL A   1      38.378 -16.779 -34.867  0.00  0.00    +0.213 C 
ATOM      2  O   UNL A   1      37.746 -16.678 -35.913  0.00  0.00    -0.276 OA
ATOM      3  N   UNL A   1      39.736 -16.996 -34.810  0.00  0.00    -0.315 N 
ATOM      4  H   UNL A   1      40.179 -17.009 -33.930  0.00  0.00    +0.000 HD
ENDROOT
BRANCH   1   5
ATOM      5  C   UNL A   1      37.706 -16.673 -33.514  0.00  0.00    +0.024 C 
BRANCH   5   6
ATOM      6  C   UNL A   1      38.038 -17.861 -32.618  0.00  0.00    -0.045 C 
BRANCH   6   7
ATOM      7  C   UNL A   1      37.236 -19.129 -32.931  0.00  0.00    -0.051 C 
BRANCH   7   8
ATOM      8  C   UNL A   1      37.992 -20.440 -32.698  0.00  0.00    -0.037 C 
BRANCH   8   9
ATOM      9  C   UNL A   1      39.498 -20.234 -32.510  0.00  0.00    +0.012 C 
BRANCH   9  12
ATOM     10  C   UNL A   1      40.555 -22.324 -33.479  0.00  0.00    +0.246 C 
ATOM     11  O   UNL A   1      40.732 -23.525 -33.283  0.00  0.00    -0.270 OA
ATOM     12  N   UNL A   1      40.207 -21.501 -32.435  0.00  0.00    -0.311 N 
ATOM     13  H   UNL A   1      40.466 -21.805 -31.535  0.00  0.00    +0.000 HD
BRANCH  10  19
ATOM     14  C   UNL A   1      41.785 -21.006 -35.212  0.00  0.00    +0.044 A 
ATOM     15  C   UNL A   1      41.888 -20.591 -36.550  0.00  0.00    -0.040 A 
ATOM     16  C   UNL A   1      40.863 -20.840 -37.467  0.00  0.00    -0.060 A 
ATOM     17  C   UNL A   1      39.721 -21.530 -37.069  0.00  0.00    -0.061 A 
ATOM     18  C   UNL A   1      39.619 -22.003 -35.763  0.00  0.00    -0.048 A 
ATOM     19  C   UNL A   1      40.666 -21.787 -34.854  0.00  0.00    +0.058 A 
BRANCH  14  20
ATOM     20  N   UNL A   1      42.852 -20.783 -34.294  0.00  0.00    -0.314 N 
ATOM     21  H   UNL A   1      43.260 -21.583 -33.891  0.00  0.00    +0.000 HD
BRANCH  20  27
ATOM     22  C   UNL A   1      46.774 -17.706 -33.876  0.00  0.00    -0.039 C 
ATOM     23  C   UNL A   1      45.330 -18.058 -33.636  0.00  0.00    -0.046 A 
ATOM     24  C   UNL A   1      44.545 -17.185 -32.869  0.00  0.00    -0.058 A 
ATOM     25  C   UNL A   1      43.215 -17.484 -32.590  0.00  0.00    -0.060 A 
ATOM     26  C   UNL A   1      42.650 -18.656 -33.083  0.00  0.00    -0.040 A 
ATOM     27  C   UNL A   1      43.392 -19.526 -33.897  0.00  0.00    +0.035 A 
ATOM     28  C   UNL A   1      44.750 -19.234 -34.168  0.00  0.00    -0.026 A 
ATOM     29  C   UNL A   1      45.579 -20.206 -34.971  0.00  0.00    -0.038 C 
ENDBRANCH  20  27
ENDBRANCH  14  20
ENDBRANCH  10  19
ENDBRANCH   9  12
ENDBRANCH   8   9
ENDBRANCH   7   8
ENDBRANCH   6   7
ENDBRANCH   5   6
ENDBRANCH   1   5
BRANCH   3  30
ATOM     30  C   UNL A   1      40.537 -17.206 -35.999  0.00  0.00    +0.012 C 
BRANCH  30  31
ATOM     31  C   UNL A   1      41.830 -16.388 -35.984  0.00  0.00    -0.037 C 
BRANCH  31  32
ATOM     32  C   UNL A   1      43.031 -17.156 -36.544  0.00  0.00    -0.052 C 
BRANCH  32  33
ATOM     33  C   UNL A   1      44.270 -16.263 -36.653  0.00  0.00    -0.053 C 
BRANCH  33  34
ATOM     34  C   UNL A   1      45.480 -17.062 -37.142  0.00  0.00    -0.053 C 
BRANCH  34  35
ATOM     35  C   UNL A   1      46.693 -16.161 -37.377  0.00  0.00    -0.052 C 
BRANCH  35  36
ATOM     36  C   UNL A   1      47.233 -16.325 -38.798  0.00  0.00    -0.037 C 
BRANCH  36  37
ATOM     37  C   UNL A   1      46.278 -15.730 -39.835  0.00  0.00    +0.009 C 
BRANCH  37  38
ATOM     38  N   UNL A   1      46.056 -16.722 -40.897  0.00  0.00    -0.343 N 
ATOM     39  H   UNL A   1      46.532 -16.721 -41.759  0.00  0.00    +0.000 HD
BRANCH  38  40
ATOM     40  C   UNL A   1      45.071 -17.686 -40.532  0.00  0.00    +0.041 A 
ATOM     41  C   UNL A   1      45.421 -19.039 -40.348  0.00  0.00    -0.005 A 
ATOM     42  C   UNL A   1      44.413 -19.918 -39.939  0.00  0.00    +0.047 A 
ATOM     43  N   UNL A   1      43.148 -19.522 -39.664  0.00  0.00    -0.251 NA
ATOM     44  C   UNL A   1      42.819 -18.234 -39.826  0.00  0.00    +0.073 A 
ATOM     45  C   UNL A   1      41.512 -17.848 -39.554  0.00  0.00    -0.036 A 
ATOM     46  C   UNL A   1      41.080 -16.529 -39.713  0.00  0.00    -0.060 A 
ATOM     47  C   UNL A   1      41.971 -15.567 -40.162  0.00  0.00    -0.061 A 
ATOM     48  C   UNL A   1      43.288 -15.932 -40.438  0.00  0.00    -0.051 A 
ATOM     49  C   UNL A   1      43.739 -17.262 -40.264  0.00  0.00    +0.021 A 
ATOM     50  C   UNL A   1      44.680 -21.384 -39.712  0.00  0.00    -0.010 C 
ATOM     51  C   UNL A   1      45.930 -21.886 -40.424  0.00  0.00    -0.047 C 
ATOM     52  C   UNL A   1      47.096 -20.955 -40.127  0.00  0.00    -0.049 C 
ATOM     53  C   UNL A   1      46.809 -19.551 -40.657  0.00  0.00    -0.024 C 
ENDBRANCH  38  40
ENDBRANCH  37  38
ENDBRANCH  36  37
ENDBRANCH  35  36
ENDBRANCH  34  35
ENDBRANCH  33  34
ENDBRANCH  32  33
ENDBRANCH  31  32
ENDBRANCH  30  31
ENDBRANCH   3  30
TORSDOF 19
ENDMDL
MODEL 15
REMARK VINA RESULT:    -5.922      2.254      7.628
REMARK INTER + INTRA:         -18.714
REMARK INTER:                 -11.650
REMARK INTRA:                  -7.063
REMARK UNBOUND:                -6.213
REMARK  Name = cpd44.pdb
REMARK  21 active torsions:
REMARK  status: ('A' for Active; 'I' for Inactive)
REMARK    1  A    between atoms: C_1  and  C_2
REMARK    2  A    between atoms: C_6  and  N_7
REMARK    3  A    between atoms: N_7  and  C_8
REMARK    4  A    between atoms: C_13  and  C_14
REMARK    5  A    between atoms: N_16  and  C_17
REMARK    6  A    between atoms: C_17  and  C_18
REMARK    7  A    between atoms: C_18  and  C_19
REMARK    8  A    between atoms: C_19  and  C_20
REMARK    9  A    between atoms: C_20  and  C_21
REMARK   10  A    between atoms: C_21  and  C_22
REMARK   11  A    between atoms: N_24  and  C_25
REMARK   12  A    between atoms: C_25  and  C_26
REMARK   13  A    between atoms: C_26  and  C_27
REMARK   14  A    between atoms: C_27  and  C_28
REMARK   15  A    between atoms: C_28  and  C_29
REMARK   16  A    between atoms: C_29  and  C_30
REMARK   17  A    between atoms: C_30  and  C_31
REMARK   18  A    between atoms: C_31  and  C_32
REMARK   19  A    between atoms: C_32  and  N_33
REMARK   20  A    between atoms: N_33  and  C_34
REMARK   21  A    between atoms: C_48  and  C_49
REMARK                            x       y       z     vdW  Elec       q    Type
REMARK                         _______ _______ _______ _____ _____    ______ ____
ROOT
ATOM      1  C   UNL A   1      41.093 -15.710 -33.415  0.00  0.00    +0.213 C 
ATOM      2  O   UNL A   1      41.351 -14.657 -32.841  0.00  0.00    -0.276 OA
ATOM      3  N   UNL A   1      40.658 -15.785 -34.719  0.00  0.00    -0.315 N 
ATOM      4  H   UNL A   1      40.526 -16.672 -35.126  0.00  0.00    +0.000 HD
ENDROOT
BRANCH   1   5
ATOM      5  C   UNL A   1      41.231 -17.051 -32.726  0.00  0.00    +0.024 C 
BRANCH   5   6
ATOM      6  C   UNL A   1      42.279 -17.932 -33.397  0.00  0.00    -0.045 C 
BRANCH   6   7
ATOM      7  C   UNL A   1      42.269 -19.391 -32.927  0.00  0.00    -0.051 C 
BRANCH   7   8
ATOM      8  C   UNL A   1      42.408 -20.427 -34.048  0.00  0.00    -0.037 C 
BRANCH   8   9
ATOM      9  C   UNL A   1      42.795 -19.802 -35.391  0.00  0.00    +0.012 C 
BRANCH   9  12
ATOM     10  C   UNL A   1      42.163 -20.843 -37.614  0.00  0.00    +0.246 C 
ATOM     11  O   UNL A   1      41.983 -21.915 -38.189  0.00  0.00    -0.270 OA
ATOM     12  N   UNL A   1      42.880 -20.803 -36.442  0.00  0.00    -0.311 N 
ATOM     13  H   UNL A   1      43.523 -21.535 -36.299  0.00  0.00    +0.000 HD
BRANCH  10  19
ATOM     14  C   UNL A   1      40.159 -19.419 -38.077  0.00  0.00    +0.044 A 
ATOM     15  C   UNL A   1      39.640 -18.198 -38.536  0.00  0.00    -0.040 A 
ATOM     16  C   UNL A   1      40.457 -17.253 -39.164  0.00  0.00    -0.060 A 
ATOM     17  C   UNL A   1      41.817 -17.504 -39.328  0.00  0.00    -0.061 A 
ATOM     18  C   UNL A   1      42.368 -18.682 -38.830  0.00  0.00    -0.048 A 
ATOM     19  C   UNL A   1      41.554 -19.612 -38.164  0.00  0.00    +0.058 A 
BRANCH  14  20
ATOM     20  N   UNL A   1      39.327 -20.359 -37.402  0.00  0.00    -0.314 N 
ATOM     21  H   UNL A   1      38.784 -20.952 -37.970  0.00  0.00    +0.000 HD
BRANCH  20  27
ATOM     22  C   UNL A   1      38.770 -23.382 -33.456  0.00  0.00    -0.039 C 
ATOM     23  C   UNL A   1      38.856 -22.015 -34.081  0.00  0.00    -0.046 A 
ATOM     24  C   UNL A   1      38.650 -20.892 -33.267  0.00  0.00    -0.058 A 
ATOM     25  C   UNL A   1      38.685 -19.609 -33.805  0.00  0.00    -0.060 A 
ATOM     26  C   UNL A   1      38.935 -19.433 -35.162  0.00  0.00    -0.040 A 
ATOM     27  C   UNL A   1      39.197 -20.532 -35.994  0.00  0.00    +0.035 A 
ATOM     28  C   UNL A   1      39.145 -21.839 -35.455  0.00  0.00    -0.026 A 
ATOM     29  C   UNL A   1      39.341 -23.031 -36.359  0.00  0.00    -0.038 C 
ENDBRANCH  20  27
ENDBRANCH  14  20
ENDBRANCH  10  19
ENDBRANCH   9  12
ENDBRANCH   8   9
ENDBRANCH   7   8
ENDBRANCH   6   7
ENDBRANCH   5   6
ENDBRANCH   1   5
BRANCH   3  30
ATOM     30  C   UNL A   1      40.388 -14.604 -35.514  0.00  0.00    +0.012 C 
BRANCH  30  31
ATOM     31  C   UNL A   1      41.336 -14.474 -36.707  0.00  0.00    -0.037 C 
BRANCH  31  32
ATOM     32  C   UNL A   1      42.752 -14.050 -36.305  0.00  0.00    -0.052 C 
BRANCH  32  33
ATOM     33  C   UNL A   1      43.714 -15.240 -36.289  0.00  0.00    -0.053 C 
BRANCH  33  34
ATOM     34  C   UNL A   1      44.241 -15.537 -37.695  0.00  0.00    -0.053 C 
BRANCH  34  35
ATOM     35  C   UNL A   1      45.007 -14.347 -38.273  0.00  0.00    -0.052 C 
BRANCH  35  36
ATOM     36  C   UNL A   1      45.857 -14.769 -39.472  0.00  0.00    -0.037 C 
BRANCH  36  37
ATOM     37  C   UNL A   1      45.370 -16.090 -40.070  0.00  0.00    +0.009 C 
BRANCH  37  38
ATOM     38  N   UNL A   1      46.514 -17.005 -40.189  0.00  0.00    -0.343 N 
ATOM     39  H   UNL A   1      47.365 -16.769 -40.624  0.00  0.00    +0.000 HD
BRANCH  38  40
ATOM     40  C   UNL A   1      46.246 -18.276 -39.600  0.00  0.00    +0.041 A 
ATOM     41  C   UNL A   1      46.519 -18.508 -38.236  0.00  0.00    -0.005 A 
ATOM     42  C   UNL A   1      46.182 -19.761 -37.714  0.00  0.00    +0.047 A 
ATOM     43  N   UNL A   1      45.565 -20.726 -38.435  0.00  0.00    -0.251 NA
ATOM     44  C   UNL A   1      45.294 -20.499 -39.727  0.00  0.00    +0.073 A 
ATOM     45  C   UNL A   1      44.675 -21.507 -40.457  0.00  0.00    -0.036 A 
ATOM     46  C   UNL A   1      44.372 -21.361 -41.813  0.00  0.00    -0.060 A 
ATOM     47  C   UNL A   1      44.700 -20.183 -42.464  0.00  0.00    -0.061 A 
ATOM     48  C   UNL A   1      45.320 -19.158 -41.751  0.00  0.00    -0.051 A 
ATOM     49  C   UNL A   1      45.615 -19.290 -40.372  0.00  0.00    +0.021 A 
ATOM     50  C   UNL A   1      46.429 -20.113 -36.269  0.00  0.00    -0.010 C 
ATOM     51  C   UNL A   1      47.483 -19.235 -35.606  0.00  0.00    -0.047 C 
ATOM     52  C   UNL A   1      47.173 -17.771 -35.879  0.00  0.00    -0.049 C 
ATOM     53  C   UNL A   1      47.225 -17.483 -37.379  0.00  0.00    -0.024 C 
ENDBRANCH  38  40
ENDBRANCH  37  38
ENDBRANCH  36  37
ENDBRANCH  35  36
ENDBRANCH  34  35
ENDBRANCH  33  34
ENDBRANCH  32  33
ENDBRANCH  31  32
ENDBRANCH  30  31
ENDBRANCH   3  30
TORSDOF 19
ENDMDL
MODEL 16
REMARK VINA RESULT:    -5.842      2.139      4.527
REMARK INTER + INTRA:         -18.543
REMARK INTER:                 -12.693
REMARK INTRA:                  -5.851
REMARK UNBOUND:                -6.213
REMARK  Name = cpd44.pdb
REMARK  21 active torsions:
REMARK  status: ('A' for Active; 'I' for Inactive)
REMARK    1  A    between atoms: C_1  and  C_2
REMARK    2  A    between atoms: C_6  and  N_7
REMARK    3  A    between atoms: N_7  and  C_8
REMARK    4  A    between atoms: C_13  and  C_14
REMARK    5  A    between atoms: N_16  and  C_17
REMARK    6  A    between atoms: C_17  and  C_18
REMARK    7  A    between atoms: C_18  and  C_19
REMARK    8  A    between atoms: C_19  and  C_20
REMARK    9  A    between atoms: C_20  and  C_21
REMARK   10  A    between atoms: C_21  and  C_22
REMARK   11  A    between atoms: N_24  and  C_25
REMARK   12  A    between atoms: C_25  and  C_26
REMARK   13  A    between atoms: C_26  and  C_27
REMARK   14  A    between atoms: C_27  and  C_28
REMARK   15  A    between atoms: C_28  and  C_29
REMARK   16  A    between atoms: C_29  and  C_30
REMARK   17  A    between atoms: C_30  and  C_31
REMARK   18  A    between atoms: C_31  and  C_32
REMARK   19  A    between atoms: C_32  and  N_33
REMARK   20  A    between atoms: N_33  and  C_34
REMARK   21  A    between atoms: C_48  and  C_49
REMARK                            x       y       z     vdW  Elec       q    Type
REMARK                         _______ _______ _______ _____ _____    ______ ____
ROOT
ATOM      1  C   UNL A   1      42.628 -19.820 -36.619  0.00  0.00    +0.213 C 
ATOM      2  O   UNL A   1      42.716 -19.931 -35.401  0.00  0.00    -0.276 OA
ATOM      3  N   UNL A   1      42.545 -18.613 -37.275  0.00  0.00    -0.315 N 
ATOM      4  H   UNL A   1      42.533 -18.606 -38.259  0.00  0.00    +0.000 HD
ENDROOT
BRANCH   1   5
ATOM      5  C   UNL A   1      42.599 -21.028 -37.531  0.00  0.00    +0.024 C 
BRANCH   5   6
ATOM      6  C   UNL A   1      42.153 -20.665 -38.944  0.00  0.00    -0.045 C 
BRANCH   6   7
ATOM      7  C   UNL A   1      41.323 -21.749 -39.640  0.00  0.00    -0.051 C 
BRANCH   7   8
ATOM      8  C   UNL A   1      41.473 -21.793 -41.164  0.00  0.00    -0.037 C 
BRANCH   8   9
ATOM      9  C   UNL A   1      42.922 -21.996 -41.614  0.00  0.00    +0.012 C 
BRANCH   9  12
ATOM     10  C   UNL A   1      44.743 -20.253 -41.882  0.00  0.00    +0.246 C 
ATOM     11  O   UNL A   1      44.947 -19.047 -42.005  0.00  0.00    -0.270 OA
ATOM     12  N   UNL A   1      43.496 -20.769 -42.143  0.00  0.00    -0.311 N 
ATOM     13  H   UNL A   1      42.927 -20.249 -42.755  0.00  0.00    +0.000 HD
BRANCH  10  19
ATOM     14  C   UNL A   1      46.320 -20.987 -40.085  0.00  0.00    +0.044 A 
ATOM     15  C   UNL A   1      47.294 -21.898 -39.647  0.00  0.00    -0.040 A 
ATOM     16  C   UNL A   1      47.848 -22.841 -40.518  0.00  0.00    -0.060 A 
ATOM     17  C   UNL A   1      47.423 -22.904 -41.843  0.00  0.00    -0.061 A 
ATOM     18  C   UNL A   1      46.416 -22.050 -42.287  0.00  0.00    -0.048 A 
ATOM     19  C   UNL A   1      45.833 -21.131 -41.401  0.00  0.00    +0.058 A 
BRANCH  14  20
ATOM     20  N   UNL A   1      45.732 -20.056 -39.180  0.00  0.00    -0.314 N 
ATOM     21  H   UNL A   1      44.778 -20.188 -38.971  0.00  0.00    +0.000 HD
BRANCH  20  27
ATOM     22  C   UNL A   1      47.507 -17.899 -35.031  0.00  0.00    -0.039 C 
ATOM     23  C   UNL A   1      47.176 -17.883 -36.499  0.00  0.00    -0.046 A 
ATOM     24  C   UNL A   1      47.372 -16.694 -37.218  0.00  0.00    -0.058 A 
ATOM     25  C   UNL A   1      47.048 -16.620 -38.569  0.00  0.00    -0.060 A 
ATOM     26  C   UNL A   1      46.534 -17.736 -39.221  0.00  0.00    -0.040 A 
ATOM     27  C   UNL A   1      46.375 -18.955 -38.545  0.00  0.00    +0.035 A 
ATOM     28  C   UNL A   1      46.686 -19.030 -37.167  0.00  0.00    -0.026 A 
ATOM     29  C   UNL A   1      46.437 -20.313 -36.412  0.00  0.00    -0.038 C 
ENDBRANCH  20  27
ENDBRANCH  14  20
ENDBRANCH  10  19
ENDBRANCH   9  12
ENDBRANCH   8   9
ENDBRANCH   7   8
ENDBRANCH   6   7
ENDBRANCH   5   6
ENDBRANCH   1   5
BRANCH   3  30
ATOM     30  C   UNL A   1      42.475 -17.351 -36.566  0.00  0.00    +0.012 C 
BRANCH  30  31
ATOM     31  C   UNL A   1      43.855 -16.726 -36.349  0.00  0.00    -0.037 C 
BRANCH  31  32
ATOM     32  C   UNL A   1      43.986 -16.015 -34.999  0.00  0.00    -0.052 C 
BRANCH  32  33
ATOM     33  C   UNL A   1      44.274 -17.003 -33.866  0.00  0.00    -0.053 C 
BRANCH  33  34
ATOM     34  C   UNL A   1      43.255 -16.854 -32.735  0.00  0.00    -0.053 C 
BRANCH  34  35
ATOM     35  C   UNL A   1      41.983 -17.656 -33.012  0.00  0.00    -0.052 C 
BRANCH  35  36
ATOM     36  C   UNL A   1      40.733 -16.814 -32.749  0.00  0.00    -0.037 C 
BRANCH  36  37
ATOM     37  C   UNL A   1      39.986 -16.494 -34.044  0.00  0.00    +0.009 C 
BRANCH  37  38
ATOM     38  N   UNL A   1      38.742 -17.276 -34.078  0.00  0.00    -0.343 N 
ATOM     39  H   UNL A   1      37.957 -17.086 -33.515  0.00  0.00    +0.000 HD
BRANCH  38  40
ATOM     40  C   UNL A   1      38.806 -18.343 -35.022  0.00  0.00    +0.041 A 
ATOM     41  C   UNL A   1      38.773 -18.081 -36.407  0.00  0.00    -0.005 A 
ATOM     42  C   UNL A   1      38.893 -19.171 -37.274  0.00  0.00    +0.047 A 
ATOM     43  N   UNL A   1      39.091 -20.441 -36.850  0.00  0.00    -0.251 NA
ATOM     44  C   UNL A   1      39.136 -20.687 -35.533  0.00  0.00    +0.073 A 
ATOM     45  C   UNL A   1      39.325 -21.999 -35.115  0.00  0.00    -0.036 A 
ATOM     46  C   UNL A   1      39.367 -22.346 -33.762  0.00  0.00    -0.060 A 
ATOM     47  C   UNL A   1      39.210 -21.363 -32.798  0.00  0.00    -0.061 A 
ATOM     48  C   UNL A   1      39.022 -20.040 -33.196  0.00  0.00    -0.051 A 
ATOM     49  C   UNL A   1      38.995 -19.676 -34.564  0.00  0.00    +0.021 A 
ATOM     50  C   UNL A   1      38.872 -19.002 -38.772  0.00  0.00    -0.010 C 
ATOM     51  C   UNL A   1      38.225 -17.698 -39.222  0.00  0.00    -0.047 C 
ATOM     52  C   UNL A   1      38.822 -16.536 -38.442  0.00  0.00    -0.049 C 
ATOM     53  C   UNL A   1      38.533 -16.690 -36.949  0.00  0.00    -0.024 C 
ENDBRANCH  38  40
ENDBRANCH  37  38
ENDBRANCH  36  37
ENDBRANCH  35  36
ENDBRANCH  34  35
ENDBRANCH  33  34
ENDBRANCH  32  33
ENDBRANCH  31  32
ENDBRANCH  30  31
ENDBRANCH   3  30
TORSDOF 19
ENDMDL
MODEL 17
REMARK VINA RESULT:    -5.747      2.304      4.970
REMARK INTER + INTRA:         -18.343
REMARK INTER:                 -11.828
REMARK INTRA:                  -6.514
REMARK UNBOUND:                -6.213
REMARK  Name = cpd44.pdb
REMARK  21 active torsions:
REMARK  status: ('A' for Active; 'I' for Inactive)
REMARK    1  A    between atoms: C_1  and  C_2
REMARK    2  A    between atoms: C_6  and  N_7
REMARK    3  A    between atoms: N_7  and  C_8
REMARK    4  A    between atoms: C_13  and  C_14
REMARK    5  A    between atoms: N_16  and  C_17
REMARK    6  A    between atoms: C_17  and  C_18
REMARK    7  A    between atoms: C_18  and  C_19
REMARK    8  A    between atoms: C_19  and  C_20
REMARK    9  A    between atoms: C_20  and  C_21
REMARK   10  A    between atoms: C_21  and  C_22
REMARK   11  A    between atoms: N_24  and  C_25
REMARK   12  A    between atoms: C_25  and  C_26
REMARK   13  A    between atoms: C_26  and  C_27
REMARK   14  A    between atoms: C_27  and  C_28
REMARK   15  A    between atoms: C_28  and  C_29
REMARK   16  A    between atoms: C_29  and  C_30
REMARK   17  A    between atoms: C_30  and  C_31
REMARK   18  A    between atoms: C_31  and  C_32
REMARK   19  A    between atoms: C_32  and  N_33
REMARK   20  A    between atoms: N_33  and  C_34
REMARK   21  A    between atoms: C_48  and  C_49
REMARK                            x       y       z     vdW  Elec       q    Type
REMARK                         _______ _______ _______ _____ _____    ______ ____
ROOT
ATOM      1  C   UNL A   1      42.900 -17.329 -34.555  0.00  0.00    +0.213 C 
ATOM      2  O   UNL A   1      43.854 -17.369 -33.786  0.00  0.00    -0.276 OA
ATOM      3  N   UNL A   1      41.611 -17.648 -34.195  0.00  0.00    -0.315 N 
ATOM      4  H   UNL A   1      40.891 -17.537 -34.857  0.00  0.00    +0.000 HD
ENDROOT
BRANCH   1   5
ATOM      5  C   UNL A   1      43.059 -16.919 -36.004  0.00  0.00    +0.024 C 
BRANCH   5   6
ATOM      6  C   UNL A   1      43.245 -18.123 -36.922  0.00  0.00    -0.045 C 
BRANCH   6   7
ATOM      7  C   UNL A   1      42.728 -19.443 -36.339  0.00  0.00    -0.051 C 
BRANCH   7   8
ATOM      8  C   UNL A   1      43.167 -20.696 -37.104  0.00  0.00    -0.037 C 
BRANCH   8   9
ATOM      9  C   UNL A   1      43.751 -20.378 -38.483  0.00  0.00    +0.012 C 
BRANCH   9  12
ATOM     10  C   UNL A   1      46.269 -20.663 -38.548  0.00  0.00    +0.246 C 
ATOM     11  O   UNL A   1      47.191 -21.171 -39.183  0.00  0.00    -0.270 OA
ATOM     12  N   UNL A   1      44.982 -21.113 -38.726  0.00  0.00    -0.311 N 
ATOM     13  H   UNL A   1      44.884 -22.035 -39.055  0.00  0.00    +0.000 HD
BRANCH  10  19
ATOM     14  C   UNL A   1      46.856 -18.262 -38.167  0.00  0.00    +0.044 A 
ATOM     15  C   UNL A   1      47.031 -17.202 -37.263  0.00  0.00    -0.040 A 
ATOM     16  C   UNL A   1      47.019 -17.419 -35.881  0.00  0.00    -0.060 A 
ATOM     17  C   UNL A   1      46.810 -18.699 -35.376  0.00  0.00    -0.061 A 
ATOM     18  C   UNL A   1      46.577 -19.758 -36.250  0.00  0.00    -0.048 A 
ATOM     19  C   UNL A   1      46.550 -19.533 -37.635  0.00  0.00    +0.058 A 
BRANCH  14  20
ATOM     20  N   UNL A   1      46.830 -18.026 -39.572  0.00  0.00    -0.314 N 
ATOM     21  H   UNL A   1      47.540 -18.455 -40.103  0.00  0.00    +0.000 HD
BRANCH  20  27
ATOM     22  C   UNL A   1      45.601 -13.701 -41.763  0.00  0.00    -0.039 C 
ATOM     23  C   UNL A   1      45.274 -15.094 -41.298  0.00  0.00    -0.046 A 
ATOM     24  C   UNL A   1      43.959 -15.560 -41.447  0.00  0.00    -0.058 A 
ATOM     25  C   UNL A   1      43.599 -16.828 -41.000  0.00  0.00    -0.060 A 
ATOM     26  C   UNL A   1      44.552 -17.650 -40.408  0.00  0.00    -0.040 A 
ATOM     27  C   UNL A   1      45.888 -17.236 -40.291  0.00  0.00    +0.035 A 
ATOM     28  C   UNL A   1      46.254 -15.941 -40.727  0.00  0.00    -0.026 A 
ATOM     29  C   UNL A   1      47.668 -15.455 -40.528  0.00  0.00    -0.038 C 
ENDBRANCH  20  27
ENDBRANCH  14  20
ENDBRANCH  10  19
ENDBRANCH   9  12
ENDBRANCH   8   9
ENDBRANCH   7   8
ENDBRANCH   6   7
ENDBRANCH   5   6
ENDBRANCH   1   5
BRANCH   3  30
ATOM     30  C   UNL A   1      41.277 -18.142 -32.874  0.00  0.00    +0.012 C 
BRANCH  30  31
ATOM     31  C   UNL A   1      41.679 -19.605 -32.679  0.00  0.00    -0.037 C 
BRANCH  31  32
ATOM     32  C   UNL A   1      40.563 -20.588 -33.046  0.00  0.00    -0.052 C 
BRANCH  32  33
ATOM     33  C   UNL A   1      40.956 -22.032 -32.730  0.00  0.00    -0.053 C 
BRANCH  33  34
ATOM     34  C   UNL A   1      40.428 -22.991 -33.799  0.00  0.00    -0.053 C 
BRANCH  34  35
ATOM     35  C   UNL A   1      39.119 -22.490 -34.409  0.00  0.00    -0.052 C 
BRANCH  35  36
ATOM     36  C   UNL A   1      39.128 -22.640 -35.931  0.00  0.00    -0.037 C 
BRANCH  36  37
ATOM     37  C   UNL A   1      39.526 -21.335 -36.623  0.00  0.00    +0.009 C 
BRANCH  37  38
ATOM     38  N   UNL A   1      38.319 -20.520 -36.824  0.00  0.00    -0.343 N 
ATOM     39  H   UNL A   1      37.481 -20.863 -37.212  0.00  0.00    +0.000 HD
BRANCH  38  40
ATOM     40  C   UNL A   1      38.504 -19.174 -36.392  0.00  0.00    +0.041 A 
ATOM     41  C   UNL A   1      39.096 -18.220 -37.244  0.00  0.00    -0.005 A 
ATOM     42  C   UNL A   1      39.198 -16.907 -36.773  0.00  0.00    +0.047 A 
ATOM     43  N   UNL A   1      38.711 -16.507 -35.574  0.00  0.00    -0.251 NA
ATOM     44  C   UNL A   1      38.137 -17.412 -34.771  0.00  0.00    +0.073 A 
ATOM     45  C   UNL A   1      37.658 -16.988 -33.537  0.00  0.00    -0.036 A 
ATOM     46  C   UNL A   1      37.062 -17.868 -32.631  0.00  0.00    -0.060 A 
ATOM     47  C   UNL A   1      36.944 -19.210 -32.957  0.00  0.00    -0.061 A 
ATOM     48  C   UNL A   1      37.417 -19.657 -34.190  0.00  0.00    -0.051 A 
ATOM     49  C   UNL A   1      38.007 -18.770 -35.122  0.00  0.00    +0.021 A 
ATOM     50  C   UNL A   1      39.811 -15.809 -37.604  0.00  0.00    -0.010 C 
ATOM     51  C   UNL A   1      40.722 -16.328 -38.710  0.00  0.00    -0.047 C 
ATOM     52  C   UNL A   1      40.004 -17.417 -39.493  0.00  0.00    -0.049 C 
ATOM     53  C   UNL A   1      39.678 -18.602 -38.586  0.00  0.00    -0.024 C 
ENDBRANCH  38  40
ENDBRANCH  37  38
ENDBRANCH  36  37
ENDBRANCH  35  36
ENDBRANCH  34  35
ENDBRANCH  33  34
ENDBRANCH  32  33
ENDBRANCH  31  32
ENDBRANCH  30  31
ENDBRANCH   3  30
TORSDOF 19
ENDMDL
MODEL 18
REMARK VINA RESULT:    -5.550      2.199      4.043
REMARK INTER + INTRA:         -17.928
REMARK INTER:                 -10.676
REMARK INTRA:                  -7.252
REMARK UNBOUND:                -6.213
REMARK  Name = cpd44.pdb
REMARK  21 active torsions:
REMARK  status: ('A' for Active; 'I' for Inactive)
REMARK    1  A    between atoms: C_1  and  C_2
REMARK    2  A    between atoms: C_6  and  N_7
REMARK    3  A    between atoms: N_7  and  C_8
REMARK    4  A    between atoms: C_13  and  C_14
REMARK    5  A    between atoms: N_16  and  C_17
REMARK    6  A    between atoms: C_17  and  C_18
REMARK    7  A    between atoms: C_18  and  C_19
REMARK    8  A    between atoms: C_19  and  C_20
REMARK    9  A    between atoms: C_20  and  C_21
REMARK   10  A    between atoms: C_21  and  C_22
REMARK   11  A    between atoms: N_24  and  C_25
REMARK   12  A    between atoms: C_25  and  C_26
REMARK   13  A    between atoms: C_26  and  C_27
REMARK   14  A    between atoms: C_27  and  C_28
REMARK   15  A    between atoms: C_28  and  C_29
REMARK   16  A    between atoms: C_29  and  C_30
REMARK   17  A    between atoms: C_30  and  C_31
REMARK   18  A    between atoms: C_31  and  C_32
REMARK   19  A    between atoms: C_32  and  N_33
REMARK   20  A    between atoms: N_33  and  C_34
REMARK   21  A    between atoms: C_48  and  C_49
REMARK                            x       y       z     vdW  Elec       q    Type
REMARK                         _______ _______ _______ _____ _____    ______ ____
ROOT
ATOM      1  C   UNL A   1      39.667 -15.876 -37.131  0.00  0.00    +0.213 C 
ATOM      2  O   UNL A   1      39.670 -14.653 -37.222  0.00  0.00    -0.276 OA
ATOM      3  N   UNL A   1      38.967 -16.571 -36.172  0.00  0.00    -0.315 N 
ATOM      4  H   UNL A   1      38.971 -17.556 -36.200  0.00  0.00    +0.000 HD
ENDROOT
BRANCH   1   5
ATOM      5  C   UNL A   1      40.452 -16.750 -38.086  0.00  0.00    +0.024 C 
BRANCH   5   6
ATOM      6  C   UNL A   1      41.091 -15.938 -39.208  0.00  0.00    -0.045 C 
BRANCH   6   7
ATOM      7  C   UNL A   1      42.222 -16.664 -39.945  0.00  0.00    -0.051 C 
BRANCH   7   8
ATOM      8  C   UNL A   1      43.167 -15.748 -40.730  0.00  0.00    -0.037 C 
BRANCH   8   9
ATOM      9  C   UNL A   1      44.435 -16.465 -41.201  0.00  0.00    +0.012 C 
BRANCH   9  12
ATOM     10  C   UNL A   1      46.029 -16.831 -39.263  0.00  0.00    +0.246 C 
ATOM     11  O   UNL A   1      46.683 -16.253 -38.399  0.00  0.00    -0.270 OA
ATOM     12  N   UNL A   1      45.578 -16.139 -40.362  0.00  0.00    -0.311 N 
ATOM     13  H   UNL A   1      46.085 -15.332 -40.608  0.00  0.00    +0.000 HD
BRANCH  10  19
ATOM     14  C   UNL A   1      44.832 -18.647 -38.029  0.00  0.00    +0.044 A 
ATOM     15  C   UNL A   1      44.467 -20.001 -37.950  0.00  0.00    -0.040 A 
ATOM     16  C   UNL A   1      45.022 -20.952 -38.813  0.00  0.00    -0.060 A 
ATOM     17  C   UNL A   1      45.938 -20.563 -39.786  0.00  0.00    -0.061 A 
ATOM     18  C   UNL A   1      46.273 -19.218 -39.923  0.00  0.00    -0.048 A 
ATOM     19  C   UNL A   1      45.686 -18.259 -39.083  0.00  0.00    +0.058 A 
BRANCH  14  20
ATOM     20  N   UNL A   1      44.232 -17.679 -37.173  0.00  0.00    -0.314 N 
ATOM     21  H   UNL A   1      43.566 -17.081 -37.584  0.00  0.00    +0.000 HD
BRANCH  20  27
ATOM     22  C   UNL A   1      43.987 -14.785 -33.101  0.00  0.00    -0.039 C 
ATOM     23  C   UNL A   1      44.427 -16.032 -33.819  0.00  0.00    -0.046 A 
ATOM     24  C   UNL A   1      45.242 -16.948 -33.137  0.00  0.00    -0.058 A 
ATOM     25  C   UNL A   1      45.703 -18.098 -33.770  0.00  0.00    -0.060 A 
ATOM     26  C   UNL A   1      45.347 -18.352 -35.091  0.00  0.00    -0.040 A 
ATOM     27  C   UNL A   1      44.491 -17.483 -35.786  0.00  0.00    +0.035 A 
ATOM     28  C   UNL A   1      44.035 -16.304 -35.152  0.00  0.00    -0.026 A 
ATOM     29  C   UNL A   1      43.184 -15.322 -35.919  0.00  0.00    -0.038 C 
ENDBRANCH  20  27
ENDBRANCH  14  20
ENDBRANCH  10  19
ENDBRANCH   9  12
ENDBRANCH   8   9
ENDBRANCH   7   8
ENDBRANCH   6   7
ENDBRANCH   5   6
ENDBRANCH   1   5
BRANCH   3  30
ATOM     30  C   UNL A   1      38.224 -15.906 -35.121  0.00  0.00    +0.012 C 
BRANCH  30  31
ATOM     31  C   UNL A   1      39.027 -15.789 -33.823  0.00  0.00    -0.037 C 
BRANCH  31  32
ATOM     32  C   UNL A   1      39.404 -17.148 -33.226  0.00  0.00    -0.052 C 
BRANCH  32  33
ATOM     33  C   UNL A   1      40.920 -17.305 -33.093  0.00  0.00    -0.053 C 
BRANCH  33  34
ATOM     34  C   UNL A   1      41.436 -18.429 -33.993  0.00  0.00    -0.053 C 
BRANCH  34  35
ATOM     35  C   UNL A   1      42.291 -19.429 -33.213  0.00  0.00    -0.052 C 
BRANCH  35  36
ATOM     36  C   UNL A   1      42.253 -20.812 -33.865  0.00  0.00    -0.037 C 
BRANCH  36  37
ATOM     37  C   UNL A   1      41.143 -21.682 -33.274  0.00  0.00    +0.009 C 
BRANCH  37  38
ATOM     38  N   UNL A   1      40.462 -22.387 -34.370  0.00  0.00    -0.343 N 
ATOM     39  H   UNL A   1      40.521 -23.359 -34.519  0.00  0.00    +0.000 HD
BRANCH  38  40
ATOM     40  C   UNL A   1      39.708 -21.498 -35.191  0.00  0.00    +0.041 A 
ATOM     41  C   UNL A   1      40.007 -21.358 -36.562  0.00  0.00    -0.005 A 
ATOM     42  C   UNL A   1      39.192 -20.508 -37.317  0.00  0.00    +0.047 A 
ATOM     43  N   UNL A   1      38.113 -19.867 -36.810  0.00  0.00    -0.251 NA
ATOM     44  C   UNL A   1      37.822 -20.012 -35.510  0.00  0.00    +0.073 A 
ATOM     45  C   UNL A   1      36.720 -19.334 -35.002  0.00  0.00    -0.036 A 
ATOM     46  C   UNL A   1      36.356 -19.416 -33.656  0.00  0.00    -0.060 A 
ATOM     47  C   UNL A   1      37.113 -20.187 -32.788  0.00  0.00    -0.061 A 
ATOM     48  C   UNL A   1      38.222 -20.877 -33.277  0.00  0.00    -0.051 A 
ATOM     49  C   UNL A   1      38.588 -20.814 -34.643  0.00  0.00    +0.021 A 
ATOM     50  C   UNL A   1      39.422 -20.288 -38.790  0.00  0.00    -0.010 C 
ATOM     51  C   UNL A   1      40.837 -20.635 -39.238  0.00  0.00    -0.047 C 
ATOM     52  C   UNL A   1      41.214 -22.014 -38.716  0.00  0.00    -0.049 C 
ATOM     53  C   UNL A   1      41.209 -22.027 -37.188  0.00  0.00    -0.024 C 
ENDBRANCH  38  40
ENDBRANCH  37  38
ENDBRANCH  36  37
ENDBRANCH  35  36
ENDBRANCH  34  35
ENDBRANCH  33  34
ENDBRANCH  32  33
ENDBRANCH  31  32
ENDBRANCH  30  31
ENDBRANCH   3  30
TORSDOF 19
ENDMDL
MODEL 19
REMARK VINA RESULT:    -5.520      2.427      7.708
REMARK INTER + INTRA:         -17.864
REMARK INTER:                 -10.836
REMARK INTRA:                  -7.028
REMARK UNBOUND:                -6.213
REMARK  Name = cpd44.pdb
REMARK  21 active torsions:
REMARK  status: ('A' for Active; 'I' for Inactive)
REMARK    1  A    between atoms: C_1  and  C_2
REMARK    2  A    between atoms: C_6  and  N_7
REMARK    3  A    between atoms: N_7  and  C_8
REMARK    4  A    between atoms: C_13  and  C_14
REMARK    5  A    between atoms: N_16  and  C_17
REMARK    6  A    between atoms: C_17  and  C_18
REMARK    7  A    between atoms: C_18  and  C_19
REMARK    8  A    between atoms: C_19  and  C_20
REMARK    9  A    between atoms: C_20  and  C_21
REMARK   10  A    between atoms: C_21  and  C_22
REMARK   11  A    between atoms: N_24  and  C_25
REMARK   12  A    between atoms: C_25  and  C_26
REMARK   13  A    between atoms: C_26  and  C_27
REMARK   14  A    between atoms: C_27  and  C_28
REMARK   15  A    between atoms: C_28  and  C_29
REMARK   16  A    between atoms: C_29  and  C_30
REMARK   17  A    between atoms: C_30  and  C_31
REMARK   18  A    between atoms: C_31  and  C_32
REMARK   19  A    between atoms: C_32  and  N_33
REMARK   20  A    between atoms: N_33  and  C_34
REMARK   21  A    between atoms: C_48  and  C_49
REMARK                            x       y       z     vdW  Elec       q    Type
REMARK                         _______ _______ _______ _____ _____    ______ ____
ROOT
ATOM      1  C   UNL A   1      45.972 -15.421 -36.954  0.00  0.00    +0.213 C 
ATOM      2  O   UNL A   1      47.196 -15.350 -36.949  0.00  0.00    -0.276 OA
ATOM      3  N   UNL A   1      45.232 -15.821 -38.044  0.00  0.00    -0.315 N 
ATOM      4  H   UNL A   1      44.255 -15.905 -37.950  0.00  0.00    +0.000 HD
ENDROOT
BRANCH   1   5
ATOM      5  C   UNL A   1      45.146 -15.066 -35.736  0.00  0.00    +0.024 C 
BRANCH   5   6
ATOM      6  C   UNL A   1      44.257 -16.223 -35.291  0.00  0.00    -0.045 C 
BRANCH   6   7
ATOM      7  C   UNL A   1      44.314 -16.518 -33.788  0.00  0.00    -0.051 C 
BRANCH   7   8
ATOM      8  C   UNL A   1      43.302 -17.561 -33.301  0.00  0.00    -0.037 C 
BRANCH   8   9
ATOM      9  C   UNL A   1      42.016 -17.575 -34.131  0.00  0.00    +0.012 C 
BRANCH   9  12
ATOM     10  C   UNL A   1      39.727 -18.400 -33.418  0.00  0.00    +0.246 C 
ATOM     11  O   UNL A   1      38.646 -18.041 -32.957  0.00  0.00    -0.270 OA
ATOM     12  N   UNL A   1      40.833 -17.595 -33.285  0.00  0.00    -0.311 N 
ATOM     13  H   UNL A   1      40.823 -16.960 -32.532  0.00  0.00    +0.000 HD
BRANCH  10  19
ATOM     14  C   UNL A   1      39.124 -19.823 -35.385  0.00  0.00    +0.044 A 
ATOM     15  C   UNL A   1      39.306 -21.020 -36.095  0.00  0.00    -0.040 A 
ATOM     16  C   UNL A   1      40.047 -22.077 -35.558  0.00  0.00    -0.060 A 
ATOM     17  C   UNL A   1      40.641 -21.948 -34.305  0.00  0.00    -0.061 A 
ATOM     18  C   UNL A   1      40.525 -20.750 -33.604  0.00  0.00    -0.048 A 
ATOM     19  C   UNL A   1      39.814 -19.677 -34.162  0.00  0.00    +0.058 A 
BRANCH  14  20
ATOM     20  N   UNL A   1      38.401 -18.737 -35.957  0.00  0.00    -0.314 N 
ATOM     21  H   UNL A   1      37.658 -18.374 -35.423  0.00  0.00    +0.000 HD
BRANCH  20  27
ATOM     22  C   UNL A   1      39.310 -14.619 -38.647  0.00  0.00    -0.039 C 
ATOM     23  C   UNL A   1      39.013 -16.090 -38.529  0.00  0.00    -0.046 A 
ATOM     24  C   UNL A   1      38.818 -16.831 -39.703  0.00  0.00    -0.058 A 
ATOM     25  C   UNL A   1      38.507 -18.186 -39.645  0.00  0.00    -0.060 A 
ATOM     26  C   UNL A   1      38.397 -18.819 -38.411  0.00  0.00    -0.040 A 
ATOM     27  C   UNL A   1      38.638 -18.120 -37.218  0.00  0.00    +0.035 A 
ATOM     28  C   UNL A   1      38.936 -16.738 -37.273  0.00  0.00    -0.026 A 
ATOM     29  C   UNL A   1      39.112 -15.958 -35.993  0.00  0.00    -0.038 C 
ENDBRANCH  20  27
ENDBRANCH  14  20
ENDBRANCH  10  19
ENDBRANCH   9  12
ENDBRANCH   8   9
ENDBRANCH   7   8
ENDBRANCH   6   7
ENDBRANCH   5   6
ENDBRANCH   1   5
BRANCH   3  30
ATOM     30  C   UNL A   1      45.840 -16.122 -39.324  0.00  0.00    +0.012 C 
BRANCH  30  31
ATOM     31  C   UNL A   1      44.809 -16.230 -40.449  0.00  0.00    -0.037 C 
BRANCH  31  32
ATOM     32  C   UNL A   1      43.534 -15.427 -40.173  0.00  0.00    -0.052 C 
BRANCH  32  33
ATOM     33  C   UNL A   1      42.280 -16.293 -40.314  0.00  0.00    -0.053 C 
BRANCH  33  34
ATOM     34  C   UNL A   1      42.485 -17.663 -39.663  0.00  0.00    -0.053 C 
BRANCH  34  35
ATOM     35  C   UNL A   1      42.369 -17.587 -38.140  0.00  0.00    -0.052 C 
BRANCH  35  36
ATOM     36  C   UNL A   1      41.960 -18.939 -37.552  0.00  0.00    -0.037 C 
BRANCH  36  37
ATOM     37  C   UNL A   1      42.082 -20.062 -38.582  0.00  0.00    +0.009 C 
BRANCH  37  38
ATOM     38  N   UNL A   1      43.146 -20.981 -38.155  0.00  0.00    -0.343 N 
ATOM     39  H   UNL A   1      42.986 -21.811 -37.650  0.00  0.00    +0.000 HD
BRANCH  38  40
ATOM     40  C   UNL A   1      44.437 -20.530 -38.557  0.00  0.00    +0.041 A 
ATOM     41  C   UNL A   1      44.802 -20.515 -39.920  0.00  0.00    -0.005 A 
ATOM     42  C   UNL A   1      46.064 -20.010 -40.245  0.00  0.00    +0.047 A 
ATOM     43  N   UNL A   1      46.918 -19.493 -39.330  0.00  0.00    -0.251 NA
ATOM     44  C   UNL A   1      46.565 -19.496 -38.038  0.00  0.00    +0.073 A 
ATOM     45  C   UNL A   1      47.460 -18.977 -37.110  0.00  0.00    -0.036 A 
ATOM     46  C   UNL A   1      47.180 -18.956 -35.742  0.00  0.00    -0.060 A 
ATOM     47  C   UNL A   1      45.980 -19.474 -35.281  0.00  0.00    -0.061 A 
ATOM     48  C   UNL A   1      45.066 -19.998 -36.195  0.00  0.00    -0.051 A 
ATOM     49  C   UNL A   1      45.334 -20.008 -37.585  0.00  0.00    +0.021 A 
ATOM     50  C   UNL A   1      46.552 -19.947 -41.670  0.00  0.00    -0.010 C 
ATOM     51  C   UNL A   1      45.813 -20.898 -42.603  0.00  0.00    -0.047 C 
ATOM     52  C   UNL A   1      44.312 -20.732 -42.418  0.00  0.00    -0.049 C 
ATOM     53  C   UNL A   1      43.906 -21.095 -40.990  0.00  0.00    -0.024 C 
ENDBRANCH  38  40
ENDBRANCH  37  38
ENDBRANCH  36  37
ENDBRANCH  35  36
ENDBRANCH  34  35
ENDBRANCH  33  34
ENDBRANCH  32  33
ENDBRANCH  31  32
ENDBRANCH  30  31
ENDBRANCH   3  30
TORSDOF 19
ENDMDL
MODEL 20
REMARK VINA RESULT:    -5.408      2.511      6.046
REMARK INTER + INTRA:         -17.627
REMARK INTER:                  -9.390
REMARK INTRA:                  -8.237
REMARK UNBOUND:                -6.213
REMARK  Name = cpd44.pdb
REMARK  21 active torsions:
REMARK  status: ('A' for Active; 'I' for Inactive)
REMARK    1  A    between atoms: C_1  and  C_2
REMARK    2  A    between atoms: C_6  and  N_7
REMARK    3  A    between atoms: N_7  and  C_8
REMARK    4  A    between atoms: C_13  and  C_14
REMARK    5  A    between atoms: N_16  and  C_17
REMARK    6  A    between atoms: C_17  and  C_18
REMARK    7  A    between atoms: C_18  and  C_19
REMARK    8  A    between atoms: C_19  and  C_20
REMARK    9  A    between atoms: C_20  and  C_21
REMARK   10  A    between atoms: C_21  and  C_22
REMARK   11  A    between atoms: N_24  and  C_25
REMARK   12  A    between atoms: C_25  and  C_26
REMARK   13  A    between atoms: C_26  and  C_27
REMARK   14  A    between atoms: C_27  and  C_28
REMARK   15  A    between atoms: C_28  and  C_29
REMARK   16  A    between atoms: C_29  and  C_30
REMARK   17  A    between atoms: C_30  and  C_31
REMARK   18  A    between atoms: C_31  and  C_32
REMARK   19  A    between atoms: C_32  and  N_33
REMARK   20  A    between atoms: N_33  and  C_34
REMARK   21  A    between atoms: C_48  and  C_49
REMARK                            x       y       z     vdW  Elec       q    Type
REMARK                         _______ _______ _______ _____ _____    ______ ____
ROOT
ATOM      1  C   UNL A   1      43.071 -13.025 -35.778  0.00  0.00    +0.213 C 
ATOM      2  O   UNL A   1      43.158 -11.813 -35.613  0.00  0.00    -0.276 OA
ATOM      3  N   UNL A   1      44.050 -13.790 -36.370  0.00  0.00    -0.315 N 
ATOM      4  H   UNL A   1      43.929 -14.766 -36.415  0.00  0.00    +0.000 HD
ENDROOT
BRANCH   1   5
ATOM      5  C   UNL A   1      41.852 -13.806 -35.335  0.00  0.00    +0.024 C 
BRANCH   5   6
ATOM      6  C   UNL A   1      40.611 -13.428 -36.137  0.00  0.00    -0.045 C 
BRANCH   6   7
ATOM      7  C   UNL A   1      40.861 -13.248 -37.637  0.00  0.00    -0.051 C 
BRANCH   7   8
ATOM      8  C   UNL A   1      39.640 -13.507 -38.527  0.00  0.00    -0.037 C 
BRANCH   8   9
ATOM      9  C   UNL A   1      39.993 -14.243 -39.822  0.00  0.00    +0.012 C 
BRANCH   9  12
ATOM     10  C   UNL A   1      39.346 -16.676 -39.525  0.00  0.00    +0.246 C 
ATOM     11  O   UNL A   1      38.853 -17.645 -40.098  0.00  0.00    -0.270 OA
ATOM     12  N   UNL A   1      39.148 -15.410 -40.021  0.00  0.00    -0.311 N 
ATOM     13  H   UNL A   1      38.344 -15.278 -40.574  0.00  0.00    +0.000 HD
BRANCH  10  19
ATOM     14  C   UNL A   1      41.581 -17.120 -38.493  0.00  0.00    +0.044 A 
ATOM     15  C   UNL A   1      42.360 -17.233 -37.330  0.00  0.00    -0.040 A 
ATOM     16  C   UNL A   1      41.773 -17.235 -36.061  0.00  0.00    -0.060 A 
ATOM     17  C   UNL A   1      40.393 -17.104 -35.929  0.00  0.00    -0.061 A 
ATOM     18  C   UNL A   1      39.603 -16.933 -37.063  0.00  0.00    -0.048 A 
ATOM     19  C   UNL A   1      40.198 -16.891 -38.334  0.00  0.00    +0.058 A 
BRANCH  14  20
ATOM     20  N   UNL A   1      42.191 -17.078 -39.780  0.00  0.00    -0.314 N 
ATOM     21  H   UNL A   1      41.743 -17.584 -40.496  0.00  0.00    +0.000 HD
BRANCH  20  27
ATOM     22  C   UNL A   1      47.113 -17.111 -40.671  0.00  0.00    -0.039 C 
ATOM     23  C   UNL A   1      45.797 -16.398 -40.508  0.00  0.00    -0.046 A 
ATOM     24  C   UNL A   1      45.782 -14.997 -40.567  0.00  0.00    -0.058 A 
ATOM     25  C   UNL A   1      44.596 -14.291 -40.387  0.00  0.00    -0.060 A 
ATOM     26  C   UNL A   1      43.409 -14.979 -40.155  0.00  0.00    -0.040 A 
ATOM     27  C   UNL A   1      43.379 -16.382 -40.142  0.00  0.00    +0.035 A 
ATOM     28  C   UNL A   1      44.586 -17.102 -40.307  0.00  0.00    -0.026 A 
ATOM     29  C   UNL A   1      44.579 -18.608 -40.209  0.00  0.00    -0.038 C 
ENDBRANCH  20  27
ENDBRANCH  14  20
ENDBRANCH  10  19
ENDBRANCH   9  12
ENDBRANCH   8   9
ENDBRANCH   7   8
ENDBRANCH   6   7
ENDBRANCH   5   6
ENDBRANCH   1   5
BRANCH   3  30
ATOM     30  C   UNL A   1      45.253 -13.208 -36.931  0.00  0.00    +0.012 C 
BRANCH  30  31
ATOM     31  C   UNL A   1      46.404 -14.213 -37.014  0.00  0.00    -0.037 C 
BRANCH  31  32
ATOM     32  C   UNL A   1      45.950 -15.662 -36.813  0.00  0.00    -0.052 C 
BRANCH  32  33
ATOM     33  C   UNL A   1      47.139 -16.603 -36.609  0.00  0.00    -0.053 C 
BRANCH  33  34
ATOM     34  C   UNL A   1      46.772 -18.040 -36.984  0.00  0.00    -0.053 C 
BRANCH  34  35
ATOM     35  C   UNL A   1      45.359 -18.399 -36.526  0.00  0.00    -0.052 C 
BRANCH  35  36
ATOM     36  C   UNL A   1      45.388 -19.486 -35.450  0.00  0.00    -0.037 C 
BRANCH  36  37
ATOM     37  C   UNL A   1      44.063 -19.561 -34.690  0.00  0.00    +0.009 C 
BRANCH  37  38
ATOM     38  N   UNL A   1      43.472 -20.890 -34.901  0.00  0.00    -0.343 N 
ATOM     39  H   UNL A   1      43.947 -21.736 -34.734  0.00  0.00    +0.000 HD
BRANCH  38  40
ATOM     40  C   UNL A   1      42.130 -20.809 -35.377  0.00  0.00    +0.041 A 
ATOM     41  C   UNL A   1      41.056 -20.648 -34.478  0.00  0.00    -0.005 A 
ATOM     42  C   UNL A   1      39.773 -20.524 -35.019  0.00  0.00    +0.047 A 
ATOM     43  N   UNL A   1      39.526 -20.497 -36.350  0.00  0.00    -0.251 NA
ATOM     44  C   UNL A   1      40.549 -20.637 -37.204  0.00  0.00    +0.073 A 
ATOM     45  C   UNL A   1      40.276 -20.623 -38.566  0.00  0.00    -0.036 A 
ATOM     46  C   UNL A   1      41.280 -20.779 -39.525  0.00  0.00    -0.060 A 
ATOM     47  C   UNL A   1      42.592 -20.962 -39.118  0.00  0.00    -0.061 A 
ATOM     48  C   UNL A   1      42.889 -20.977 -37.756  0.00  0.00    -0.051 A 
ATOM     49  C   UNL A   1      41.881 -20.802 -36.777  0.00  0.00    +0.021 A 
ATOM     50  C   UNL A   1      38.556 -20.346 -34.148  0.00  0.00    -0.010 C 
ATOM     51  C   UNL A   1      38.770 -20.809 -32.711  0.00  0.00    -0.047 C 
ATOM     52  C   UNL A   1      40.057 -20.208 -32.168  0.00  0.00    -0.049 C 
ATOM     53  C   UNL A   1      41.259 -20.691 -32.980  0.00  0.00    -0.024 C 
ENDBRANCH  38  40
ENDBRANCH  37  38
ENDBRANCH  36  37
ENDBRANCH  35  36
ENDBRANCH  34  35
ENDBRANCH  33  34
ENDBRANCH  32  33
ENDBRANCH  31  32
ENDBRANCH  30  31
ENDBRANCH   3  30
TORSDOF 19
ENDMDL
