@<TRIPOS>MOLECULE
*****
 34 38 0 0 0
SMALL
GASTEIGER

@<TRIPOS>ATOM
      1 C           2.8105   -1.0389    0.0000 C.3     1  UNL1        0.1074
      2 N           2.6763   -0.0479    0.0000 N.3     1  UNL1       -0.2179
      3 C           1.7509    0.3313    0.0000 C.3     1  UNL1        0.0753
      4 C           1.6167    1.3222    0.0000 C.3     1  UNL1        0.0189
      5 C           0.9599   -0.2804    0.0000 C.3     1  UNL1        0.0469
      6 C           0.9898   -1.2800    0.0000 C.3     1  UNL1        0.1533
      7 O           1.8160   -1.8433    0.0000 O.3     1  UNL1       -0.2231
      8 C           0.0484   -1.6173    0.0000 C.3     1  UNL1        0.0330
      9 C          -0.5633   -0.8262    0.0000 C.3     1  UNL1        0.0034
     10 C          -1.4140   -1.3519    0.0000 C.3     1  UNL1        0.0001
     11 C          -1.5605   -0.7515    0.0000 C.3     1  UNL1        0.0073
     12 C          -1.9944   -1.6525    0.0000 C.3     1  UNL1        0.0008
     13 C          -2.9693   -1.8750    0.0000 C.3     1  UNL1        0.0042
     14 C          -3.7512   -1.2515    0.0000 C.3     1  UNL1        0.0233
     15 C          -3.7512   -0.2515    0.0000 C.2     1  UNL1       -0.0481
     16 C          -4.6172    0.2485    0.0000 C.2     1  UNL1       -0.0326
     17 C          -5.4832   -0.2515    0.0000 C.3     1  UNL1        0.0499
     18 C          -5.4832   -1.2515    0.0000 C.3     1  UNL1        0.1140
     19 N          -6.3492   -1.7515    0.0000 N.2     1  UNL1       -0.2432
     20 C          -6.3492   -2.7515    0.0000 C.2     1  UNL1        0.1951
     21 C          -7.2153   -3.2515    0.0000 C.3     1  UNL1        0.0758
     22 C          -8.0813   -2.7515    0.0000 C.3     1  UNL1        0.0097
     23 C          -7.2153   -4.2515    0.0000 C.3     1  UNL1        0.0097
     24 O          -5.4832   -3.2515    0.0000 O.2     1  UNL1       -0.4635
     25 C          -4.6172   -2.7515    0.0000 C.3     1  UNL1        0.2087
     26 C          -4.6172   -1.7515    0.0000 C.3     1  UNL1        0.0649
     27 C          -3.7512   -2.2515    0.0000 C.3     1  UNL1        0.0060
     28 C          -2.9693    0.3720    0.0000 C.3     1  UNL1        0.0290
     29 C          -1.9944    0.1495    0.0000 C.3     1  UNL1        0.0616
     30 C          -1.4311    0.9757    0.0000 C.2     1  UNL1        0.1506
     31 O          -1.8650    1.8767    0.0000 O.2     1  UNL1       -0.2961
     32 C          -0.4339    0.9010    0.0000 C.3     1  UNL1        0.0646
     33 C          -0.0000   -0.0000    0.0000 C.3     1  UNL1        0.0107
     34 C           0.1786    0.9839    0.0000 C.3     1  UNL1        0.0006
@<TRIPOS>BOND
     1     1     2    1
     2     2     3    1
     3     3     4    1
     4     3     5    1
     5     5     6    1
     6     6     7    1
     7     6     8    1
     8     8     9    1
     9     9    10    1
    10     9    11    1
    11    11    12    1
    12    12    13    1
    13    13    14    1
    14    14    15    1
    15    15    16    2
    16    16    17    1
    17    17    18    1
    18    18    19    1
    19    19    20    2
    20    20    21    1
    21    21    22    1
    22    21    23    1
    23    20    24    1
    24    24    25    1
    25    25    26    1
    26    18    26    1
    27    14    26    1
    28    26    27    1
    29    15    28    1
    30    28    29    1
    31    11    29    1
    32    29    30    1
    33    30    31    2
    34    30    32    1
    35    32    33    1
    36     5    33    1
    37     9    33    1
    38    33    34    1
