REMARK  Name = cpd84.pdb
REMARK  11 active torsions:
REMARK  status: ('A' for Active; 'I' for Inactive)
REMARK    1  A    between atoms: C_1  and  N_2
REMARK    2  A    between atoms: N_2  and  C_3
REMARK    3  A    between atoms: C_3  and  C_4
REMARK    4  A    between atoms: C_3  and  C_5
REMARK    5  A    between atoms: C_6  and  O_7
REMARK    6  A    between atoms: C_9  and  C_10
REMARK    7  A    between atoms: C_20  and  C_21
REMARK    8  A    between atoms: C_21  and  C_22
REMARK    9  A    between atoms: C_21  and  C_23
REMARK   10  A    between atoms: C_26  and  C_27
REMARK   11  A    between atoms: C_33  and  C_34
REMARK                            x       y       z     vdW  Elec       q    Type
REMARK                         _______ _______ _______ _____ _____    ______ ____
ROOT
ATOM      1  C   UNL     1       2.179   0.385  -0.915  0.00  0.00    +0.006 C 
ATOM      2  C   UNL     1       1.795  -0.947  -1.630  0.00  0.00    +0.061 C 
ATOM      3  C   UNL     1       0.345  -1.245  -1.251  0.00  0.00    -0.020 C 
ATOM      4  C   UNL     1       0.201  -0.721   0.193  0.00  0.00    -0.020 C 
ATOM      5  C   UNL     1       0.926  -1.699   1.169  0.00  0.00    -0.059 C 
ATOM      6  C   UNL     1      -1.312  -0.599   0.661  0.00  0.00    -0.025 C 
ATOM      7  C   UNL     1      -2.066  -1.941   0.502  0.00  0.00    -0.048 C 
ATOM      8  C   UNL     1      -3.382  -2.034   1.285  0.00  0.00    -0.046 C 
ATOM      9  C   UNL     1      -4.614  -1.555   0.486  0.00  0.00    -0.009 C 
ATOM     10  C   UNL     1      -4.585  -0.070   0.163  0.00  0.00    -0.069 C 
ATOM     11  C   UNL     1      -5.631   0.435  -0.517  0.00  0.00    -0.082 C 
ATOM     12  C   UNL     1      -6.827  -0.419  -0.795  0.00  0.00    -0.011 C 
ATOM     13  C   UNL     1      -7.197  -1.215   0.471  0.00  0.00    +0.067 C 
ATOM     14  N   UNL     1      -8.363  -2.059   0.163  0.00  0.00    -0.250 NA
ATOM     15  C   UNL     1      -8.127  -3.239  -0.288  0.00  0.00    +0.188 C 
ATOM     16  O   UNL     1      -6.896  -3.787  -0.280  0.00  0.00    -0.479 OA
ATOM     17  C   UNL     1      -6.223  -3.495   0.943  0.00  0.00    +0.099 C 
ATOM     18  C   UNL     1      -6.001  -1.982   1.125  0.00  0.00    +0.031 C 
ATOM     19  C   UNL     1      -6.006  -1.687   2.644  0.00  0.00    -0.054 C 
ATOM     20  C   UNL     1      -3.469   0.830   0.630  0.00  0.00    -0.022 C 
ATOM     21  C   UNL     1      -2.091   0.565   0.000  0.00  0.00    +0.025 C 
ATOM     22  C   UNL     1      -1.241   1.821   0.129  0.00  0.00    +0.138 C 
ATOM     23  O   UNL     1      -1.598   2.836   0.721  0.00  0.00    -0.297 OA
ATOM     24  C   UNL     1       0.099   1.752  -0.544  0.00  0.00    +0.012 C 
ATOM     25  C   UNL     1       0.980   0.657   0.108  0.00  0.00    -0.013 C 
ATOM     26  C   UNL     1       1.368   1.155   1.519  0.00  0.00    -0.058 C 
ENDROOT
BRANCH  15  27
ATOM     27  C   UNL     1      -9.233  -4.144  -0.795  0.00  0.00    +0.029 C 
ATOM     28  C   UNL     1     -10.142  -3.378  -1.756  0.00  0.00    -0.054 C 
ATOM     29  C   UNL     1      -8.715  -5.413  -1.469  0.00  0.00    -0.054 C 
ENDBRANCH  15  27
BRANCH   1  30
ATOM     30  C   UNL     1       3.644   0.495  -0.383  0.00  0.00    +0.010 C 
ATOM     31  C   UNL     1       4.049   1.969  -0.209  0.00  0.00    -0.049 C 
BRANCH  30  33
ATOM     32  C   UNL     1       5.935  -0.279  -0.782  0.00  0.00    -0.016 C 
ATOM     33  N   UNL     1       4.593  -0.124  -1.336  0.00  0.00    -0.316 N 
ATOM     34  H   UNL     1       4.240  -1.045  -1.595  0.00  0.00    +0.000 HD
ATOM     35  H   UNL     1       4.665   0.496  -2.143  0.00  0.00    +0.000 HD
ENDBRANCH  30  33
ENDBRANCH   1  30
BRANCH   2  36
ATOM     36  O   UNL     1       2.622  -2.043  -1.246  0.00  0.00    -0.391 OA
ATOM     37  H   UNL     1       2.537  -2.193  -0.291  0.00  0.00    +0.000 HD
ENDBRANCH   2  36
TORSDOF 4
