REMARK  Name = cpd136.pdb
REMARK  7 active torsions:
REMARK  status: ('A' for Active; 'I' for Inactive)
REMARK    1  A    between atoms: C_1  and  O_2
REMARK    2  A    between atoms: O_2  and  C_3
REMARK    3  A    between atoms: C_9  and  C_10
REMARK    4  A    between atoms: C_10  and  C_12
REMARK    5  A    between atoms: C_13  and  C_14
REMARK    6  A    between atoms: N_18  and  C_19
REMARK    7  A    between atoms: C_19  and  C_20
REMARK                            x       y       z     vdW  Elec       q    Type
REMARK                         _______ _______ _______ _____ _____    ______ ____
ROOT
ATOM      1  C   UNL A   1      -3.118  -0.417  -1.481  0.00  0.00    -0.011 C 
ATOM      2  C   UNL A   1      -3.451  -1.049  -0.345  0.00  0.00    -0.049 C 
ENDROOT
BRANCH   2   3
ATOM      3  C   UNL A   1      -4.799  -1.566  -0.073  0.00  0.00    -0.009 A 
ATOM      4  C   UNL A   1      -4.943  -2.783   0.589  0.00  0.00    -0.052 A 
ATOM      5  C   UNL A   1      -6.213  -3.265   0.883  0.00  0.00    -0.045 A 
ATOM      6  C   UNL A   1      -7.328  -2.516   0.529  0.00  0.00    +0.005 A 
ATOM      7  N   UNL A   1      -7.187  -1.317  -0.084  0.00  0.00    -0.348 N 
ATOM      8  C   UNL A   1      -5.954  -0.844  -0.392  0.00  0.00    +0.012 A 
BRANCH   7   9
ATOM      9  C   UNL A   1      -8.397  -0.531  -0.455  0.00  0.00    +0.049 C 
BRANCH   9  10
ATOM     10  C   UNL A   1      -8.430   0.830   0.202  0.00  0.00    -0.008 A 
ATOM     11  C   UNL A   1      -8.211   1.973  -0.592  0.00  0.00    -0.055 A 
ATOM     12  C   UNL A   1      -8.219   3.248  -0.028  0.00  0.00    -0.060 A 
ATOM     13  C   UNL A   1      -8.450   3.407   1.336  0.00  0.00    -0.042 A 
ATOM     14  C   UNL A   1      -8.682   2.291   2.142  0.00  0.00    +0.060 A 
ATOM     15 CL   UNL A   1      -8.963   2.569   3.824  0.00  0.00    -0.082 Cl
ATOM     16  C   UNL A   1      -8.677   1.003   1.581  0.00  0.00    +0.064 A 
ATOM     17 CL   UNL A   1      -8.983  -0.385   2.575  0.00  0.00    -0.082 Cl
ENDBRANCH   9  10
ENDBRANCH   7   9
ENDBRANCH   2   3
BRANCH   1  18
ATOM     18  C   UNL A   1      -1.787   0.215  -1.740  0.00  0.00    +0.221 C 
ATOM     19  O   UNL A   1      -1.819   1.251  -2.406  0.00  0.00    -0.284 OA
BRANCH  18  26
ATOM     20  C   UNL A   1       2.807   0.121  -0.220  0.00  0.00    +0.163 A 
ATOM     21  C   UNL A   1       3.702  -0.858   0.237  0.00  0.00    -0.016 A 
ATOM     22  C   UNL A   1       3.327  -2.203   0.340  0.00  0.00    -0.058 A 
ATOM     23  C   UNL A   1       2.037  -2.626  -0.006  0.00  0.00    -0.051 A 
ATOM     24  C   UNL A   1       1.119  -1.667  -0.462  0.00  0.00    +0.025 A 
ATOM     25  C   UNL A   1      -0.234  -1.690  -0.896  0.00  0.00    -0.005 A 
ATOM     26  C   UNL A   1      -0.577  -0.391  -1.228  0.00  0.00    +0.176 A 
ATOM     27  O   UNL A   1       0.503   0.424  -1.028  0.00  0.00    -0.448 OA
ATOM     28  C   UNL A   1       1.528  -0.342  -0.556  0.00  0.00    +0.177 A 
BRANCH  20  30
ATOM     29  C   UNL A   1       4.405   1.877  -0.116  0.00  0.00    +0.079 C 
ATOM     30  O   UNL A   1       3.069   1.454  -0.352  0.00  0.00    -0.491 OA
ENDBRANCH  20  30
ENDBRANCH  18  26
ENDBRANCH   1  18
TORSDOF 6
