REMARK  Name = cpd315.pdb
REMARK  8 active torsions:
REMARK  status: ('A' for Active; 'I' for Inactive)
REMARK    1  A    between atoms: C_1  and  C_2
REMARK    2  A    between atoms: C_2  and  O_3
REMARK    3  A    between atoms: O_3  and  C_4
REMARK    4  A    between atoms: C_4  and  C_6
REMARK    5  A    between atoms: C_6  and  N_7
REMARK    6  A    between atoms: C_13  and  O_14
REMARK    7  A    between atoms: C_19  and  O_20
REMARK    8  A    between atoms: O_20  and  C_21
REMARK                            x       y       z     vdW  Elec       q    Type
REMARK                         _______ _______ _______ _____ _____    ______ ____
ROOT
ATOM      1  N   UNL     1       0.589   0.913   0.960  0.00  0.00    -0.288 N 
ATOM      2  C   UNL     1       1.852   0.386   1.517  0.00  0.00    +0.001 C 
ATOM      3  C   UNL     1       2.059  -1.150   1.524  0.00  0.00    -0.023 C 
ATOM      4  C   UNL     1       2.161  -1.782   0.116  0.00  0.00    +0.056 C 
ATOM      5  C   UNL     1       3.299  -1.168  -0.658  0.00  0.00    -0.071 C 
ATOM      6  C   UNL     1       4.533  -1.708  -0.578  0.00  0.00    -0.059 C 
ATOM      7  C   UNL     1       4.860  -2.974   0.188  0.00  0.00    +0.077 C 
ATOM      8  C   UNL     1       3.645  -3.728   0.776  0.00  0.00    +0.015 C 
ATOM      9  C   UNL     1       2.403  -3.309   0.006  0.00  0.00    +0.116 C 
ATOM     10  O   UNL     1       1.185  -3.986   0.333  0.00  0.00    -0.484 OA
ATOM     11  C   UNL     1       0.255  -3.139  -0.254  0.00  0.00    +0.167 A 
ATOM     12  C   UNL     1      -1.065  -3.448  -0.540  0.00  0.00    +0.162 A 
ATOM     13  C   UNL     1      -1.885  -2.395  -0.960  0.00  0.00    -0.016 A 
ATOM     14  C   UNL     1      -1.409  -1.072  -1.018  0.00  0.00    -0.053 A 
ATOM     15  C   UNL     1      -0.076  -0.772  -0.702  0.00  0.00    -0.026 A 
ATOM     16  C   UNL     1       0.765  -1.836  -0.413  0.00  0.00    +0.016 A 
ATOM     17  C   UNL     1       0.383   0.646  -0.475  0.00  0.00    +0.025 C 
ATOM     18  H   UNL     1      -0.150   0.390   1.430  0.00  0.00    +0.000 HD
ENDROOT
BRANCH   7  19
ATOM     19  O   UNL     1       5.518  -3.824  -0.749  0.00  0.00    -0.388 OA
ATOM     20  H   UNL     1       4.918  -4.019  -1.486  0.00  0.00    +0.000 HD
ENDBRANCH   7  19
BRANCH  12  21
ATOM     21  O   UNL     1      -1.696  -4.654  -0.447  0.00  0.00    -0.491 OA
ATOM     22  C   UNL     1      -0.904  -5.774  -0.075  0.00  0.00    +0.079 C 
ENDBRANCH  12  21
BRANCH   1  23
ATOM     23  C   UNL     1       0.441   2.359   1.264  0.00  0.00    +0.097 C 
BRANCH  23  24
ATOM     24  C   UNL     1       1.581   3.228   0.742  0.00  0.00    +0.321 C 
ATOM     25  O   UNL     1       2.522   3.609   1.427  0.00  0.00    -0.249 OA
BRANCH  24  26
ATOM     26  O   UNL     1       1.431   3.479  -0.591  0.00  0.00    -0.464 OA
BRANCH  26  28
ATOM     27  C   UNL     1       2.263   5.694  -1.107  0.00  0.00    -0.031 C 
ATOM     28  C   UNL     1       2.505   4.200  -1.212  0.00  0.00    +0.090 C 
ENDBRANCH  26  28
ENDBRANCH  24  26
ENDBRANCH  23  24
ENDBRANCH   1  23
TORSDOF 6
