@<TRIPOS>MOLECULE
*****
 26 29 0 0 0
SMALL
GASTEIGER

@<TRIPOS>ATOM
      1 C           2.8859    3.2494    0.0000 C.3     1  UNL1        0.0513
      2 C           3.0413    2.2787    0.0000 C.3     1  UNL1        0.2086
      3 O           2.2784    1.6588    0.0000 O.3     1  UNL1       -0.4475
      4 C           1.3600    2.0095    0.0000 C.2     1  UNL1        0.3336
      5 O           1.2046    2.9802    0.0000 O.2     1  UNL1       -0.2485
      6 C           0.5971    1.3895    0.0000 C.3     1  UNL1        0.1835
      7 N           0.7526    0.4188    0.0000 N.3     1  UNL1       -0.2596
      8 C           1.5983    0.2559    0.0000 C.3     1  UNL1        0.0737
      9 C           2.1415   -0.4125    0.0000 C.3     1  UNL1        0.0290
     10 C           2.1279   -1.2736    0.0000 C.3     1  UNL1        0.0780
     11 C           2.9399   -0.8052    0.0000 C.2     1  UNL1       -0.0211
     12 C           3.7513   -1.2740    0.0000 C.2     1  UNL1        0.0021
     13 C           3.7511   -2.2115    0.0000 C.3     1  UNL1        0.1773
     14 O           4.5821   -2.6915    0.0000 O.3     1  UNL1       -0.2182
     15 C           2.9395   -2.6799    0.0000 C.3     1  UNL1        0.0816
     16 C           2.1277   -2.2112    0.0000 C.3     1  UNL1        0.1762
     17 O           1.3162   -2.6796    0.0000 O.3     1  UNL1       -0.4757
     18 C           0.5044   -2.2109    0.0000 C.ar    1  UNL1        0.1682
     19 C          -0.3077   -2.6793    0.0000 C.ar    1  UNL1        0.1721
     20 O          -0.3080   -3.6163    0.0000 O.3     1  UNL1       -0.4684
     21 C           0.5033   -4.0850    0.0000 C.3     1  UNL1        0.2526
     22 C          -1.1190   -2.2106    0.0000 C.ar    1  UNL1        0.0397
     23 C          -1.1188   -1.2730    0.0000 C.ar    1  UNL1        0.0001
     24 C          -0.3073   -0.8046    0.0000 C.ar    1  UNL1       -0.0066
     25 C           0.5045   -1.2733    0.0000 C.ar    1  UNL1        0.0187
     26 C           0.0000   -0.0000    0.0000 C.3     1  UNL1        0.0994
@<TRIPOS>BOND
     1     1     2    1
     2     2     3    1
     3     3     4    1
     4     4     5    2
     5     4     6    1
     6     6     7    1
     7     7     8    1
     8     8     9    1
     9     9    10    1
    10    10    11    1
    11    11    12    2
    12    12    13    1
    13    13    14    1
    14    13    15    1
    15    15    16    1
    16    10    16    1
    17    16    17    1
    18    17    18    1
    19    18    19   ar
    20    19    20    1
    21    20    21    1
    22    19    22   ar
    23    22    23   ar
    24    23    24   ar
    25    24    25   ar
    26    18    25   ar
    27    10    25    1
    28    24    26    1
    29     7    26    1
