MODEL 1
REMARK VINA RESULT:    -7.365      0.000      0.000
REMARK INTER + INTRA:         -10.038
REMARK INTER:                  -9.733
REMARK INTRA:                  -0.305
REMARK UNBOUND:                -0.305
REMARK  Name = cpd315.pdb
REMARK  8 active torsions:
REMARK  status: ('A' for Active; 'I' for Inactive)
REMARK    1  A    between atoms: C_1  and  C_2
REMARK    2  A    between atoms: C_2  and  O_3
REMARK    3  A    between atoms: O_3  and  C_4
REMARK    4  A    between atoms: C_4  and  C_6
REMARK    5  A    between atoms: C_6  and  N_7
REMARK    6  A    between atoms: C_13  and  O_14
REMARK    7  A    between atoms: C_19  and  O_20
REMARK    8  A    between atoms: O_20  and  C_21
REMARK                            x       y       z     vdW  Elec       q    Type
REMARK                         _______ _______ _______ _____ _____    ______ ____
ROOT
ATOM      1  N   UNL     1      39.181 -36.944 -29.812  0.00  0.00    -0.288 N 
ATOM      2  C   UNL     1      38.779 -37.941 -28.798  0.00  0.00    +0.001 C 
ATOM      3  C   UNL     1      37.419 -37.740 -28.081  0.00  0.00    -0.023 C 
ATOM      4  C   UNL     1      36.189 -37.865 -29.010  0.00  0.00    +0.056 C 
ATOM      5  C   UNL     1      36.163 -39.217 -29.675  0.00  0.00    -0.071 C 
ATOM      6  C   UNL     1      35.528 -40.246 -29.077  0.00  0.00    -0.059 C 
ATOM      7  C   UNL     1      34.742 -40.128 -27.787  0.00  0.00    +0.077 C 
ATOM      8  C   UNL     1      34.571 -38.691 -27.242  0.00  0.00    +0.015 C 
ATOM      9  C   UNL     1      34.776 -37.716 -28.390  0.00  0.00    +0.116 C 
ATOM     10  O   UNL     1      34.549 -36.331 -28.106  0.00  0.00    -0.484 OA
ATOM     11  C   UNL     1      35.158 -35.740 -29.204  0.00  0.00    +0.167 A 
ATOM     12  C   UNL     1      34.976 -34.437 -29.636  0.00  0.00    +0.162 A 
ATOM     13  C   UNL     1      35.824 -33.982 -30.652  0.00  0.00    -0.016 A 
ATOM     14  C   UNL     1      36.861 -34.787 -31.158  0.00  0.00    -0.053 A 
ATOM     15  C   UNL     1      37.048 -36.097 -30.692  0.00  0.00    -0.026 A 
ATOM     16  C   UNL     1      36.125 -36.587 -29.781  0.00  0.00    +0.016 A 
ATOM     17  C   UNL     1      38.305 -36.872 -30.995  0.00  0.00    +0.025 C 
ATOM     18  H   UNL     1      39.075 -36.039 -29.355  0.00  0.00    +0.000 HD
ENDROOT
BRANCH   7  19
ATOM     19  O   UNL     1      33.453 -40.664 -28.079  0.00  0.00    -0.388 OA
ATOM     20  H   UNL     1      33.443 -41.006 -28.986  0.00  0.00    +0.000 HD
ENDBRANCH   7  19
BRANCH  12  21
ATOM     21  O   UNL     1      34.083 -33.509 -29.187  0.00  0.00    -0.491 OA
ATOM     22  C   UNL     1      33.957 -32.310 -29.941  0.00  0.00    +0.079 C 
ENDBRANCH  12  21
BRANCH   1  23
ATOM     23  C   UNL     1      40.600 -37.136 -30.206  0.00  0.00    +0.097 C 
BRANCH  23  24
ATOM     24  C   UNL     1      41.155 -36.035 -31.105  0.00  0.00    +0.321 C 
ATOM     25  O   UNL     1      40.739 -34.883 -31.113  0.00  0.00    -0.249 OA
BRANCH  24  26
ATOM     26  O   UNL     1      42.197 -36.497 -31.855  0.00  0.00    -0.464 OA
BRANCH  26  28
ATOM     27  C   UNL     1      44.277 -36.048 -30.700  0.00  0.00    -0.031 C 
ATOM     28  C   UNL     1      43.270 -37.102 -31.120  0.00  0.00    +0.090 C 
ENDBRANCH  26  28
ENDBRANCH  24  26
ENDBRANCH  23  24
ENDBRANCH   1  23
TORSDOF 6
ENDMDL
MODEL 2
REMARK VINA RESULT:    -7.361      1.837      6.207
REMARK INTER + INTRA:         -10.033
REMARK INTER:                  -9.529
REMARK INTRA:                  -0.505
REMARK UNBOUND:                -0.305
REMARK  Name = cpd315.pdb
REMARK  8 active torsions:
REMARK  status: ('A' for Active; 'I' for Inactive)
REMARK    1  A    between atoms: C_1  and  C_2
REMARK    2  A    between atoms: C_2  and  O_3
REMARK    3  A    between atoms: O_3  and  C_4
REMARK    4  A    between atoms: C_4  and  C_6
REMARK    5  A    between atoms: C_6  and  N_7
REMARK    6  A    between atoms: C_13  and  O_14
REMARK    7  A    between atoms: C_19  and  O_20
REMARK    8  A    between atoms: O_20  and  C_21
REMARK                            x       y       z     vdW  Elec       q    Type
REMARK                         _______ _______ _______ _____ _____    ______ ____
ROOT
ATOM      1  N   UNL     1      35.202 -38.708 -29.000  0.00  0.00    -0.288 N 
ATOM      2  C   UNL     1      36.337 -39.105 -29.857  0.00  0.00    +0.001 C 
ATOM      3  C   UNL     1      36.904 -38.056 -30.847  0.00  0.00    -0.023 C 
ATOM      4  C   UNL     1      37.562 -36.833 -30.167  0.00  0.00    +0.056 C 
ATOM      5  C   UNL     1      38.689 -37.271 -29.267  0.00  0.00    -0.071 C 
ATOM      6  C   UNL     1      39.939 -37.379 -29.762  0.00  0.00    -0.059 C 
ATOM      7  C   UNL     1      40.330 -37.002 -31.177  0.00  0.00    +0.077 C 
ATOM      8  C   UNL     1      39.220 -36.327 -32.016  0.00  0.00    +0.015 C 
ATOM      9  C   UNL     1      38.192 -35.737 -31.064  0.00  0.00    +0.116 C 
ATOM     10  O   UNL     1      37.137 -34.970 -31.652  0.00  0.00    -0.484 OA
ATOM     11  C   UNL     1      36.239 -34.915 -30.595  0.00  0.00    +0.167 A 
ATOM     12  C   UNL     1      35.177 -34.034 -30.470  0.00  0.00    +0.162 A 
ATOM     13  C   UNL     1      34.282 -34.266 -29.419  0.00  0.00    -0.016 A 
ATOM     14  C   UNL     1      34.415 -35.384 -28.575  0.00  0.00    -0.053 A 
ATOM     15  C   UNL     1      35.482 -36.280 -28.730  0.00  0.00    -0.026 A 
ATOM     16  C   UNL     1      36.437 -35.974 -29.688  0.00  0.00    +0.016 A 
ATOM     17  C   UNL     1      35.493 -37.623 -28.045  0.00  0.00    +0.025 C 
ATOM     18  H   UNL     1      34.510 -38.313 -29.637  0.00  0.00    +0.000 HD
ENDROOT
BRANCH   7  19
ATOM     19  O   UNL     1      41.419 -36.092 -31.039  0.00  0.00    -0.388 OA
ATOM     20  H   UNL     1      41.319 -35.368 -31.677  0.00  0.00    +0.000 HD
ENDBRANCH   7  19
BRANCH  12  21
ATOM     21  O   UNL     1      34.862 -32.964 -31.255  0.00  0.00    -0.491 OA
ATOM     22  C   UNL     1      34.033 -31.961 -30.684  0.00  0.00    +0.079 C 
ENDBRANCH  12  21
BRANCH   1  23
ATOM     23  C   UNL     1      34.622 -39.889 -28.311  0.00  0.00    +0.097 C 
BRANCH  23  24
ATOM     24  C   UNL     1      33.524 -39.551 -27.307  0.00  0.00    +0.321 C 
ATOM     25  O   UNL     1      32.421 -39.117 -27.616  0.00  0.00    -0.249 OA
BRANCH  24  26
ATOM     26  O   UNL     1      33.923 -39.840 -26.034  0.00  0.00    -0.464 OA
BRANCH  26  28
ATOM     27  C   UNL     1      33.902 -37.754 -24.804  0.00  0.00    -0.031 C 
ATOM     28  C   UNL     1      33.255 -39.112 -24.993  0.00  0.00    +0.090 C 
ENDBRANCH  26  28
ENDBRANCH  24  26
ENDBRANCH  23  24
ENDBRANCH   1  23
TORSDOF 6
ENDMDL
MODEL 3
REMARK VINA RESULT:    -7.057      2.545      6.856
REMARK INTER + INTRA:          -9.631
REMARK INTER:                  -9.289
REMARK INTRA:                  -0.342
REMARK UNBOUND:                -0.305
REMARK  Name = cpd315.pdb
REMARK  8 active torsions:
REMARK  status: ('A' for Active; 'I' for Inactive)
REMARK    1  A    between atoms: C_1  and  C_2
REMARK    2  A    between atoms: C_2  and  O_3
REMARK    3  A    between atoms: O_3  and  C_4
REMARK    4  A    between atoms: C_4  and  C_6
REMARK    5  A    between atoms: C_6  and  N_7
REMARK    6  A    between atoms: C_13  and  O_14
REMARK    7  A    between atoms: C_19  and  O_20
REMARK    8  A    between atoms: O_20  and  C_21
REMARK                            x       y       z     vdW  Elec       q    Type
REMARK                         _______ _______ _______ _____ _____    ______ ____
ROOT
ATOM      1  N   UNL     1      34.363 -33.629 -31.705  0.00  0.00    -0.288 N 
ATOM      2  C   UNL     1      33.909 -35.002 -31.404  0.00  0.00    +0.001 C 
ATOM      3  C   UNL     1      34.956 -36.143 -31.462  0.00  0.00    -0.023 C 
ATOM      4  C   UNL     1      36.066 -36.041 -30.390  0.00  0.00    +0.056 C 
ATOM      5  C   UNL     1      35.467 -36.036 -29.007  0.00  0.00    -0.071 C 
ATOM      6  C   UNL     1      35.268 -37.202 -28.359  0.00  0.00    -0.059 C 
ATOM      7  C   UNL     1      35.689 -38.556 -28.893  0.00  0.00    +0.077 C 
ATOM      8  C   UNL     1      36.518 -38.527 -30.198  0.00  0.00    +0.015 C 
ATOM      9  C   UNL     1      37.147 -37.150 -30.336  0.00  0.00    +0.116 C 
ATOM     10  O   UNL     1      38.047 -36.960 -31.432  0.00  0.00    -0.484 OA
ATOM     11  C   UNL     1      38.126 -35.575 -31.463  0.00  0.00    +0.167 A 
ATOM     12  C   UNL     1      39.097 -34.826 -32.109  0.00  0.00    +0.162 A 
ATOM     13  C   UNL     1      38.890 -33.444 -32.175  0.00  0.00    -0.016 A 
ATOM     14  C   UNL     1      37.716 -32.852 -31.674  0.00  0.00    -0.053 A 
ATOM     15  C   UNL     1      36.731 -33.627 -31.045  0.00  0.00    -0.026 A 
ATOM     16  C   UNL     1      37.000 -34.976 -30.866  0.00  0.00    +0.016 A 
ATOM     17  C   UNL     1      35.355 -33.081 -30.762  0.00  0.00    +0.025 C 
ATOM     18  H   UNL     1      34.860 -33.700 -32.593  0.00  0.00    +0.000 HD
ENDROOT
BRANCH   7  19
ATOM     19  O   UNL     1      36.479 -39.142 -27.861  0.00  0.00    -0.388 OA
ATOM     20  H   UNL     1      36.759 -40.031 -28.132  0.00  0.00    +0.000 HD
ENDBRANCH   7  19
BRANCH  12  21
ATOM     21  O   UNL     1      40.237 -35.258 -32.720  0.00  0.00    -0.491 OA
ATOM     22  C   UNL     1      41.368 -35.496 -31.892  0.00  0.00    +0.079 C 
ENDBRANCH  12  21
BRANCH   1  23
ATOM     23  C   UNL     1      33.205 -32.712 -31.860  0.00  0.00    +0.097 C 
BRANCH  23  24
ATOM     24  C   UNL     1      32.177 -32.807 -30.736  0.00  0.00    +0.321 C 
ATOM     25  O   UNL     1      32.376 -32.422 -29.591  0.00  0.00    -0.249 OA
BRANCH  24  26
ATOM     26  O   UNL     1      31.004 -33.333 -31.193  0.00  0.00    -0.464 OA
BRANCH  26  28
ATOM     27  C   UNL     1      29.305 -31.626 -31.446  0.00  0.00    -0.031 C 
ATOM     28  C   UNL     1      29.811 -32.788 -30.611  0.00  0.00    +0.090 C 
ENDBRANCH  26  28
ENDBRANCH  24  26
ENDBRANCH  23  24
ENDBRANCH   1  23
TORSDOF 6
ENDMDL
MODEL 4
REMARK VINA RESULT:    -6.932      2.720      5.856
REMARK INTER + INTRA:          -9.466
REMARK INTER:                  -9.198
REMARK INTRA:                  -0.268
REMARK UNBOUND:                -0.305
REMARK  Name = cpd315.pdb
REMARK  8 active torsions:
REMARK  status: ('A' for Active; 'I' for Inactive)
REMARK    1  A    between atoms: C_1  and  C_2
REMARK    2  A    between atoms: C_2  and  O_3
REMARK    3  A    between atoms: O_3  and  C_4
REMARK    4  A    between atoms: C_4  and  C_6
REMARK    5  A    between atoms: C_6  and  N_7
REMARK    6  A    between atoms: C_13  and  O_14
REMARK    7  A    between atoms: C_19  and  O_20
REMARK    8  A    between atoms: O_20  and  C_21
REMARK                            x       y       z     vdW  Elec       q    Type
REMARK                         _______ _______ _______ _____ _____    ______ ____
ROOT
ATOM      1  N   UNL     1      34.723 -36.450 -31.802  0.00  0.00    -0.288 N 
ATOM      2  C   UNL     1      33.722 -37.046 -30.892  0.00  0.00    +0.001 C 
ATOM      3  C   UNL     1      34.236 -37.890 -29.698  0.00  0.00    -0.023 C 
ATOM      4  C   UNL     1      35.032 -37.081 -28.647  0.00  0.00    +0.056 C 
ATOM      5  C   UNL     1      34.190 -35.963 -28.091  0.00  0.00    -0.071 C 
ATOM      6  C   UNL     1      33.420 -36.179 -27.004  0.00  0.00    -0.059 C 
ATOM      7  C   UNL     1      33.398 -37.477 -26.222  0.00  0.00    +0.077 C 
ATOM      8  C   UNL     1      34.442 -38.532 -26.654  0.00  0.00    +0.015 C 
ATOM      9  C   UNL     1      35.564 -37.820 -27.392  0.00  0.00    +0.116 C 
ATOM     10  O   UNL     1      36.688 -38.619 -27.779  0.00  0.00    -0.484 OA
ATOM     11  C   UNL     1      37.296 -37.777 -28.700  0.00  0.00    +0.167 A 
ATOM     12  C   UNL     1      38.597 -37.880 -29.166  0.00  0.00    +0.162 A 
ATOM     13  C   UNL     1      38.956 -37.046 -30.230  0.00  0.00    -0.016 A 
ATOM     14  C   UNL     1      38.019 -36.196 -30.845  0.00  0.00    -0.053 A 
ATOM     15  C   UNL     1      36.699 -36.121 -30.377  0.00  0.00    -0.026 A 
ATOM     16  C   UNL     1      36.383 -36.852 -29.242  0.00  0.00    +0.016 A 
ATOM     17  C   UNL     1      35.612 -35.452 -31.180  0.00  0.00    +0.025 C 
ATOM     18  H   UNL     1      35.339 -37.220 -32.063  0.00  0.00    +0.000 HD
ENDROOT
BRANCH   7  19
ATOM     19  O   UNL     1      33.652 -37.108 -24.868  0.00  0.00    -0.388 OA
ATOM     20  H   UNL     1      34.544 -37.394 -24.616  0.00  0.00    +0.000 HD
ENDBRANCH   7  19
BRANCH  12  21
ATOM     21  O   UNL     1      39.590 -38.712 -28.739  0.00  0.00    -0.491 OA
ATOM     22  C   UNL     1      40.568 -38.162 -27.866  0.00  0.00    +0.079 C 
ENDBRANCH  12  21
BRANCH   1  23
ATOM     23  C   UNL     1      34.070 -35.904 -33.019  0.00  0.00    +0.097 C 
BRANCH  23  24
ATOM     24  C   UNL     1      32.976 -34.879 -32.736  0.00  0.00    +0.321 C 
ATOM     25  O   UNL     1      31.824 -35.170 -32.439  0.00  0.00    -0.249 OA
BRANCH  24  26
ATOM     26  O   UNL     1      33.468 -33.608 -32.812  0.00  0.00    -0.464 OA
BRANCH  26  28
ATOM     27  C   UNL     1      34.373 -31.902 -31.352  0.00  0.00    -0.031 C 
ATOM     28  C   UNL     1      33.169 -32.758 -31.696  0.00  0.00    +0.090 C 
ENDBRANCH  26  28
ENDBRANCH  24  26
ENDBRANCH  23  24
ENDBRANCH   1  23
TORSDOF 6
ENDMDL
MODEL 5
REMARK VINA RESULT:    -6.838      2.052      6.132
REMARK INTER + INTRA:          -9.342
REMARK INTER:                  -8.701
REMARK INTRA:                  -0.641
REMARK UNBOUND:                -0.305
REMARK  Name = cpd315.pdb
REMARK  8 active torsions:
REMARK  status: ('A' for Active; 'I' for Inactive)
REMARK    1  A    between atoms: C_1  and  C_2
REMARK    2  A    between atoms: C_2  and  O_3
REMARK    3  A    between atoms: O_3  and  C_4
REMARK    4  A    between atoms: C_4  and  C_6
REMARK    5  A    between atoms: C_6  and  N_7
REMARK    6  A    between atoms: C_13  and  O_14
REMARK    7  A    between atoms: C_19  and  O_20
REMARK    8  A    between atoms: O_20  and  C_21
REMARK                            x       y       z     vdW  Elec       q    Type
REMARK                         _______ _______ _______ _____ _____    ______ ____
ROOT
ATOM      1  N   UNL     1      34.803 -39.335 -28.910  0.00  0.00    -0.288 N 
ATOM      2  C   UNL     1      36.045 -39.654 -29.646  0.00  0.00    +0.001 C 
ATOM      3  C   UNL     1      36.744 -38.510 -30.423  0.00  0.00    -0.023 C 
ATOM      4  C   UNL     1      37.306 -37.384 -29.524  0.00  0.00    +0.056 C 
ATOM      5  C   UNL     1      38.298 -37.942 -28.536  0.00  0.00    -0.071 C 
ATOM      6  C   UNL     1      39.604 -38.016 -28.866  0.00  0.00    -0.059 C 
ATOM      7  C   UNL     1      40.186 -37.489 -30.162  0.00  0.00    +0.077 C 
ATOM      8  C   UNL     1      39.203 -36.703 -31.061  0.00  0.00    +0.015 C 
ATOM      9  C   UNL     1      38.056 -36.206 -30.196  0.00  0.00    +0.116 C 
ATOM     10  O   UNL     1      37.093 -35.358 -30.830  0.00  0.00    -0.484 OA
ATOM     11  C   UNL     1      36.060 -35.406 -29.905  0.00  0.00    +0.167 A 
ATOM     12  C   UNL     1      34.993 -34.526 -29.826  0.00  0.00    +0.162 A 
ATOM     13  C   UNL     1      33.962 -34.858 -28.940  0.00  0.00    -0.016 A 
ATOM     14  C   UNL     1      33.975 -36.067 -28.219  0.00  0.00    -0.053 A 
ATOM     15  C   UNL     1      35.051 -36.959 -28.329  0.00  0.00    -0.026 A 
ATOM     16  C   UNL     1      36.129 -36.564 -29.107  0.00  0.00    +0.016 A 
ATOM     17  C   UNL     1      34.965 -38.371 -27.807  0.00  0.00    +0.025 C 
ATOM     18  H   UNL     1      34.207 -38.858 -29.586  0.00  0.00    +0.000 HD
ENDROOT
BRANCH   7  19
ATOM     19  O   UNL     1      41.248 -36.620 -29.775  0.00  0.00    -0.388 OA
ATOM     20  H   UNL     1      40.921 -35.708 -29.731  0.00  0.00    +0.000 HD
ENDBRANCH   7  19
BRANCH  12  21
ATOM     21  O   UNL     1      34.791 -33.368 -30.519  0.00  0.00    -0.491 OA
ATOM     22  C   UNL     1      34.102 -33.465 -31.758  0.00  0.00    +0.079 C 
ENDBRANCH  12  21
BRANCH   1  23
ATOM     23  C   UNL     1      34.132 -40.575 -28.446  0.00  0.00    +0.097 C 
BRANCH  23  24
ATOM     24  C   UNL     1      32.777 -40.835 -29.098  0.00  0.00    +0.321 C 
ATOM     25  O   UNL     1      31.759 -41.115 -28.477  0.00  0.00    -0.249 OA
BRANCH  24  26
ATOM     26  O   UNL     1      32.847 -40.667 -30.451  0.00  0.00    -0.464 OA
BRANCH  26  28
ATOM     27  C   UNL     1      34.180 -41.361 -32.350  0.00  0.00    -0.031 C 
ATOM     28  C   UNL     1      33.302 -41.806 -31.195  0.00  0.00    +0.090 C 
ENDBRANCH  26  28
ENDBRANCH  24  26
ENDBRANCH  23  24
ENDBRANCH   1  23
TORSDOF 6
ENDMDL
MODEL 6
REMARK VINA RESULT:    -6.694      2.251      6.808
REMARK INTER + INTRA:          -9.152
REMARK INTER:                  -8.609
REMARK INTRA:                  -0.542
REMARK UNBOUND:                -0.305
REMARK  Name = cpd315.pdb
REMARK  8 active torsions:
REMARK  status: ('A' for Active; 'I' for Inactive)
REMARK    1  A    between atoms: C_1  and  C_2
REMARK    2  A    between atoms: C_2  and  O_3
REMARK    3  A    between atoms: O_3  and  C_4
REMARK    4  A    between atoms: C_4  and  C_6
REMARK    5  A    between atoms: C_6  and  N_7
REMARK    6  A    between atoms: C_13  and  O_14
REMARK    7  A    between atoms: C_19  and  O_20
REMARK    8  A    between atoms: O_20  and  C_21
REMARK                            x       y       z     vdW  Elec       q    Type
REMARK                         _______ _______ _______ _____ _____    ______ ____
ROOT
ATOM      1  N   UNL     1      34.200 -36.651 -30.013  0.00  0.00    -0.288 N 
ATOM      2  C   UNL     1      35.437 -35.949 -29.611  0.00  0.00    +0.001 C 
ATOM      3  C   UNL     1      36.528 -36.765 -28.871  0.00  0.00    -0.023 C 
ATOM      4  C   UNL     1      37.177 -37.877 -29.727  0.00  0.00    +0.056 C 
ATOM      5  C   UNL     1      37.801 -37.293 -30.968  0.00  0.00    -0.071 C 
ATOM      6  C   UNL     1      39.086 -36.882 -30.943  0.00  0.00    -0.059 C 
ATOM      7  C   UNL     1      40.007 -37.042 -29.751  0.00  0.00    +0.077 C 
ATOM      8  C   UNL     1      39.432 -37.859 -28.571  0.00  0.00    +0.015 C 
ATOM      9  C   UNL     1      38.305 -38.733 -29.097  0.00  0.00    +0.116 C 
ATOM     10  O   UNL     1      37.716 -39.649 -28.170  0.00  0.00    -0.484 OA
ATOM     11  C   UNL     1      36.551 -39.985 -28.846  0.00  0.00    +0.167 A 
ATOM     12  C   UNL     1      35.739 -41.077 -28.583  0.00  0.00    +0.162 A 
ATOM     13  C   UNL     1      34.514 -41.132 -29.256  0.00  0.00    -0.016 A 
ATOM     14  C   UNL     1      34.095 -40.090 -30.103  0.00  0.00    -0.053 A 
ATOM     15  C   UNL     1      34.918 -38.979 -30.340  0.00  0.00    -0.026 A 
ATOM     16  C   UNL     1      36.184 -38.992 -29.775  0.00  0.00    +0.016 A 
ATOM     17  C   UNL     1      34.390 -37.730 -30.999  0.00  0.00    +0.025 C 
ATOM     18  H   UNL     1      33.874 -37.124 -29.170  0.00  0.00    +0.000 HD
ENDROOT
BRANCH   7  19
ATOM     19  O   UNL     1      41.162 -37.712 -30.252  0.00  0.00    -0.388 OA
ATOM     20  H   UNL     1      40.933 -38.627 -30.478  0.00  0.00    +0.000 HD
ENDBRANCH   7  19
BRANCH  12  21
ATOM     21  O   UNL     1      35.962 -42.116 -27.726  0.00  0.00    -0.491 OA
ATOM     22  C   UNL     1      34.820 -42.770 -27.190  0.00  0.00    +0.079 C 
ENDBRANCH  12  21
BRANCH   1  23
ATOM     23  C   UNL     1      33.169 -35.684 -30.466  0.00  0.00    +0.097 C 
BRANCH  23  24
ATOM     24  C   UNL     1      32.550 -34.856 -29.344  0.00  0.00    +0.321 C 
ATOM     25  O   UNL     1      32.316 -35.288 -28.222  0.00  0.00    -0.249 OA
BRANCH  24  26
ATOM     26  O   UNL     1      32.340 -33.569 -29.746  0.00  0.00    -0.464 OA
BRANCH  26  28
ATOM     27  C   UNL     1      34.223 -32.144 -30.283  0.00  0.00    -0.031 C 
ATOM     28  C   UNL     1      33.179 -33.108 -30.815  0.00  0.00    +0.090 C 
ENDBRANCH  26  28
ENDBRANCH  24  26
ENDBRANCH  23  24
ENDBRANCH   1  23
TORSDOF 6
ENDMDL
MODEL 7
REMARK VINA RESULT:    -6.499     19.119     21.273
REMARK INTER + INTRA:          -8.894
REMARK INTER:                  -8.147
REMARK INTRA:                  -0.747
REMARK UNBOUND:                -0.305
REMARK  Name = cpd315.pdb
REMARK  8 active torsions:
REMARK  status: ('A' for Active; 'I' for Inactive)
REMARK    1  A    between atoms: C_1  and  C_2
REMARK    2  A    between atoms: C_2  and  O_3
REMARK    3  A    between atoms: O_3  and  C_4
REMARK    4  A    between atoms: C_4  and  C_6
REMARK    5  A    between atoms: C_6  and  N_7
REMARK    6  A    between atoms: C_13  and  O_14
REMARK    7  A    between atoms: C_19  and  O_20
REMARK    8  A    between atoms: O_20  and  C_21
REMARK                            x       y       z     vdW  Elec       q    Type
REMARK                         _______ _______ _______ _____ _____    ______ ____
ROOT
ATOM      1  N   UNL     1      46.169 -18.356 -37.212  0.00  0.00    -0.288 N 
ATOM      2  C   UNL     1      47.075 -19.458 -37.596  0.00  0.00    +0.001 C 
ATOM      3  C   UNL     1      46.462 -20.686 -38.318  0.00  0.00    -0.023 C 
ATOM      4  C   UNL     1      45.889 -20.375 -39.720  0.00  0.00    +0.056 C 
ATOM      5  C   UNL     1      46.959 -19.803 -40.614  0.00  0.00    -0.071 C 
ATOM      6  C   UNL     1      47.721 -20.629 -41.361  0.00  0.00    -0.059 C 
ATOM      7  C   UNL     1      47.526 -22.130 -41.439  0.00  0.00    +0.077 C 
ATOM      8  C   UNL     1      46.277 -22.677 -40.710  0.00  0.00    +0.015 C 
ATOM      9  C   UNL     1      45.282 -21.539 -40.546  0.00  0.00    +0.116 C 
ATOM     10  O   UNL     1      44.008 -21.875 -39.987  0.00  0.00    -0.484 OA
ATOM     11  C   UNL     1      43.533 -20.613 -39.654  0.00  0.00    +0.167 A 
ATOM     12  C   UNL     1      42.217 -20.284 -39.374  0.00  0.00    +0.162 A 
ATOM     13  C   UNL     1      41.978 -18.997 -38.879  0.00  0.00    -0.016 A 
ATOM     14  C   UNL     1      43.034 -18.106 -38.610  0.00  0.00    -0.053 A 
ATOM     15  C   UNL     1      44.363 -18.464 -38.877  0.00  0.00    -0.026 A 
ATOM     16  C   UNL     1      44.583 -19.689 -39.489  0.00  0.00    +0.016 A 
ATOM     17  C   UNL     1      45.521 -17.662 -38.340  0.00  0.00    +0.025 C 
ATOM     18  H   UNL     1      45.402 -18.803 -36.708  0.00  0.00    +0.000 HD
ENDROOT
BRANCH   7  19
ATOM     19  O   UNL     1      47.413 -22.425 -42.829  0.00  0.00    -0.388 OA
ATOM     20  H   UNL     1      48.219 -22.140 -43.287  0.00  0.00    +0.000 HD
ENDBRANCH   7  19
BRANCH  12  21
ATOM     21  O   UNL     1      41.101 -21.060 -39.494  0.00  0.00    -0.491 OA
ATOM     22  C   UNL     1      39.954 -20.667 -38.753  0.00  0.00    +0.079 C 
ENDBRANCH  12  21
BRANCH   1  23
ATOM     23  C   UNL     1      46.858 -17.395 -36.314  0.00  0.00    +0.097 C 
BRANCH  23  24
ATOM     24  C   UNL     1      46.630 -17.654 -34.828  0.00  0.00    +0.321 C 
ATOM     25  O   UNL     1      47.527 -17.892 -34.028  0.00  0.00    -0.249 OA
BRANCH  24  26
ATOM     26  O   UNL     1      45.308 -17.540 -34.510  0.00  0.00    -0.464 OA
BRANCH  26  28
ATOM     27  C   UNL     1      43.818 -19.409 -34.895  0.00  0.00    -0.031 C 
ATOM     28  C   UNL     1      44.713 -18.695 -33.901  0.00  0.00    +0.090 C 
ENDBRANCH  26  28
ENDBRANCH  24  26
ENDBRANCH  23  24
ENDBRANCH   1  23
TORSDOF 6
ENDMDL
MODEL 8
REMARK VINA RESULT:    -6.498      2.707      5.425
REMARK INTER + INTRA:          -8.893
REMARK INTER:                  -8.632
REMARK INTRA:                  -0.261
REMARK UNBOUND:                -0.305
REMARK  Name = cpd315.pdb
REMARK  8 active torsions:
REMARK  status: ('A' for Active; 'I' for Inactive)
REMARK    1  A    between atoms: C_1  and  C_2
REMARK    2  A    between atoms: C_2  and  O_3
REMARK    3  A    between atoms: O_3  and  C_4
REMARK    4  A    between atoms: C_4  and  C_6
REMARK    5  A    between atoms: C_6  and  N_7
REMARK    6  A    between atoms: C_13  and  O_14
REMARK    7  A    between atoms: C_19  and  O_20
REMARK    8  A    between atoms: O_20  and  C_21
REMARK                            x       y       z     vdW  Elec       q    Type
REMARK                         _______ _______ _______ _____ _____    ______ ____
ROOT
ATOM      1  N   UNL     1      35.523 -37.010 -30.270  0.00  0.00    -0.288 N 
ATOM      2  C   UNL     1      34.950 -36.124 -31.304  0.00  0.00    +0.001 C 
ATOM      3  C   UNL     1      33.607 -35.416 -30.992  0.00  0.00    -0.023 C 
ATOM      4  C   UNL     1      33.686 -34.385 -29.842  0.00  0.00    +0.056 C 
ATOM      5  C   UNL     1      34.706 -33.321 -30.155  0.00  0.00    -0.071 C 
ATOM      6  C   UNL     1      34.331 -32.207 -30.818  0.00  0.00    -0.059 C 
ATOM      7  C   UNL     1      32.902 -31.893 -31.214  0.00  0.00    +0.077 C 
ATOM      8  C   UNL     1      31.833 -32.872 -30.677  0.00  0.00    +0.015 C 
ATOM      9  C   UNL     1      32.408 -33.593 -29.469  0.00  0.00    +0.116 C 
ATOM     10  O   UNL     1      31.522 -34.467 -28.761  0.00  0.00    -0.484 OA
ATOM     11  C   UNL     1      32.431 -35.193 -28.003  0.00  0.00    +0.167 A 
ATOM     12  C   UNL     1      32.134 -35.964 -26.890  0.00  0.00    +0.162 A 
ATOM     13  C   UNL     1      33.164 -36.764 -26.381  0.00  0.00    -0.016 A 
ATOM     14  C   UNL     1      34.418 -36.837 -27.015  0.00  0.00    -0.053 A 
ATOM     15  C   UNL     1      34.694 -36.069 -28.156  0.00  0.00    -0.026 A 
ATOM     16  C   UNL     1      33.716 -35.181 -28.578  0.00  0.00    +0.016 A 
ATOM     17  C   UNL     1      35.903 -36.336 -29.015  0.00  0.00    +0.025 C 
ATOM     18  H   UNL     1      34.765 -37.640 -30.007  0.00  0.00    +0.000 HD
ENDROOT
BRANCH   7  19
ATOM     19  O   UNL     1      32.641 -30.593 -30.688  0.00  0.00    -0.388 OA
ATOM     20  H   UNL     1      33.413 -30.024 -30.832  0.00  0.00    +0.000 HD
ENDBRANCH   7  19
BRANCH  12  21
ATOM     21  O   UNL     1      30.951 -36.071 -26.220  0.00  0.00    -0.491 OA
ATOM     22  C   UNL     1      30.809 -37.165 -25.324  0.00  0.00    +0.079 C 
ENDBRANCH  12  21
BRANCH   1  23
ATOM     23  C   UNL     1      36.654 -37.800 -30.820  0.00  0.00    +0.097 C 
BRANCH  23  24
ATOM     24  C   UNL     1      38.010 -37.109 -30.713  0.00  0.00    +0.321 C 
ATOM     25  O   UNL     1      38.848 -37.371 -29.858  0.00  0.00    -0.249 OA
BRANCH  24  26
ATOM     26  O   UNL     1      38.176 -36.203 -31.720  0.00  0.00    -0.464 OA
BRANCH  26  28
ATOM     27  C   UNL     1      40.326 -35.905 -32.792  0.00  0.00    -0.031 C 
ATOM     28  C   UNL     1      39.396 -35.450 -31.683  0.00  0.00    +0.090 C 
ENDBRANCH  26  28
ENDBRANCH  24  26
ENDBRANCH  23  24
ENDBRANCH   1  23
TORSDOF 6
ENDMDL
MODEL 9
REMARK VINA RESULT:    -6.430     20.745     23.137
REMARK INTER + INTRA:          -8.803
REMARK INTER:                  -8.420
REMARK INTRA:                  -0.384
REMARK UNBOUND:                -0.305
REMARK  Name = cpd315.pdb
REMARK  8 active torsions:
REMARK  status: ('A' for Active; 'I' for Inactive)
REMARK    1  A    between atoms: C_1  and  C_2
REMARK    2  A    between atoms: C_2  and  O_3
REMARK    3  A    between atoms: O_3  and  C_4
REMARK    4  A    between atoms: C_4  and  C_6
REMARK    5  A    between atoms: C_6  and  N_7
REMARK    6  A    between atoms: C_13  and  O_14
REMARK    7  A    between atoms: C_19  and  O_20
REMARK    8  A    between atoms: O_20  and  C_21
REMARK                            x       y       z     vdW  Elec       q    Type
REMARK                         _______ _______ _______ _____ _____    ______ ____
ROOT
ATOM      1  N   UNL     1      47.251 -19.494 -40.384  0.00  0.00    -0.288 N 
ATOM      2  C   UNL     1      47.046 -20.059 -39.034  0.00  0.00    +0.001 C 
ATOM      3  C   UNL     1      47.304 -19.140 -37.813  0.00  0.00    -0.023 C 
ATOM      4  C   UNL     1      46.326 -17.946 -37.701  0.00  0.00    +0.056 C 
ATOM      5  C   UNL     1      44.903 -18.435 -37.616  0.00  0.00    -0.071 C 
ATOM      6  C   UNL     1      44.356 -18.700 -36.412  0.00  0.00    -0.059 C 
ATOM      7  C   UNL     1      45.053 -18.458 -35.088  0.00  0.00    +0.077 C 
ATOM      8  C   UNL     1      46.415 -17.732 -35.177  0.00  0.00    +0.015 C 
ATOM      9  C   UNL     1      46.472 -16.981 -36.498  0.00  0.00    +0.116 C 
ATOM     10  O   UNL     1      47.618 -16.152 -36.717  0.00  0.00    -0.484 OA
ATOM     11  C   UNL     1      47.522 -15.938 -38.085  0.00  0.00    +0.167 A 
ATOM     12  C   UNL     1      48.173 -14.949 -38.805  0.00  0.00    +0.162 A 
ATOM     13  C   UNL     1      48.087 -15.020 -40.199  0.00  0.00    -0.016 A 
ATOM     14  C   UNL     1      47.432 -16.088 -40.841  0.00  0.00    -0.053 A 
ATOM     15  C   UNL     1      46.799 -17.095 -40.098  0.00  0.00    -0.026 A 
ATOM     16  C   UNL     1      46.775 -16.949 -38.719  0.00  0.00    +0.016 A 
ATOM     17  C   UNL     1      46.348 -18.384 -40.737  0.00  0.00    +0.025 C 
ATOM     18  H   UNL     1      48.181 -19.075 -40.360  0.00  0.00    +0.000 HD
ENDROOT
BRANCH   7  19
ATOM     19  O   UNL     1      44.153 -17.655 -34.328  0.00  0.00    -0.388 OA
ATOM     20  H   UNL     1      43.292 -17.623 -34.773  0.00  0.00    +0.000 HD
ENDBRANCH   7  19
BRANCH  12  21
ATOM     21  O   UNL     1      48.918 -13.907 -38.336  0.00  0.00    -0.491 OA
ATOM     22  C   UNL     1      49.759 -13.240 -39.268  0.00  0.00    +0.079 C 
ENDBRANCH  12  21
BRANCH   1  23
ATOM     23  C   UNL     1      47.217 -20.563 -41.414  0.00  0.00    +0.097 C 
BRANCH  23  24
ATOM     24  C   UNL     1      46.115 -21.597 -41.206  0.00  0.00    +0.321 C 
ATOM     25  O   UNL     1      44.922 -21.369 -41.364  0.00  0.00    -0.249 OA
BRANCH  24  26
ATOM     26  O   UNL     1      46.642 -22.810 -40.870  0.00  0.00    -0.464 OA
BRANCH  26  28
ATOM     27  C   UNL     1      48.112 -23.994 -42.387  0.00  0.00    -0.031 C 
ATOM     28  C   UNL     1      48.015 -23.013 -41.234  0.00  0.00    +0.090 C 
ENDBRANCH  26  28
ENDBRANCH  24  26
ENDBRANCH  23  24
ENDBRANCH   1  23
TORSDOF 6
ENDMDL
MODEL 10
REMARK VINA RESULT:    -6.364     17.944     21.353
REMARK INTER + INTRA:          -8.715
REMARK INTER:                  -8.156
REMARK INTRA:                  -0.559
REMARK UNBOUND:                -0.305
REMARK  Name = cpd315.pdb
REMARK  8 active torsions:
REMARK  status: ('A' for Active; 'I' for Inactive)
REMARK    1  A    between atoms: C_1  and  C_2
REMARK    2  A    between atoms: C_2  and  O_3
REMARK    3  A    between atoms: O_3  and  C_4
REMARK    4  A    between atoms: C_4  and  C_6
REMARK    5  A    between atoms: C_6  and  N_7
REMARK    6  A    between atoms: C_13  and  O_14
REMARK    7  A    between atoms: C_19  and  O_20
REMARK    8  A    between atoms: O_20  and  C_21
REMARK                            x       y       z     vdW  Elec       q    Type
REMARK                         _______ _______ _______ _____ _____    ______ ____
ROOT
ATOM      1  N   UNL     1      42.567 -20.826 -40.046  0.00  0.00    -0.288 N 
ATOM      2  C   UNL     1      43.398 -21.193 -41.212  0.00  0.00    +0.001 C 
ATOM      3  C   UNL     1      44.752 -20.462 -41.399  0.00  0.00    -0.023 C 
ATOM      4  C   UNL     1      45.789 -20.758 -40.290  0.00  0.00    +0.056 C 
ATOM      5  C   UNL     1      46.071 -22.236 -40.210  0.00  0.00    -0.071 C 
ATOM      6  C   UNL     1      47.058 -22.773 -40.957  0.00  0.00    -0.059 C 
ATOM      7  C   UNL     1      47.992 -21.967 -41.837  0.00  0.00    +0.077 C 
ATOM      8  C   UNL     1      47.852 -20.432 -41.726  0.00  0.00    +0.015 C 
ATOM      9  C   UNL     1      47.192 -20.107 -40.396  0.00  0.00    +0.116 C 
ATOM     10  O   UNL     1      47.074 -18.721 -40.058  0.00  0.00    -0.484 OA
ATOM     11  C   UNL     1      46.145 -18.785 -39.029  0.00  0.00    +0.167 A 
ATOM     12  C   UNL     1      45.884 -17.790 -38.101  0.00  0.00    +0.162 A 
ATOM     13  C   UNL     1      44.781 -17.980 -37.262  0.00  0.00    -0.016 A 
ATOM     14  C   UNL     1      43.934 -19.095 -37.404  0.00  0.00    -0.053 A 
ATOM     15  C   UNL     1      44.199 -20.082 -38.365  0.00  0.00    -0.026 A 
ATOM     16  C   UNL     1      45.365 -19.955 -39.105  0.00  0.00    +0.016 A 
ATOM     17  C   UNL     1      43.171 -21.121 -38.735  0.00  0.00    +0.025 C 
ATOM     18  H   UNL     1      42.497 -19.809 -40.077  0.00  0.00    +0.000 HD
ENDROOT
BRANCH   7  19
ATOM     19  O   UNL     1      49.308 -22.339 -41.432  0.00  0.00    -0.388 OA
ATOM     20  H   UNL     1      49.738 -22.837 -42.145  0.00  0.00    +0.000 HD
ENDBRANCH   7  19
BRANCH  12  21
ATOM     21  O   UNL     1      46.551 -16.616 -37.901  0.00  0.00    -0.491 OA
ATOM     22  C   UNL     1      47.290 -16.488 -36.694  0.00  0.00    +0.079 C 
ENDBRANCH  12  21
BRANCH   1  23
ATOM     23  C   UNL     1      41.210 -21.418 -40.159  0.00  0.00    +0.097 C 
BRANCH  23  24
ATOM     24  C   UNL     1      40.271 -21.053 -39.013  0.00  0.00    +0.321 C 
ATOM     25  O   UNL     1      40.016 -19.903 -38.675  0.00  0.00    -0.249 OA
BRANCH  24  26
ATOM     26  O   UNL     1      39.727 -22.172 -38.454  0.00  0.00    -0.464 OA
BRANCH  26  28
ATOM     27  C   UNL     1      40.667 -22.532 -36.251  0.00  0.00    -0.031 C 
ATOM     28  C   UNL     1      39.452 -22.094 -37.047  0.00  0.00    +0.090 C 
ENDBRANCH  26  28
ENDBRANCH  24  26
ENDBRANCH  23  24
ENDBRANCH   1  23
TORSDOF 6
ENDMDL
MODEL 11
REMARK VINA RESULT:    -6.334     17.608     20.333
REMARK INTER + INTRA:          -8.676
REMARK INTER:                  -8.137
REMARK INTRA:                  -0.539
REMARK UNBOUND:                -0.305
REMARK  Name = cpd315.pdb
REMARK  8 active torsions:
REMARK  status: ('A' for Active; 'I' for Inactive)
REMARK    1  A    between atoms: C_1  and  C_2
REMARK    2  A    between atoms: C_2  and  O_3
REMARK    3  A    between atoms: O_3  and  C_4
REMARK    4  A    between atoms: C_4  and  C_6
REMARK    5  A    between atoms: C_6  and  N_7
REMARK    6  A    between atoms: C_13  and  O_14
REMARK    7  A    between atoms: C_19  and  O_20
REMARK    8  A    between atoms: O_20  and  C_21
REMARK                            x       y       z     vdW  Elec       q    Type
REMARK                         _______ _______ _______ _____ _____    ______ ____
ROOT
ATOM      1  N   UNL     1      44.974 -18.116 -36.886  0.00  0.00    -0.288 N 
ATOM      2  C   UNL     1      43.503 -18.212 -36.992  0.00  0.00    +0.001 C 
ATOM      3  C   UNL     1      42.911 -19.045 -38.158  0.00  0.00    -0.023 C 
ATOM      4  C   UNL     1      43.223 -20.558 -38.078  0.00  0.00    +0.056 C 
ATOM      5  C   UNL     1      42.703 -21.138 -36.788  0.00  0.00    -0.071 C 
ATOM      6  C   UNL     1      41.448 -21.628 -36.730  0.00  0.00    -0.059 C 
ATOM      7  C   UNL     1      40.515 -21.721 -37.921  0.00  0.00    +0.077 C 
ATOM      8  C   UNL     1      41.140 -21.350 -39.286  0.00  0.00    +0.015 C 
ATOM      9  C   UNL     1      42.649 -21.490 -39.175  0.00  0.00    +0.116 C 
ATOM     10  O   UNL     1      43.403 -21.294 -40.377  0.00  0.00    -0.484 OA
ATOM     11  C   UNL     1      44.679 -21.133 -39.855  0.00  0.00    +0.167 A 
ATOM     12  C   UNL     1      45.868 -21.231 -40.561  0.00  0.00    +0.162 A 
ATOM     13  C   UNL     1      47.035 -20.851 -39.890  0.00  0.00    -0.016 A 
ATOM     14  C   UNL     1      46.994 -20.324 -38.585  0.00  0.00    -0.053 A 
ATOM     15  C   UNL     1      45.780 -20.209 -37.894  0.00  0.00    -0.026 A 
ATOM     16  C   UNL     1      44.644 -20.708 -38.513  0.00  0.00    +0.016 A 
ATOM     17  C   UNL     1      45.663 -19.394 -36.631  0.00  0.00    +0.025 C 
ATOM     18  H   UNL     1      45.291 -17.831 -37.812  0.00  0.00    +0.000 HD
ENDROOT
BRANCH   7  19
ATOM     19  O   UNL     1      40.092 -23.082 -37.965  0.00  0.00    -0.388 OA
ATOM     20  H   UNL     1      40.172 -23.475 -37.082  0.00  0.00    +0.000 HD
ENDBRANCH   7  19
BRANCH  12  21
ATOM     21  O   UNL     1      46.062 -21.633 -41.850  0.00  0.00    -0.491 OA
ATOM     22  C   UNL     1      46.796 -22.833 -42.052  0.00  0.00    +0.079 C 
ENDBRANCH  12  21
BRANCH   1  23
ATOM     23  C   UNL     1      45.365 -17.086 -35.890  0.00  0.00    +0.097 C 
BRANCH  23  24
ATOM     24  C   UNL     1      45.574 -17.628 -34.480  0.00  0.00    +0.321 C 
ATOM     25  O   UNL     1      46.643 -18.053 -34.060  0.00  0.00    -0.249 OA
BRANCH  24  26
ATOM     26  O   UNL     1      44.429 -17.528 -33.745  0.00  0.00    -0.464 OA
BRANCH  26  28
ATOM     27  C   UNL     1      43.084 -19.524 -33.477  0.00  0.00    -0.031 C 
ATOM     28  C   UNL     1      44.153 -18.634 -32.872  0.00  0.00    +0.090 C 
ENDBRANCH  26  28
ENDBRANCH  24  26
ENDBRANCH  23  24
ENDBRANCH   1  23
TORSDOF 6
ENDMDL
MODEL 12
REMARK VINA RESULT:    -6.322     18.791     22.096
REMARK INTER + INTRA:          -8.660
REMARK INTER:                  -8.120
REMARK INTRA:                  -0.540
REMARK UNBOUND:                -0.305
REMARK  Name = cpd315.pdb
REMARK  8 active torsions:
REMARK  status: ('A' for Active; 'I' for Inactive)
REMARK    1  A    between atoms: C_1  and  C_2
REMARK    2  A    between atoms: C_2  and  O_3
REMARK    3  A    between atoms: O_3  and  C_4
REMARK    4  A    between atoms: C_4  and  C_6
REMARK    5  A    between atoms: C_6  and  N_7
REMARK    6  A    between atoms: C_13  and  O_14
REMARK    7  A    between atoms: C_19  and  O_20
REMARK    8  A    between atoms: O_20  and  C_21
REMARK                            x       y       z     vdW  Elec       q    Type
REMARK                         _______ _______ _______ _____ _____    ______ ____
ROOT
ATOM      1  N   UNL     1      45.296 -19.619 -36.069  0.00  0.00    -0.288 N 
ATOM      2  C   UNL     1      44.654 -20.477 -37.087  0.00  0.00    +0.001 C 
ATOM      3  C   UNL     1      44.648 -19.983 -38.556  0.00  0.00    -0.023 C 
ATOM      4  C   UNL     1      46.051 -19.895 -39.200  0.00  0.00    +0.056 C 
ATOM      5  C   UNL     1      46.733 -21.238 -39.169  0.00  0.00    -0.071 C 
ATOM      6  C   UNL     1      46.569 -22.098 -40.195  0.00  0.00    -0.059 C 
ATOM      7  C   UNL     1      45.794 -21.777 -41.458  0.00  0.00    +0.077 C 
ATOM      8  C   UNL     1      45.305 -20.316 -41.585  0.00  0.00    +0.015 C 
ATOM      9  C   UNL     1      46.160 -19.445 -40.679  0.00  0.00    +0.116 C 
ATOM     10  O   UNL     1      45.930 -18.033 -40.742  0.00  0.00    -0.484 OA
ATOM     11  C   UNL     1      46.575 -17.617 -39.585  0.00  0.00    +0.167 A 
ATOM     12  C   UNL     1      46.960 -16.320 -39.287  0.00  0.00    +0.162 A 
ATOM     13  C   UNL     1      47.428 -16.081 -37.990  0.00  0.00    -0.016 A 
ATOM     14  C   UNL     1      47.437 -17.095 -37.014  0.00  0.00    -0.053 A 
ATOM     15  C   UNL     1      47.020 -18.397 -37.326  0.00  0.00    -0.026 A 
ATOM     16  C   UNL     1      46.682 -18.659 -38.645  0.00  0.00    +0.016 A 
ATOM     17  C   UNL     1      46.745 -19.418 -36.251  0.00  0.00    +0.025 C 
ATOM     18  H   UNL     1      44.887 -18.694 -36.202  0.00  0.00    +0.000 HD
ENDROOT
BRANCH   7  19
ATOM     19  O   UNL     1      46.689 -22.057 -42.532  0.00  0.00    -0.388 OA
ATOM     20  H   UNL     1      46.997 -22.975 -42.467  0.00  0.00    +0.000 HD
ENDBRANCH   7  19
BRANCH  12  21
ATOM     21  O   UNL     1      46.927 -15.216 -40.088  0.00  0.00    -0.491 OA
ATOM     22  C   UNL     1      47.948 -15.095 -41.069  0.00  0.00    +0.079 C 
ENDBRANCH  12  21
BRANCH   1  23
ATOM     23  C   UNL     1      44.988 -20.103 -34.700  0.00  0.00    +0.097 C 
BRANCH  23  24
ATOM     24  C   UNL     1      44.481 -19.021 -33.752  0.00  0.00    +0.321 C 
ATOM     25  O   UNL     1      45.175 -18.467 -32.909  0.00  0.00    -0.249 OA
BRANCH  24  26
ATOM     26  O   UNL     1      43.173 -18.726 -34.005  0.00  0.00    -0.464 OA
BRANCH  26  28
ATOM     27  C   UNL     1      41.568 -19.911 -32.633  0.00  0.00    -0.031 C 
ATOM     28  C   UNL     1      42.268 -19.840 -33.977  0.00  0.00    +0.090 C 
ENDBRANCH  26  28
ENDBRANCH  24  26
ENDBRANCH  23  24
ENDBRANCH   1  23
TORSDOF 6
ENDMDL
MODEL 13
REMARK VINA RESULT:    -6.276     18.282     20.843
REMARK INTER + INTRA:          -8.600
REMARK INTER:                  -8.210
REMARK INTRA:                  -0.390
REMARK UNBOUND:                -0.305
REMARK  Name = cpd315.pdb
REMARK  8 active torsions:
REMARK  status: ('A' for Active; 'I' for Inactive)
REMARK    1  A    between atoms: C_1  and  C_2
REMARK    2  A    between atoms: C_2  and  O_3
REMARK    3  A    between atoms: O_3  and  C_4
REMARK    4  A    between atoms: C_4  and  C_6
REMARK    5  A    between atoms: C_6  and  N_7
REMARK    6  A    between atoms: C_13  and  O_14
REMARK    7  A    between atoms: C_19  and  O_20
REMARK    8  A    between atoms: O_20  and  C_21
REMARK                            x       y       z     vdW  Elec       q    Type
REMARK                         _______ _______ _______ _____ _____    ______ ____
ROOT
ATOM      1  N   UNL     1      45.333 -18.210 -38.578  0.00  0.00    -0.288 N 
ATOM      2  C   UNL     1      43.862 -18.219 -38.714  0.00  0.00    +0.001 C 
ATOM      3  C   UNL     1      43.227 -19.246 -39.685  0.00  0.00    -0.023 C 
ATOM      4  C   UNL     1      43.416 -20.721 -39.261  0.00  0.00    +0.056 C 
ATOM      5  C   UNL     1      42.828 -20.958 -37.894  0.00  0.00    -0.071 C 
ATOM      6  C   UNL     1      41.536 -21.329 -37.774  0.00  0.00    -0.059 C 
ATOM      7  C   UNL     1      40.622 -21.618 -38.947  0.00  0.00    +0.077 C 
ATOM      8  C   UNL     1      41.300 -21.609 -40.337  0.00  0.00    +0.015 C 
ATOM      9  C   UNL     1      42.791 -21.832 -40.144  0.00  0.00    +0.116 C 
ATOM     10  O   UNL     1      43.580 -21.966 -41.330  0.00  0.00    -0.484 OA
ATOM     11  C   UNL     1      44.855 -21.786 -40.812  0.00  0.00    +0.167 A 
ATOM     12  C   UNL     1      46.045 -22.127 -41.435  0.00  0.00    +0.162 A 
ATOM     13  C   UNL     1      47.227 -21.692 -40.823  0.00  0.00    -0.016 A 
ATOM     14  C   UNL     1      47.203 -20.885 -39.671  0.00  0.00    -0.053 A 
ATOM     15  C   UNL     1      45.989 -20.529 -39.066  0.00  0.00    -0.026 A 
ATOM     16  C   UNL     1      44.829 -21.069 -39.600  0.00  0.00    +0.016 A 
ATOM     17  C   UNL     1      45.914 -19.445 -38.021  0.00  0.00    +0.025 C 
ATOM     18  H   UNL     1      45.690 -18.164 -39.533  0.00  0.00    +0.000 HD
ENDROOT
BRANCH   7  19
ATOM     19  O   UNL     1      40.093 -22.920 -38.703  0.00  0.00    -0.388 OA
ATOM     20  H   UNL     1      40.758 -23.588 -38.932  0.00  0.00    +0.000 HD
ENDBRANCH   7  19
BRANCH  12  21
ATOM     21  O   UNL     1      46.231 -22.821 -42.594  0.00  0.00    -0.491 OA
ATOM     22  C   UNL     1      47.232 -23.830 -42.594  0.00  0.00    +0.079 C 
ENDBRANCH  12  21
BRANCH   1  23
ATOM     23  C   UNL     1      45.786 -17.015 -37.823  0.00  0.00    +0.097 C 
BRANCH  23  24
ATOM     24  C   UNL     1      45.777 -17.192 -36.308  0.00  0.00    +0.321 C 
ATOM     25  O   UNL     1      44.781 -17.482 -35.657  0.00  0.00    -0.249 OA
BRANCH  24  26
ATOM     26  O   UNL     1      47.029 -17.029 -35.791  0.00  0.00    -0.464 OA
BRANCH  26  28
ATOM     27  C   UNL     1      48.458 -18.908 -35.249  0.00  0.00    -0.031 C 
ATOM     28  C   UNL     1      47.396 -17.947 -34.750  0.00  0.00    +0.090 C 
ENDBRANCH  26  28
ENDBRANCH  24  26
ENDBRANCH  23  24
ENDBRANCH   1  23
TORSDOF 6
ENDMDL
MODEL 14
REMARK VINA RESULT:    -6.209     19.985     22.278
REMARK INTER + INTRA:          -8.511
REMARK INTER:                  -7.913
REMARK INTRA:                  -0.598
REMARK UNBOUND:                -0.305
REMARK  Name = cpd315.pdb
REMARK  8 active torsions:
REMARK  status: ('A' for Active; 'I' for Inactive)
REMARK    1  A    between atoms: C_1  and  C_2
REMARK    2  A    between atoms: C_2  and  O_3
REMARK    3  A    between atoms: O_3  and  C_4
REMARK    4  A    between atoms: C_4  and  C_6
REMARK    5  A    between atoms: C_6  and  N_7
REMARK    6  A    between atoms: C_13  and  O_14
REMARK    7  A    between atoms: C_19  and  O_20
REMARK    8  A    between atoms: O_20  and  C_21
REMARK                            x       y       z     vdW  Elec       q    Type
REMARK                         _______ _______ _______ _____ _____    ______ ____
ROOT
ATOM      1  N   UNL     1      45.349 -20.250 -40.230  0.00  0.00    -0.288 N 
ATOM      2  C   UNL     1      45.625 -20.909 -38.936  0.00  0.00    +0.001 C 
ATOM      3  C   UNL     1      46.452 -20.127 -37.884  0.00  0.00    -0.023 C 
ATOM      4  C   UNL     1      45.751 -18.861 -37.339  0.00  0.00    +0.056 C 
ATOM      5  C   UNL     1      44.428 -19.218 -36.711  0.00  0.00    -0.071 C 
ATOM      6  C   UNL     1      44.372 -19.534 -35.400  0.00  0.00    -0.059 C 
ATOM      7  C   UNL     1      45.558 -19.475 -34.459  0.00  0.00    +0.077 C 
ATOM      8  C   UNL     1      46.852 -18.876 -35.056  0.00  0.00    +0.015 C 
ATOM      9  C   UNL     1      46.475 -18.022 -36.256  0.00  0.00    +0.116 C 
ATOM     10  O   UNL     1      47.534 -17.290 -36.882  0.00  0.00    -0.484 OA
ATOM     11  C   UNL     1      46.933 -16.949 -38.086  0.00  0.00    +0.167 A 
ATOM     12  C   UNL     1      47.363 -15.967 -38.964  0.00  0.00    +0.162 A 
ATOM     13  C   UNL     1      46.727 -15.908 -40.209  0.00  0.00    -0.016 A 
ATOM     14  C   UNL     1      45.748 -16.849 -40.578  0.00  0.00    -0.053 A 
ATOM     15  C   UNL     1      45.341 -17.853 -39.686  0.00  0.00    -0.026 A 
ATOM     16  C   UNL     1      45.880 -17.826 -38.409  0.00  0.00    +0.016 A 
ATOM     17  C   UNL     1      44.522 -19.033 -40.144  0.00  0.00    +0.025 C 
ATOM     18  H   UNL     1      46.256 -19.925 -40.564  0.00  0.00    +0.000 HD
ENDROOT
BRANCH   7  19
ATOM     19  O   UNL     1      45.136 -18.660 -33.368  0.00  0.00    -0.388 OA
ATOM     20  H   UNL     1      45.215 -19.159 -32.541  0.00  0.00    +0.000 HD
ENDBRANCH   7  19
BRANCH  12  21
ATOM     21  O   UNL     1      48.353 -15.045 -38.791  0.00  0.00    -0.491 OA
ATOM     22  C   UNL     1      48.475 -14.030 -39.778  0.00  0.00    +0.079 C 
ENDBRANCH  12  21
BRANCH   1  23
ATOM     23  C   UNL     1      44.781 -21.217 -41.204  0.00  0.00    +0.097 C 
BRANCH  23  24
ATOM     24  C   UNL     1      45.828 -21.986 -42.004  0.00  0.00    +0.321 C 
ATOM     25  O   UNL     1      45.581 -22.972 -42.688  0.00  0.00    -0.249 OA
BRANCH  24  26
ATOM     26  O   UNL     1      47.055 -21.399 -41.891  0.00  0.00    -0.464 OA
BRANCH  26  28
ATOM     27  C   UNL     1      48.384 -22.777 -40.407  0.00  0.00    -0.031 C 
ATOM     28  C   UNL     1      48.171 -22.300 -41.831  0.00  0.00    +0.090 C 
ENDBRANCH  26  28
ENDBRANCH  24  26
ENDBRANCH  23  24
ENDBRANCH   1  23
TORSDOF 6
ENDMDL
MODEL 15
REMARK VINA RESULT:    -6.199     19.843     22.565
REMARK INTER + INTRA:          -8.498
REMARK INTER:                  -7.987
REMARK INTRA:                  -0.510
REMARK UNBOUND:                -0.305
REMARK  Name = cpd315.pdb
REMARK  8 active torsions:
REMARK  status: ('A' for Active; 'I' for Inactive)
REMARK    1  A    between atoms: C_1  and  C_2
REMARK    2  A    between atoms: C_2  and  O_3
REMARK    3  A    between atoms: O_3  and  C_4
REMARK    4  A    between atoms: C_4  and  C_6
REMARK    5  A    between atoms: C_6  and  N_7
REMARK    6  A    between atoms: C_13  and  O_14
REMARK    7  A    between atoms: C_19  and  O_20
REMARK    8  A    between atoms: O_20  and  C_21
REMARK                            x       y       z     vdW  Elec       q    Type
REMARK                         _______ _______ _______ _____ _____    ______ ____
ROOT
ATOM      1  N   UNL     1      46.268 -18.931 -36.722  0.00  0.00    -0.288 N 
ATOM      2  C   UNL     1      45.662 -20.127 -37.342  0.00  0.00    +0.001 C 
ATOM      3  C   UNL     1      45.057 -19.983 -38.761  0.00  0.00    -0.023 C 
ATOM      4  C   UNL     1      46.095 -19.668 -39.864  0.00  0.00    +0.056 C 
ATOM      5  C   UNL     1      47.150 -20.743 -39.920  0.00  0.00    -0.071 C 
ATOM      6  C   UNL     1      46.971 -21.816 -40.718  0.00  0.00    -0.059 C 
ATOM      7  C   UNL     1      45.793 -21.994 -41.655  0.00  0.00    +0.077 C 
ATOM      8  C   UNL     1      44.845 -20.778 -41.769  0.00  0.00    +0.015 C 
ATOM      9  C   UNL     1      45.603 -19.536 -41.328  0.00  0.00    +0.116 C 
ATOM     10  O   UNL     1      44.923 -18.284 -41.467  0.00  0.00    -0.484 OA
ATOM     11  C   UNL     1      45.715 -17.472 -40.667  0.00  0.00    +0.167 A 
ATOM     12  C   UNL     1      45.732 -16.086 -40.675  0.00  0.00    +0.162 A 
ATOM     13  C   UNL     1      46.465 -15.457 -39.662  0.00  0.00    -0.016 A 
ATOM     14  C   UNL     1      47.092 -16.196 -38.642  0.00  0.00    -0.053 A 
ATOM     15  C   UNL     1      47.045 -17.598 -38.636  0.00  0.00    -0.026 A 
ATOM     16  C   UNL     1      46.430 -18.220 -39.712  0.00  0.00    +0.016 A 
ATOM     17  C   UNL     1      47.450 -18.397 -37.423  0.00  0.00    +0.025 C 
ATOM     18  H   UNL     1      45.563 -18.199 -36.807  0.00  0.00    +0.000 HD
ENDROOT
BRANCH   7  19
ATOM     19  O   UNL     1      46.365 -22.252 -42.936  0.00  0.00    -0.388 OA
ATOM     20  H   UNL     1      45.661 -22.475 -43.565  0.00  0.00    +0.000 HD
ENDBRANCH   7  19
BRANCH  12  21
ATOM     21  O   UNL     1      45.106 -15.232 -41.534  0.00  0.00    -0.491 OA
ATOM     22  C   UNL     1      45.608 -13.905 -41.611  0.00  0.00    +0.079 C 
ENDBRANCH  12  21
BRANCH   1  23
ATOM     23  C   UNL     1      46.559 -19.171 -35.285  0.00  0.00    +0.097 C 
BRANCH  23  24
ATOM     24  C   UNL     1      45.328 -19.485 -34.441  0.00  0.00    +0.321 C 
ATOM     25  O   UNL     1      45.110 -20.573 -33.924  0.00  0.00    -0.249 OA
BRANCH  24  26
ATOM     26  O   UNL     1      44.535 -18.382 -34.307  0.00  0.00    -0.464 OA
BRANCH  26  28
ATOM     27  C   UNL     1      44.788 -17.420 -32.099  0.00  0.00    -0.031 C 
ATOM     28  C   UNL     1      45.111 -17.290 -33.576  0.00  0.00    +0.090 C 
ENDBRANCH  26  28
ENDBRANCH  24  26
ENDBRANCH  23  24
ENDBRANCH   1  23
TORSDOF 6
ENDMDL
MODEL 16
REMARK VINA RESULT:    -6.131     18.419     21.504
REMARK INTER + INTRA:          -8.407
REMARK INTER:                  -7.664
REMARK INTRA:                  -0.743
REMARK UNBOUND:                -0.305
REMARK  Name = cpd315.pdb
REMARK  8 active torsions:
REMARK  status: ('A' for Active; 'I' for Inactive)
REMARK    1  A    between atoms: C_1  and  C_2
REMARK    2  A    between atoms: C_2  and  O_3
REMARK    3  A    between atoms: O_3  and  C_4
REMARK    4  A    between atoms: C_4  and  C_6
REMARK    5  A    between atoms: C_6  and  N_7
REMARK    6  A    between atoms: C_13  and  O_14
REMARK    7  A    between atoms: C_19  and  O_20
REMARK    8  A    between atoms: O_20  and  C_21
REMARK                            x       y       z     vdW  Elec       q    Type
REMARK                         _______ _______ _______ _____ _____    ______ ____
ROOT
ATOM      1  N   UNL     1      42.331 -20.688 -37.931  0.00  0.00    -0.288 N 
ATOM      2  C   UNL     1      42.620 -21.750 -38.917  0.00  0.00    +0.001 C 
ATOM      3  C   UNL     1      43.055 -21.321 -40.341  0.00  0.00    -0.023 C 
ATOM      4  C   UNL     1      44.420 -20.596 -40.395  0.00  0.00    +0.056 C 
ATOM      5  C   UNL     1      45.507 -21.471 -39.827  0.00  0.00    -0.071 C 
ATOM      6  C   UNL     1      46.182 -22.313 -40.636  0.00  0.00    -0.059 C 
ATOM      7  C   UNL     1      45.985 -22.393 -42.137  0.00  0.00    +0.077 C 
ATOM      8  C   UNL     1      45.045 -21.324 -42.741  0.00  0.00    +0.015 C 
ATOM      9  C   UNL     1      44.968 -20.153 -41.776  0.00  0.00    +0.116 C 
ATOM     10  O   UNL     1      44.228 -19.008 -42.212  0.00  0.00    -0.484 OA
ATOM     11  C   UNL     1      44.062 -18.336 -41.009  0.00  0.00    +0.167 A 
ATOM     12  C   UNL     1      43.701 -17.007 -40.859  0.00  0.00    +0.162 A 
ATOM     13  C   UNL     1      43.407 -16.573 -39.561  0.00  0.00    -0.016 A 
ATOM     14  C   UNL     1      43.406 -17.464 -38.472  0.00  0.00    -0.053 A 
ATOM     15  C   UNL     1      43.751 -18.812 -38.645  0.00  0.00    -0.026 A 
ATOM     16  C   UNL     1      44.168 -19.207 -39.907  0.00  0.00    +0.016 A 
ATOM     17  C   UNL     1      43.483 -19.840 -37.575  0.00  0.00    +0.025 C 
ATOM     18  H   UNL     1      41.680 -20.058 -38.399  0.00  0.00    +0.000 HD
ENDROOT
BRANCH   7  19
ATOM     19  O   UNL     1      47.286 -22.230 -42.698  0.00  0.00    -0.388 OA
ATOM     20  H   UNL     1      47.924 -22.762 -42.197  0.00  0.00    +0.000 HD
ENDBRANCH   7  19
BRANCH  12  21
ATOM     21  O   UNL     1      43.568 -16.047 -41.820  0.00  0.00    -0.491 OA
ATOM     22  C   UNL     1      44.212 -14.802 -41.586  0.00  0.00    +0.079 C 
ENDBRANCH  12  21
BRANCH   1  23
ATOM     23  C   UNL     1      41.687 -21.255 -36.719  0.00  0.00    +0.097 C 
BRANCH  23  24
ATOM     24  C   UNL     1      40.310 -20.674 -36.413  0.00  0.00    +0.321 C 
ATOM     25  O   UNL     1      39.967 -20.266 -35.310  0.00  0.00    -0.249 OA
BRANCH  24  26
ATOM     26  O   UNL     1      39.539 -20.629 -37.539  0.00  0.00    -0.464 OA
BRANCH  26  28
ATOM     27  C   UNL     1      39.605 -18.797 -39.121  0.00  0.00    -0.031 C 
ATOM     28  C   UNL     1      38.975 -19.348 -37.855  0.00  0.00    +0.090 C 
ENDBRANCH  26  28
ENDBRANCH  24  26
ENDBRANCH  23  24
ENDBRANCH   1  23
TORSDOF 6
ENDMDL
MODEL 17
REMARK VINA RESULT:    -6.025     25.074     27.927
REMARK INTER + INTRA:          -8.268
REMARK INTER:                  -7.952
REMARK INTRA:                  -0.316
REMARK UNBOUND:                -0.305
REMARK  Name = cpd315.pdb
REMARK  8 active torsions:
REMARK  status: ('A' for Active; 'I' for Inactive)
REMARK    1  A    between atoms: C_1  and  C_2
REMARK    2  A    between atoms: C_2  and  O_3
REMARK    3  A    between atoms: O_3  and  C_4
REMARK    4  A    between atoms: C_4  and  C_6
REMARK    5  A    between atoms: C_6  and  N_7
REMARK    6  A    between atoms: C_13  and  O_14
REMARK    7  A    between atoms: C_19  and  O_20
REMARK    8  A    between atoms: O_20  and  C_21
REMARK                            x       y       z     vdW  Elec       q    Type
REMARK                         _______ _______ _______ _____ _____    ______ ____
ROOT
ATOM      1  N   UNL     1      48.029 -32.316 -54.262  0.00  0.00    -0.288 N 
ATOM      2  C   UNL     1      48.028 -32.148 -55.730  0.00  0.00    +0.001 C 
ATOM      3  C   UNL     1      47.113 -33.077 -56.567  0.00  0.00    -0.023 C 
ATOM      4  C   UNL     1      45.600 -32.866 -56.323  0.00  0.00    +0.056 C 
ATOM      5  C   UNL     1      45.210 -31.442 -56.625  0.00  0.00    -0.071 C 
ATOM      6  C   UNL     1      44.821 -31.103 -57.872  0.00  0.00    -0.059 C 
ATOM      7  C   UNL     1      44.661 -32.090 -59.011  0.00  0.00    +0.077 C 
ATOM      8  C   UNL     1      44.828 -33.578 -58.629  0.00  0.00    +0.015 C 
ATOM      9  C   UNL     1      44.593 -33.719 -57.134  0.00  0.00    +0.116 C 
ATOM     10  O   UNL     1      44.596 -35.049 -56.605  0.00  0.00    -0.484 OA
ATOM     11  C   UNL     1      44.722 -34.786 -55.248  0.00  0.00    +0.167 A 
ATOM     12  C   UNL     1      44.459 -35.672 -54.216  0.00  0.00    +0.162 A 
ATOM     13  C   UNL     1      44.828 -35.270 -52.928  0.00  0.00    -0.016 A 
ATOM     14  C   UNL     1      45.501 -34.055 -52.702  0.00  0.00    -0.053 A 
ATOM     15  C   UNL     1      45.782 -33.180 -53.761  0.00  0.00    -0.026 A 
ATOM     16  C   UNL     1      45.299 -33.522 -55.015  0.00  0.00    +0.016 A 
ATOM     17  C   UNL     1      46.742 -32.029 -53.602  0.00  0.00    +0.025 C 
ATOM     18  H   UNL     1      48.183 -33.312 -54.106  0.00  0.00    +0.000 HD
ENDROOT
BRANCH   7  19
ATOM     19  O   UNL     1      43.337 -31.888 -59.503  0.00  0.00    -0.388 OA
ATOM     20  H   UNL     1      43.163 -32.510 -60.226  0.00  0.00    +0.000 HD
ENDBRANCH   7  19
BRANCH  12  21
ATOM     21  O   UNL     1      43.900 -36.914 -54.283  0.00  0.00    -0.491 OA
ATOM     22  C   UNL     1      42.631 -37.022 -54.915  0.00  0.00    +0.079 C 
ENDBRANCH  12  21
BRANCH   1  23
ATOM     23  C   UNL     1      49.134 -31.542 -53.643  0.00  0.00    +0.097 C 
BRANCH  23  24
ATOM     24  C   UNL     1      50.521 -32.132 -53.881  0.00  0.00    +0.321 C 
ATOM     25  O   UNL     1      50.789 -33.321 -53.765  0.00  0.00    -0.249 OA
BRANCH  24  26
ATOM     26  O   UNL     1      51.398 -31.167 -54.282  0.00  0.00    -0.464 OA
BRANCH  26  28
ATOM     27  C   UNL     1      53.803 -30.952 -54.470  0.00  0.00    -0.031 C 
ATOM     28  C   UNL     1      52.619 -31.087 -53.532  0.00  0.00    +0.090 C 
ENDBRANCH  26  28
ENDBRANCH  24  26
ENDBRANCH  23  24
ENDBRANCH   1  23
TORSDOF 6
ENDMDL
MODEL 18
REMARK VINA RESULT:    -5.969     17.839     19.983
REMARK INTER + INTRA:          -8.193
REMARK INTER:                  -7.744
REMARK INTRA:                  -0.450
REMARK UNBOUND:                -0.305
REMARK  Name = cpd315.pdb
REMARK  8 active torsions:
REMARK  status: ('A' for Active; 'I' for Inactive)
REMARK    1  A    between atoms: C_1  and  C_2
REMARK    2  A    between atoms: C_2  and  O_3
REMARK    3  A    between atoms: O_3  and  C_4
REMARK    4  A    between atoms: C_4  and  C_6
REMARK    5  A    between atoms: C_6  and  N_7
REMARK    6  A    between atoms: C_13  and  O_14
REMARK    7  A    between atoms: C_19  and  O_20
REMARK    8  A    between atoms: O_20  and  C_21
REMARK                            x       y       z     vdW  Elec       q    Type
REMARK                         _______ _______ _______ _____ _____    ______ ____
ROOT
ATOM      1  N   UNL     1      44.728 -19.991 -40.137  0.00  0.00    -0.288 N 
ATOM      2  C   UNL     1      43.550 -20.878 -40.218  0.00  0.00    +0.001 C 
ATOM      3  C   UNL     1      42.867 -21.303 -38.893  0.00  0.00    -0.023 C 
ATOM      4  C   UNL     1      42.210 -20.138 -38.117  0.00  0.00    +0.056 C 
ATOM      5  C   UNL     1      41.173 -19.453 -38.970  0.00  0.00    -0.071 C 
ATOM      6  C   UNL     1      39.895 -19.884 -38.948  0.00  0.00    -0.059 C 
ATOM      7  C   UNL     1      39.384 -20.986 -38.042  0.00  0.00    +0.077 C 
ATOM      8  C   UNL     1      40.397 -21.515 -37.001  0.00  0.00    +0.015 C 
ATOM      9  C   UNL     1      41.467 -20.456 -36.794  0.00  0.00    +0.116 C 
ATOM     10  O   UNL     1      42.442 -20.717 -35.778  0.00  0.00    -0.484 OA
ATOM     11  C   UNL     1      43.413 -19.781 -36.108  0.00  0.00    +0.167 A 
ATOM     12  C   UNL     1      44.443 -19.349 -35.288  0.00  0.00    +0.162 A 
ATOM     13  C   UNL     1      45.423 -18.541 -35.875  0.00  0.00    -0.016 A 
ATOM     14  C   UNL     1      45.402 -18.243 -37.250  0.00  0.00    -0.053 A 
ATOM     15  C   UNL     1      44.365 -18.708 -38.071  0.00  0.00    -0.026 A 
ATOM     16  C   UNL     1      43.329 -19.398 -37.460  0.00  0.00    +0.016 A 
ATOM     17  C   UNL     1      44.463 -18.654 -39.575  0.00  0.00    +0.025 C 
ATOM     18  H   UNL     1      45.353 -20.436 -39.464  0.00  0.00    +0.000 HD
ENDROOT
BRANCH   7  19
ATOM     19  O   UNL     1      38.270 -20.423 -37.352  0.00  0.00    -0.388 OA
ATOM     20  H   UNL     1      37.678 -21.133 -37.058  0.00  0.00    +0.000 HD
ENDBRANCH   7  19
BRANCH  12  21
ATOM     21  O   UNL     1      44.652 -19.624 -33.968  0.00  0.00    -0.491 OA
ATOM     22  C   UNL     1      43.973 -18.811 -33.020  0.00  0.00    +0.079 C 
ENDBRANCH  12  21
BRANCH   1  23
ATOM     23  C   UNL     1      45.408 -19.895 -41.453  0.00  0.00    +0.097 C 
BRANCH  23  24
ATOM     24  C   UNL     1      45.776 -21.242 -42.068  0.00  0.00    +0.321 C 
ATOM     25  O   UNL     1      45.156 -21.771 -42.983  0.00  0.00    -0.249 OA
BRANCH  24  26
ATOM     26  O   UNL     1      46.905 -21.748 -41.493  0.00  0.00    -0.464 OA
BRANCH  26  28
ATOM     27  C   UNL     1      47.835 -23.878 -42.173  0.00  0.00    -0.031 C 
ATOM     28  C   UNL     1      46.890 -23.158 -41.229  0.00  0.00    +0.090 C 
ENDBRANCH  26  28
ENDBRANCH  24  26
ENDBRANCH  23  24
ENDBRANCH   1  23
TORSDOF 6
ENDMDL
MODEL 19
REMARK VINA RESULT:    -5.964      1.510      1.826
REMARK INTER + INTRA:          -8.188
REMARK INTER:                  -7.787
REMARK INTRA:                  -0.400
REMARK UNBOUND:                -0.305
REMARK  Name = cpd315.pdb
REMARK  8 active torsions:
REMARK  status: ('A' for Active; 'I' for Inactive)
REMARK    1  A    between atoms: C_1  and  C_2
REMARK    2  A    between atoms: C_2  and  O_3
REMARK    3  A    between atoms: O_3  and  C_4
REMARK    4  A    between atoms: C_4  and  C_6
REMARK    5  A    between atoms: C_6  and  N_7
REMARK    6  A    between atoms: C_13  and  O_14
REMARK    7  A    between atoms: C_19  and  O_20
REMARK    8  A    between atoms: O_20  and  C_21
REMARK                            x       y       z     vdW  Elec       q    Type
REMARK                         _______ _______ _______ _____ _____    ______ ____
ROOT
ATOM      1  N   UNL     1      37.459 -36.689 -30.082  0.00  0.00    -0.288 N 
ATOM      2  C   UNL     1      37.364 -37.375 -28.777  0.00  0.00    +0.001 C 
ATOM      3  C   UNL     1      36.173 -37.016 -27.852  0.00  0.00    -0.023 C 
ATOM      4  C   UNL     1      34.790 -37.423 -28.413  0.00  0.00    +0.056 C 
ATOM      5  C   UNL     1      34.740 -38.906 -28.673  0.00  0.00    -0.071 C 
ATOM      6  C   UNL     1      34.334 -39.745 -27.697  0.00  0.00    -0.059 C 
ATOM      7  C   UNL     1      33.829 -39.293 -26.342  0.00  0.00    +0.077 C 
ATOM      8  C   UNL     1      33.655 -37.766 -26.173  0.00  0.00    +0.015 C 
ATOM      9  C   UNL     1      33.531 -37.142 -27.553  0.00  0.00    +0.116 C 
ATOM     10  O   UNL     1      33.252 -35.739 -27.602  0.00  0.00    -0.484 OA
ATOM     11  C   UNL     1      33.565 -35.461 -28.925  0.00  0.00    +0.167 A 
ATOM     12  C   UNL     1      33.186 -34.333 -29.635  0.00  0.00    +0.162 A 
ATOM     13  C   UNL     1      33.761 -34.156 -30.898  0.00  0.00    -0.016 A 
ATOM     14  C   UNL     1      34.734 -35.045 -31.392  0.00  0.00    -0.053 A 
ATOM     15  C   UNL     1      35.124 -36.170 -30.652  0.00  0.00    -0.026 A 
ATOM     16  C   UNL     1      34.457 -36.411 -29.460  0.00  0.00    +0.016 A 
ATOM     17  C   UNL     1      36.351 -36.968 -31.013  0.00  0.00    +0.025 C 
ATOM     18  H   UNL     1      37.374 -35.695 -29.869  0.00  0.00    +0.000 HD
ENDROOT
BRANCH   7  19
ATOM     19  O   UNL     1      32.558 -39.920 -26.184  0.00  0.00    -0.388 OA
ATOM     20  H   UNL     1      31.858 -39.307 -26.460  0.00  0.00    +0.000 HD
ENDBRANCH   7  19
BRANCH  12  21
ATOM     21  O   UNL     1      32.332 -33.338 -29.258  0.00  0.00    -0.491 OA
ATOM     22  C   UNL     1      32.557 -32.047 -29.807  0.00  0.00    +0.079 C 
ENDBRANCH  12  21
BRANCH   1  23
ATOM     23  C   UNL     1      38.775 -36.947 -30.719  0.00  0.00    +0.097 C 
BRANCH  23  24
ATOM     24  C   UNL     1      39.279 -35.807 -31.599  0.00  0.00    +0.321 C 
ATOM     25  O   UNL     1      38.785 -34.687 -31.619  0.00  0.00    -0.249 OA
BRANCH  24  26
ATOM     26  O   UNL     1      40.373 -36.194 -32.317  0.00  0.00    -0.464 OA
BRANCH  26  28
ATOM     27  C   UNL     1      42.290 -36.089 -30.841  0.00  0.00    -0.031 C 
ATOM     28  C   UNL     1      41.335 -36.986 -31.605  0.00  0.00    +0.090 C 
ENDBRANCH  26  28
ENDBRANCH  24  26
ENDBRANCH  23  24
ENDBRANCH   1  23
TORSDOF 6
ENDMDL
MODEL 20
REMARK VINA RESULT:    -5.893     17.607     21.148
REMARK INTER + INTRA:          -8.093
REMARK INTER:                  -7.602
REMARK INTRA:                  -0.491
REMARK UNBOUND:                -0.305
REMARK  Name = cpd315.pdb
REMARK  8 active torsions:
REMARK  status: ('A' for Active; 'I' for Inactive)
REMARK    1  A    between atoms: C_1  and  C_2
REMARK    2  A    between atoms: C_2  and  O_3
REMARK    3  A    between atoms: O_3  and  C_4
REMARK    4  A    between atoms: C_4  and  C_6
REMARK    5  A    between atoms: C_6  and  N_7
REMARK    6  A    between atoms: C_13  and  O_14
REMARK    7  A    between atoms: C_19  and  O_20
REMARK    8  A    between atoms: O_20  and  C_21
REMARK                            x       y       z     vdW  Elec       q    Type
REMARK                         _______ _______ _______ _____ _____    ______ ____
ROOT
ATOM      1  N   UNL     1      42.356 -20.636 -38.178  0.00  0.00    -0.288 N 
ATOM      2  C   UNL     1      43.026 -20.061 -36.993  0.00  0.00    +0.001 C 
ATOM      3  C   UNL     1      44.572 -19.956 -37.011  0.00  0.00    -0.023 C 
ATOM      4  C   UNL     1      45.129 -18.979 -38.072  0.00  0.00    +0.056 C 
ATOM      5  C   UNL     1      44.577 -17.593 -37.856  0.00  0.00    -0.071 C 
ATOM      6  C   UNL     1      45.229 -16.729 -37.051  0.00  0.00    -0.059 C 
ATOM      7  C   UNL     1      46.561 -17.021 -36.390  0.00  0.00    +0.077 C 
ATOM      8  C   UNL     1      47.235 -18.348 -36.811  0.00  0.00    +0.015 C 
ATOM      9  C   UNL     1      46.663 -18.771 -38.154  0.00  0.00    +0.116 C 
ATOM     10  O   UNL     1      47.245 -19.927 -38.766  0.00  0.00    -0.484 OA
ATOM     11  C   UNL     1      46.286 -20.220 -39.725  0.00  0.00    +0.167 A 
ATOM     12  C   UNL     1      46.458 -21.041 -40.828  0.00  0.00    +0.162 A 
ATOM     13  C   UNL     1      45.313 -21.354 -41.568  0.00  0.00    -0.016 A 
ATOM     14  C   UNL     1      44.037 -20.916 -41.169  0.00  0.00    -0.053 A 
ATOM     15  C   UNL     1      43.877 -20.105 -40.036  0.00  0.00    -0.026 A 
ATOM     16  C   UNL     1      45.027 -19.690 -39.381  0.00  0.00    +0.016 A 
ATOM     17  C   UNL     1      42.521 -19.862 -39.422  0.00  0.00    +0.025 C 
ATOM     18  H   UNL     1      42.837 -21.518 -38.356  0.00  0.00    +0.000 HD
ENDROOT
BRANCH   7  19
ATOM     19  O   UNL     1      47.412 -15.937 -36.758  0.00  0.00    -0.388 OA
ATOM     20  H   UNL     1      46.882 -15.132 -36.864  0.00  0.00    +0.000 HD
ENDBRANCH   7  19
BRANCH  12  21
ATOM     21  O   UNL     1      47.605 -21.616 -41.289  0.00  0.00    -0.491 OA
ATOM     22  C   UNL     1      47.871 -22.952 -40.883  0.00  0.00    +0.079 C 
ENDBRANCH  12  21
BRANCH   1  23
ATOM     23  C   UNL     1      40.923 -20.902 -37.897  0.00  0.00    +0.097 C 
BRANCH  23  24
ATOM     24  C   UNL     1      40.524 -22.370 -38.015  0.00  0.00    +0.321 C 
ATOM     25  O   UNL     1      40.358 -22.952 -39.079  0.00  0.00    -0.249 OA
BRANCH  24  26
ATOM     26  O   UNL     1      40.425 -22.948 -36.782  0.00  0.00    -0.464 OA
BRANCH  26  28
ATOM     27  C   UNL     1      39.593 -22.952 -34.508  0.00  0.00    -0.031 C 
ATOM     28  C   UNL     1      39.848 -22.128 -35.756  0.00  0.00    +0.090 C 
ENDBRANCH  26  28
ENDBRANCH  24  26
ENDBRANCH  23  24
ENDBRANCH   1  23
TORSDOF 6
ENDMDL
