REMARK  Name = cpd123.pdb
REMARK  7 active torsions:
REMARK  status: ('A' for Active; 'I' for Inactive)
REMARK    1  A    between atoms: C_2  and  C_3
REMARK    2  A    between atoms: C_3  and  O_4
REMARK    3  A    between atoms: O_4  and  C_5
REMARK    4  A    between atoms: C_8  and  C_9
REMARK    5  A    between atoms: N_10  and  C_11
REMARK    6  A    between atoms: C_13  and  C_14
REMARK    7  A    between atoms: C_26  and  C_27
REMARK                            x       y       z     vdW  Elec       q    Type
REMARK                         _______ _______ _______ _____ _____    ______ ____
ROOT
ATOM      1  C   UNL A   1      -4.094   0.788   0.000  0.00  0.00    +0.113 C 
ATOM      2  C   UNL A   1      -2.822   0.353   1.046  0.00  0.00    +0.001 C 
ATOM      3  C   UNL A   1      -2.390   1.319   2.121  0.00  0.00    -0.073 C 
ATOM      4  C   UNL A   1      -1.204   0.980   2.961  0.00  0.00    -0.044 C 
ATOM      5  C   UNL A   1      -3.113   2.435   2.209  0.00  0.00    -0.077 C 
ATOM      6  C   UNL A   1      -4.274   2.561   1.262  0.00  0.00    +0.006 C 
ATOM      7  C   UNL A   1      -5.590   2.300   2.038  0.00  0.00    -0.002 C 
ATOM      8  C   UNL A   1      -6.229   1.058   1.521  0.00  0.00    +0.026 A 
ATOM      9  N   UNL A   1      -7.476   0.701   1.972  0.00  0.00    -0.326 N 
ATOM     10  C   UNL A   1      -8.189  -0.363   1.476  0.00  0.00    +0.249 A 
ATOM     11  O   UNL A   1      -9.289  -0.684   1.912  0.00  0.00    -0.268 OA
ATOM     12  C   UNL A   1      -7.569  -1.073   0.331  0.00  0.00    +0.003 A 
ATOM     13  C   UNL A   1      -6.358  -0.699  -0.110  0.00  0.00    -0.049 A 
ATOM     14  C   UNL A   1      -5.606   0.355   0.551  0.00  0.00    +0.004 A 
ATOM     15  C   UNL A   1      -4.094   1.576   0.000  0.00  0.00    -0.035 C 
ATOM     16  C   UNL A   1      -3.993   2.296  -1.160  0.00  0.00    -0.085 C 
ATOM     17  C   UNL A   1      -3.948   1.776  -2.572  0.00  0.00    -0.046 C 
ATOM     18  H   UNL A   1      -7.882   1.238   2.691  0.00  0.00    +0.000 HD
ENDROOT
BRANCH   1  20
ATOM     19  C   UNL A   1      -2.985  -2.576  -0.660  0.00  0.00    +0.031 C 
ATOM     20  N   UNL A   1      -4.094  -2.364   0.000  0.00  0.00    -0.275 NA
BRANCH  19  24
ATOM     21  C   UNL A   1       0.500  -0.525  -1.887  0.00  0.00    +0.121 A 
ATOM     22  C   UNL A   1       0.479  -1.271  -0.709  0.00  0.00    -0.019 A 
ATOM     23  C   UNL A   1      -0.696  -1.905  -0.312  0.00  0.00    -0.050 A 
ATOM     24  C   UNL A   1      -1.864  -1.756  -1.071  0.00  0.00    -0.007 A 
ATOM     25  C   UNL A   1      -1.852  -1.048  -2.263  0.00  0.00    -0.050 A 
ATOM     26  C   UNL A   1      -0.668  -0.413  -2.656  0.00  0.00    -0.019 A 
BRANCH  21  27
ATOM     27  O   UNL A   1       1.586   0.155  -2.367  0.00  0.00    -0.488 OA
BRANCH  27  28
ATOM     28  C   UNL A   1       2.878  -0.249  -1.905  0.00  0.00    +0.108 C 
BRANCH  28  30
ATOM     29  C   UNL A   1       2.724   1.535  -0.090  0.00  0.00    -0.099 C 
ATOM     30  C   UNL A   1       3.360   0.529  -0.707  0.00  0.00    -0.054 C 
ENDBRANCH  28  30
ENDBRANCH  27  28
ENDBRANCH  21  27
ENDBRANCH  19  24
ENDBRANCH   1  20
TORSDOF 5
