@<TRIPOS>MOLECULE
*****
 29 32 0 0 0
SMALL
GASTEIGER

@<TRIPOS>ATOM
      1 C           2.0469    1.9696    0.0000 C.2     1  UNL1       -0.0011
      2 C           2.0469    1.1818    0.0000 C.2     1  UNL1        0.0207
      3 C           1.3646    0.7878    0.0000 C.3     1  UNL1        0.2318
      4 O           0.6823    1.1818    0.0000 O.3     1  UNL1       -0.4707
      5 C           0.0000    0.7878    0.0000 C.ar    1  UNL1        0.1391
      6 C          -0.6823    1.1818    0.0000 C.ar    1  UNL1        0.0370
      7 C          -1.3646    0.7878    0.0000 C.ar    1  UNL1        0.0046
      8 C          -1.3646   -0.0000    0.0000 C.ar    1  UNL1        0.0189
      9 C          -4.0937   -1.5757    0.0000 C.2     1  UNL1        0.0937
     10 N          -4.0937   -2.3635    0.0000 N.2     1  UNL1       -0.2644
     11 C          -4.0937    0.7878    0.0000 C.3     1  UNL1        0.1231
     12 C          -3.4114    0.3941    0.0000 C.3     1  UNL1        0.0523
     13 C          -2.7290    0.7882    0.0000 C.2     1  UNL1       -0.0453
     14 C          -2.0466    0.3945    0.0000 C.3     1  UNL1        0.0261
     15 C          -2.7294    1.5759    0.0000 C.2     1  UNL1       -0.0303
     16 C          -3.4117    1.9697    0.0000 C.3     1  UNL1        0.0473
     17 C          -4.0939    2.3634    0.0000 C.3     1  UNL1        0.0541
     18 C          -4.7761    1.9695    0.0000 C.ar    1  UNL1        0.0609
     19 N          -5.4586    2.3633    0.0000 N.ar    1  UNL1       -0.2125
     20 C          -6.1409    1.9691    0.0000 C.ar    1  UNL1        0.2790
     21 O          -6.8232    2.3628    0.0000 O.2     1  UNL1       -0.2652
     22 C          -6.1407    1.1811    0.0000 C.ar    1  UNL1        0.0623
     23 C          -5.4582    0.7873    0.0000 C.ar    1  UNL1        0.0040
     24 C          -4.7759    1.1815    0.0000 C.ar    1  UNL1        0.0154
     25 C          -4.0937    1.5757    0.0000 C.2     1  UNL1       -0.0204
     26 C          -4.7760    1.9693    0.0000 C.2     1  UNL1       -0.0319
     27 C          -5.5367    1.7653    0.0000 C.3     1  UNL1        0.0301
     28 C          -0.6823   -0.3939    0.0000 C.ar    1  UNL1        0.0046
     29 C           0.0000    0.0000    0.0000 C.ar    1  UNL1        0.0370
@<TRIPOS>BOND
     1     1     2    2
     2     2     3    1
     3     3     4    1
     4     4     5    1
     5     5     6   ar
     6     6     7   ar
     7     7     8   ar
     8     8     9    1
     9     9    10    2
    10    10    11    1
    11    11    12    1
    12    12    13    1
    13    13    14    1
    14    13    15    2
    15    15    16    1
    16    16    17    1
    17    17    18    1
    18    18    19   ar
    19    19    20   ar
    20    20    21    2
    21    20    22   ar
    22    22    23   ar
    23    23    24   ar
    24    18    24   ar
    25    11    24    1
    26    16    25    1
    27    11    25    1
    28    25    26    2
    29    26    27    1
    30     8    28   ar
    31    28    29   ar
    32     5    29   ar
