MODEL 1
REMARK VINA RESULT:    -5.210      0.000      0.000
REMARK INTER + INTRA:          -5.781
REMARK INTER:                  -5.667
REMARK INTRA:                  -0.115
REMARK UNBOUND:                -0.115
REMARK  Name = cpd240.pdb
REMARK  4 active torsions:
REMARK  status: ('A' for Active; 'I' for Inactive)
REMARK    1  A    between atoms: C_1  and  N_2
REMARK    2  A    between atoms: N_2  and  C_3
REMARK    3  A    between atoms: C_7  and  O_8
REMARK    4  A    between atoms: C_7  and  C_9
REMARK                            x       y       z     vdW  Elec       q    Type
REMARK                         _______ _______ _______ _____ _____    ______ ____
ROOT
ATOM      1  C   UNL     1      65.209 -23.896  -5.888  0.00  0.00    -0.100 C 
ATOM      2  N   UNL     1      63.889 -23.218  -6.279  0.00  0.00    +0.381 N 
ATOM      3  C   UNL     1      63.743 -21.944  -5.460  0.00  0.00    -0.100 C 
ATOM      4  C   UNL     1      62.709 -24.182  -5.993  0.00  0.00    -0.064 C 
ATOM      5  C   UNL     1      62.167 -24.822  -7.285  0.00  0.00    +0.037 C 
ATOM      6  O   UNL     1      63.215 -25.221  -8.168  0.00  0.00    -0.345 OA
ATOM      7  C   UNL     1      63.972 -24.119  -8.707  0.00  0.00    +0.251 C 
ATOM      8  C   UNL     1      63.905 -22.852  -7.802  0.00  0.00    -0.024 C 
ENDROOT
BRANCH   7   9
ATOM      9  C   UNL     1      63.478 -23.684 -10.115  0.00  0.00    +0.442 C 
ATOM     10  F   UNL     1      62.802 -24.689 -10.715  0.00  0.00    -0.165 F 
ATOM     11  F   UNL     1      64.518 -23.360 -10.914  0.00  0.00    -0.165 F 
ATOM     12  F   UNL     1      62.653 -22.618 -10.034  0.00  0.00    -0.165 F 
ENDBRANCH   7   9
BRANCH   7  13
ATOM     13  O   UNL     1      65.340 -24.569  -8.735  0.00  0.00    -0.359 OA
ATOM     14  H   UNL     1      65.771 -24.244  -9.541  0.00  0.00    +0.000 HD
ENDBRANCH   7  13
TORSDOF 2
ENDMDL
MODEL 2
REMARK VINA RESULT:    -5.141     35.932     37.310
REMARK INTER + INTRA:          -5.707
REMARK INTER:                  -5.606
REMARK INTRA:                  -0.101
REMARK UNBOUND:                -0.115
REMARK  Name = cpd240.pdb
REMARK  4 active torsions:
REMARK  status: ('A' for Active; 'I' for Inactive)
REMARK    1  A    between atoms: C_1  and  N_2
REMARK    2  A    between atoms: N_2  and  C_3
REMARK    3  A    between atoms: C_7  and  O_8
REMARK    4  A    between atoms: C_7  and  C_9
REMARK                            x       y       z     vdW  Elec       q    Type
REMARK                         _______ _______ _______ _____ _____    ______ ____
ROOT
ATOM      1  C   UNL     1      45.013 -19.411 -41.757  0.00  0.00    -0.100 C 
ATOM      2  N   UNL     1      44.822 -20.736 -41.006  0.00  0.00    +0.381 N 
ATOM      3  C   UNL     1      43.372 -21.170 -41.160  0.00  0.00    -0.100 C 
ATOM      4  C   UNL     1      45.169 -20.536 -39.508  0.00  0.00    -0.064 C 
ATOM      5  C   UNL     1      46.546 -21.128 -39.155  0.00  0.00    +0.037 C 
ATOM      6  O   UNL     1      47.523 -20.849 -40.157  0.00  0.00    -0.345 OA
ATOM      7  C   UNL     1      47.265 -21.495 -41.419  0.00  0.00    +0.251 C 
ATOM      8  C   UNL     1      45.756 -21.837 -41.614  0.00  0.00    -0.024 C 
ENDROOT
BRANCH   7   9
ATOM      9  C   UNL     1      48.044 -22.830 -41.580  0.00  0.00    +0.442 C 
ATOM     10  F   UNL     1      49.310 -22.702 -41.122  0.00  0.00    -0.165 F 
ATOM     11  F   UNL     1      48.119 -23.193 -42.879  0.00  0.00    -0.165 F 
ATOM     12  F   UNL     1      47.451 -23.827 -40.891  0.00  0.00    -0.165 F 
ENDBRANCH   7   9
BRANCH   7  13
ATOM     13  O   UNL     1      47.633 -20.535 -42.426  0.00  0.00    -0.359 OA
ATOM     14  H   UNL     1      48.010 -19.749 -42.001  0.00  0.00    +0.000 HD
ENDBRANCH   7  13
TORSDOF 2
ENDMDL
MODEL 3
REMARK VINA RESULT:    -4.927     36.450     37.162
REMARK INTER + INTRA:          -5.474
REMARK INTER:                  -5.360
REMARK INTRA:                  -0.113
REMARK UNBOUND:                -0.115
REMARK  Name = cpd240.pdb
REMARK  4 active torsions:
REMARK  status: ('A' for Active; 'I' for Inactive)
REMARK    1  A    between atoms: C_1  and  N_2
REMARK    2  A    between atoms: N_2  and  C_3
REMARK    3  A    between atoms: C_7  and  O_8
REMARK    4  A    between atoms: C_7  and  C_9
REMARK                            x       y       z     vdW  Elec       q    Type
REMARK                         _______ _______ _______ _____ _____    ______ ____
ROOT
ATOM      1  C   UNL     1      44.157 -20.805 -41.745  0.00  0.00    -0.100 C 
ATOM      2  N   UNL     1      44.965 -20.762 -40.441  0.00  0.00    +0.381 N 
ATOM      3  C   UNL     1      43.998 -20.892 -39.273  0.00  0.00    -0.100 C 
ATOM      4  C   UNL     1      45.738 -19.421 -40.354  0.00  0.00    -0.064 C 
ATOM      5  C   UNL     1      47.234 -19.601 -40.672  0.00  0.00    +0.037 C 
ATOM      6  O   UNL     1      47.447 -20.476 -41.779  0.00  0.00    -0.345 OA
ATOM      7  C   UNL     1      47.057 -21.840 -41.525  0.00  0.00    +0.251 C 
ATOM      8  C   UNL     1      45.983 -21.952 -40.401  0.00  0.00    -0.024 C 
ENDROOT
BRANCH   7   9
ATOM      9  C   UNL     1      48.251 -22.733 -41.086  0.00  0.00    +0.442 C 
ATOM     10  F   UNL     1      48.218 -22.952 -39.752  0.00  0.00    -0.165 F 
ATOM     11  F   UNL     1      49.430 -22.137 -41.369  0.00  0.00    -0.165 F 
ATOM     12  F   UNL     1      48.219 -23.931 -41.706  0.00  0.00    -0.165 F 
ENDBRANCH   7   9
BRANCH   7  13
ATOM     13  O   UNL     1      46.463 -22.305 -42.751  0.00  0.00    -0.359 OA
ATOM     14  H   UNL     1      46.425 -21.576 -43.389  0.00  0.00    +0.000 HD
ENDBRANCH   7  13
TORSDOF 2
ENDMDL
MODEL 4
REMARK VINA RESULT:    -4.909      1.852      2.716
REMARK INTER + INTRA:          -5.454
REMARK INTER:                  -5.429
REMARK INTRA:                  -0.025
REMARK UNBOUND:                -0.115
REMARK  Name = cpd240.pdb
REMARK  4 active torsions:
REMARK  status: ('A' for Active; 'I' for Inactive)
REMARK    1  A    between atoms: C_1  and  N_2
REMARK    2  A    between atoms: N_2  and  C_3
REMARK    3  A    between atoms: C_7  and  O_8
REMARK    4  A    between atoms: C_7  and  C_9
REMARK                            x       y       z     vdW  Elec       q    Type
REMARK                         _______ _______ _______ _____ _____    ______ ____
ROOT
ATOM      1  C   UNL     1      62.767 -26.938  -6.751  0.00  0.00    -0.100 C 
ATOM      2  N   UNL     1      64.019 -26.051  -6.791  0.00  0.00    +0.381 N 
ATOM      3  C   UNL     1      65.245 -26.952  -6.752  0.00  0.00    -0.100 C 
ATOM      4  C   UNL     1      64.014 -25.093  -5.572  0.00  0.00    -0.064 C 
ATOM      5  C   UNL     1      63.615 -23.661  -5.973  0.00  0.00    +0.037 C 
ATOM      6  O   UNL     1      62.528 -23.644  -6.897  0.00  0.00    -0.345 OA
ATOM      7  C   UNL     1      62.850 -24.205  -8.185  0.00  0.00    +0.251 C 
ATOM      8  C   UNL     1      64.039 -25.211  -8.113  0.00  0.00    -0.024 C 
ENDROOT
BRANCH   7   9
ATOM      9  C   UNL     1      63.249 -23.124  -9.228  0.00  0.00    +0.442 C 
ATOM     10  F   UNL     1      63.697 -23.701 -10.365  0.00  0.00    -0.165 F 
ATOM     11  F   UNL     1      64.241 -22.338  -8.755  0.00  0.00    -0.165 F 
ATOM     12  F   UNL     1      62.197 -22.341  -9.544  0.00  0.00    -0.165 F 
ENDBRANCH   7   9
BRANCH   7  13
ATOM     13  O   UNL     1      61.678 -24.936  -8.591  0.00  0.00    -0.359 OA
ATOM     14  H   UNL     1      61.357 -24.587  -9.437  0.00  0.00    +0.000 HD
ENDBRANCH   7  13
TORSDOF 2
ENDMDL
MODEL 5
REMARK VINA RESULT:    -4.904     35.307     36.711
REMARK INTER + INTRA:          -5.449
REMARK INTER:                  -5.353
REMARK INTRA:                  -0.096
REMARK UNBOUND:                -0.115
REMARK  Name = cpd240.pdb
REMARK  4 active torsions:
REMARK  status: ('A' for Active; 'I' for Inactive)
REMARK    1  A    between atoms: C_1  and  N_2
REMARK    2  A    between atoms: N_2  and  C_3
REMARK    3  A    between atoms: C_7  and  O_8
REMARK    4  A    between atoms: C_7  and  C_9
REMARK                            x       y       z     vdW  Elec       q    Type
REMARK                         _______ _______ _______ _____ _____    ______ ____
ROOT
ATOM      1  C   UNL     1      39.504 -21.470 -37.712  0.00  0.00    -0.100 C 
ATOM      2  N   UNL     1      39.337 -20.923 -36.288  0.00  0.00    +0.381 N 
ATOM      3  C   UNL     1      38.679 -19.553 -36.376  0.00  0.00    -0.100 C 
ATOM      4  C   UNL     1      40.727 -20.810 -35.611  0.00  0.00    -0.064 C 
ATOM      5  C   UNL     1      40.961 -21.944 -34.595  0.00  0.00    +0.037 C 
ATOM      6  O   UNL     1      40.506 -23.205 -35.082  0.00  0.00    -0.345 OA
ATOM      7  C   UNL     1      39.076 -23.282 -35.250  0.00  0.00    +0.251 C 
ATOM      8  C   UNL     1      38.425 -21.880 -35.448  0.00  0.00    -0.024 C 
ENDROOT
BRANCH   7   9
ATOM      9  C   UNL     1      38.363 -23.931 -34.030  0.00  0.00    +0.442 C 
ATOM     10  F   UNL     1      39.269 -24.380 -33.132  0.00  0.00    -0.165 F 
ATOM     11  F   UNL     1      37.615 -24.988 -34.415  0.00  0.00    -0.165 F 
ATOM     12  F   UNL     1      37.561 -23.044 -33.405  0.00  0.00    -0.165 F 
ENDBRANCH   7   9
BRANCH   7  13
ATOM     13  O   UNL     1      38.870 -24.039 -36.456  0.00  0.00    -0.359 OA
ATOM     14  H   UNL     1      38.120 -23.668 -36.947  0.00  0.00    +0.000 HD
ENDBRANCH   7  13
TORSDOF 2
ENDMDL
MODEL 6
REMARK VINA RESULT:    -4.874     50.254     51.806
REMARK INTER + INTRA:          -5.416
REMARK INTER:                  -5.302
REMARK INTRA:                  -0.114
REMARK UNBOUND:                -0.115
REMARK  Name = cpd240.pdb
REMARK  4 active torsions:
REMARK  status: ('A' for Active; 'I' for Inactive)
REMARK    1  A    between atoms: C_1  and  N_2
REMARK    2  A    between atoms: N_2  and  C_3
REMARK    3  A    between atoms: C_7  and  O_8
REMARK    4  A    between atoms: C_7  and  C_9
REMARK                            x       y       z     vdW  Elec       q    Type
REMARK                         _______ _______ _______ _____ _____    ______ ____
ROOT
ATOM      1  C   UNL     1      45.623 -33.235 -54.541  0.00  0.00    -0.100 C 
ATOM      2  N   UNL     1      46.003 -34.573 -53.892  0.00  0.00    +0.381 N 
ATOM      3  C   UNL     1      46.508 -34.296 -52.484  0.00  0.00    -0.100 C 
ATOM      4  C   UNL     1      47.106 -35.262 -54.736  0.00  0.00    -0.064 C 
ATOM      5  C   UNL     1      46.540 -36.420 -55.579  0.00  0.00    +0.037 C 
ATOM      6  O   UNL     1      45.288 -36.088 -56.178  0.00  0.00    -0.345 OA
ATOM      7  C   UNL     1      44.221 -35.898 -55.228  0.00  0.00    +0.251 C 
ATOM      8  C   UNL     1      44.747 -35.506 -53.813  0.00  0.00    -0.024 C 
ENDROOT
BRANCH   7   9
ATOM      9  C   UNL     1      43.353 -37.173 -55.039  0.00  0.00    +0.442 C 
ATOM     10  F   UNL     1      43.857 -37.951 -54.055  0.00  0.00    -0.165 F 
ATOM     11  F   UNL     1      43.329 -37.914 -56.169  0.00  0.00    -0.165 F 
ATOM     12  F   UNL     1      42.084 -36.855 -54.710  0.00  0.00    -0.165 F 
ENDBRANCH   7   9
BRANCH   7  13
ATOM     13  O   UNL     1      43.448 -34.793 -55.732  0.00  0.00    -0.359 OA
ATOM     14  H   UNL     1      44.003 -33.998 -55.763  0.00  0.00    +0.000 HD
ENDBRANCH   7  13
TORSDOF 2
ENDMDL
MODEL 7
REMARK VINA RESULT:    -4.818     34.435     35.797
REMARK INTER + INTRA:          -5.355
REMARK INTER:                  -5.257
REMARK INTRA:                  -0.098
REMARK UNBOUND:                -0.115
REMARK  Name = cpd240.pdb
REMARK  4 active torsions:
REMARK  status: ('A' for Active; 'I' for Inactive)
REMARK    1  A    between atoms: C_1  and  N_2
REMARK    2  A    between atoms: N_2  and  C_3
REMARK    3  A    between atoms: C_7  and  O_8
REMARK    4  A    between atoms: C_7  and  C_9
REMARK                            x       y       z     vdW  Elec       q    Type
REMARK                         _______ _______ _______ _____ _____    ______ ____
ROOT
ATOM      1  C   UNL     1      40.156 -20.833 -35.808  0.00  0.00    -0.100 C 
ATOM      2  N   UNL     1      39.504 -20.812 -34.419  0.00  0.00    +0.381 N 
ATOM      3  C   UNL     1      38.748 -19.499 -34.266  0.00  0.00    -0.100 C 
ATOM      4  C   UNL     1      40.600 -20.933 -33.330  0.00  0.00    -0.064 C 
ATOM      5  C   UNL     1      40.645 -22.347 -32.720  0.00  0.00    +0.037 C 
ATOM      6  O   UNL     1      40.509 -23.365 -33.711  0.00  0.00    -0.345 OA
ATOM      7  C   UNL     1      39.216 -23.386 -34.349  0.00  0.00    +0.251 C 
ATOM      8  C   UNL     1      38.497 -22.004 -34.281  0.00  0.00    -0.024 C 
ENDROOT
BRANCH   7   9
ATOM      9  C   UNL     1      38.248 -24.419 -33.708  0.00  0.00    +0.442 C 
ATOM     10  F   UNL     1      37.209 -23.793 -33.111  0.00  0.00    -0.165 F 
ATOM     11  F   UNL     1      38.879 -25.150 -32.763  0.00  0.00    -0.165 F 
ATOM     12  F   UNL     1      37.749 -25.261 -34.637  0.00  0.00    -0.165 F 
ENDBRANCH   7   9
BRANCH   7  13
ATOM     13  O   UNL     1      39.475 -23.680 -35.734  0.00  0.00    -0.359 OA
ATOM     14  H   UNL     1      39.983 -24.504 -35.800  0.00  0.00    +0.000 HD
ENDBRANCH   7  13
TORSDOF 2
ENDMDL
MODEL 8
REMARK VINA RESULT:    -4.792     35.764     36.894
REMARK INTER + INTRA:          -5.327
REMARK INTER:                  -5.213
REMARK INTRA:                  -0.114
REMARK UNBOUND:                -0.115
REMARK  Name = cpd240.pdb
REMARK  4 active torsions:
REMARK  status: ('A' for Active; 'I' for Inactive)
REMARK    1  A    between atoms: C_1  and  N_2
REMARK    2  A    between atoms: N_2  and  C_3
REMARK    3  A    between atoms: C_7  and  O_8
REMARK    4  A    between atoms: C_7  and  C_9
REMARK                            x       y       z     vdW  Elec       q    Type
REMARK                         _______ _______ _______ _____ _____    ______ ____
ROOT
ATOM      1  C   UNL     1      45.992 -19.362 -38.938  0.00  0.00    -0.100 C 
ATOM      2  N   UNL     1      45.972 -19.494 -40.466  0.00  0.00    +0.381 N 
ATOM      3  C   UNL     1      46.087 -18.101 -41.069  0.00  0.00    -0.100 C 
ATOM      4  C   UNL     1      44.647 -20.166 -40.910  0.00  0.00    -0.064 C 
ATOM      5  C   UNL     1      44.856 -21.640 -41.301  0.00  0.00    +0.037 C 
ATOM      6  O   UNL     1      45.731 -22.316 -40.398  0.00  0.00    -0.345 OA
ATOM      7  C   UNL     1      47.088 -21.832 -40.431  0.00  0.00    +0.251 C 
ATOM      8  C   UNL     1      47.183 -20.363 -40.947  0.00  0.00    -0.024 C 
ENDROOT
BRANCH   7   9
ATOM      9  C   UNL     1      48.007 -22.683 -41.350  0.00  0.00    +0.442 C 
ATOM     10  F   UNL     1      48.196 -22.067 -42.539  0.00  0.00    -0.165 F 
ATOM     11  F   UNL     1      47.454 -23.890 -41.603  0.00  0.00    -0.165 F 
ATOM     12  F   UNL     1      49.217 -22.877 -40.786  0.00  0.00    -0.165 F 
ENDBRANCH   7   9
BRANCH   7  13
ATOM     13  O   UNL     1      47.536 -21.848 -39.062  0.00  0.00    -0.359 OA
ATOM     14  H   UNL     1      47.138 -21.104 -38.584  0.00  0.00    +0.000 HD
ENDBRANCH   7  13
TORSDOF 2
ENDMDL
MODEL 9
REMARK VINA RESULT:    -4.668      2.350      3.056
REMARK INTER + INTRA:          -5.192
REMARK INTER:                  -5.081
REMARK INTRA:                  -0.111
REMARK UNBOUND:                -0.115
REMARK  Name = cpd240.pdb
REMARK  4 active torsions:
REMARK  status: ('A' for Active; 'I' for Inactive)
REMARK    1  A    between atoms: C_1  and  N_2
REMARK    2  A    between atoms: N_2  and  C_3
REMARK    3  A    between atoms: C_7  and  O_8
REMARK    4  A    between atoms: C_7  and  C_9
REMARK                            x       y       z     vdW  Elec       q    Type
REMARK                         _______ _______ _______ _____ _____    ______ ____
ROOT
ATOM      1  C   UNL     1      64.811 -27.068  -6.704  0.00  0.00    -0.100 C 
ATOM      2  N   UNL     1      63.540 -26.337  -6.252  0.00  0.00    +0.381 N 
ATOM      3  C   UNL     1      63.118 -26.899  -4.902  0.00  0.00    -0.100 C 
ATOM      4  C   UNL     1      62.418 -26.552  -7.301  0.00  0.00    -0.064 C 
ATOM      5  C   UNL     1      62.206 -25.303  -8.176  0.00  0.00    +0.037 C 
ATOM      6  O   UNL     1      63.441 -24.704  -8.566  0.00  0.00    -0.345 OA
ATOM      7  C   UNL     1      64.188 -24.142  -7.468  0.00  0.00    +0.251 C 
ATOM      8  C   UNL     1      63.826 -24.804  -6.104  0.00  0.00    -0.024 C 
ENDROOT
BRANCH   7   9
ATOM      9  C   UNL     1      63.947 -22.617  -7.297  0.00  0.00    +0.442 C 
ATOM     10  F   UNL     1      62.838 -22.389  -6.559  0.00  0.00    -0.165 F 
ATOM     11  F   UNL     1      63.766 -22.019  -8.495  0.00  0.00    -0.165 F 
ATOM     12  F   UNL     1      64.989 -22.025  -6.677  0.00  0.00    -0.165 F 
ENDBRANCH   7   9
BRANCH   7  13
ATOM     13  O   UNL     1      65.568 -24.439  -7.750  0.00  0.00    -0.359 OA
ATOM     14  H   UNL     1      65.625 -25.266  -8.254  0.00  0.00    +0.000 HD
ENDBRANCH   7  13
TORSDOF 2
ENDMDL
MODEL 10
REMARK VINA RESULT:    -4.616     40.780     42.408
REMARK INTER + INTRA:          -5.136
REMARK INTER:                  -5.021
REMARK INTRA:                  -0.114
REMARK UNBOUND:                -0.115
REMARK  Name = cpd240.pdb
REMARK  4 active torsions:
REMARK  status: ('A' for Active; 'I' for Inactive)
REMARK    1  A    between atoms: C_1  and  N_2
REMARK    2  A    between atoms: N_2  and  C_3
REMARK    3  A    between atoms: C_7  and  O_8
REMARK    4  A    between atoms: C_7  and  C_9
REMARK                            x       y       z     vdW  Elec       q    Type
REMARK                         _______ _______ _______ _____ _____    ______ ____
ROOT
ATOM      1  C   UNL     1      53.666 -36.779 -49.936  0.00  0.00    -0.100 C 
ATOM      2  N   UNL     1      55.063 -36.265 -49.561  0.00  0.00    +0.381 N 
ATOM      3  C   UNL     1      55.634 -35.516 -50.756  0.00  0.00    -0.100 C 
ATOM      4  C   UNL     1      55.973 -37.464 -49.191  0.00  0.00    -0.064 C 
ATOM      5  C   UNL     1      56.172 -37.583 -47.669  0.00  0.00    +0.037 C 
ATOM      6  O   UNL     1      54.960 -37.360 -46.949  0.00  0.00    -0.345 OA
ATOM      7  C   UNL     1      54.461 -36.011 -47.053  0.00  0.00    +0.251 C 
ATOM      8  C   UNL     1      54.966 -35.289 -48.340  0.00  0.00    -0.024 C 
ENDROOT
BRANCH   7   9
ATOM      9  C   UNL     1      54.885 -35.121 -45.852  0.00  0.00    +0.442 C 
ATOM     10  F   UNL     1      53.875 -34.298 -45.489  0.00  0.00    -0.165 F 
ATOM     11  F   UNL     1      55.944 -34.346 -46.175  0.00  0.00    -0.165 F 
ATOM     12  F   UNL     1      55.215 -35.872 -44.781  0.00  0.00    -0.165 F 
ENDBRANCH   7   9
BRANCH   7  13
ATOM     13  O   UNL     1      53.030 -36.136 -47.150  0.00  0.00    -0.359 OA
ATOM     14  H   UNL     1      52.780 -36.269 -48.077  0.00  0.00    +0.000 HD
ENDBRANCH   7  13
TORSDOF 2
ENDMDL
MODEL 11
REMARK VINA RESULT:    -4.525      2.184      2.835
REMARK INTER + INTRA:          -5.036
REMARK INTER:                  -4.924
REMARK INTRA:                  -0.112
REMARK UNBOUND:                -0.115
REMARK  Name = cpd240.pdb
REMARK  4 active torsions:
REMARK  status: ('A' for Active; 'I' for Inactive)
REMARK    1  A    between atoms: C_1  and  N_2
REMARK    2  A    between atoms: N_2  and  C_3
REMARK    3  A    between atoms: C_7  and  O_8
REMARK    4  A    between atoms: C_7  and  C_9
REMARK                            x       y       z     vdW  Elec       q    Type
REMARK                         _______ _______ _______ _____ _____    ______ ____
ROOT
ATOM      1  C   UNL     1      65.718 -22.112  -5.757  0.00  0.00    -0.100 C 
ATOM      2  N   UNL     1      64.393 -22.591  -5.150  0.00  0.00    +0.381 N 
ATOM      3  C   UNL     1      63.671 -21.387  -4.563  0.00  0.00    -0.100 C 
ATOM      4  C   UNL     1      64.679 -23.640  -4.044  0.00  0.00    -0.064 C 
ATOM      5  C   UNL     1      64.383 -25.073  -4.524  0.00  0.00    +0.037 C 
ATOM      6  O   UNL     1      64.842 -25.298  -5.857  0.00  0.00    -0.345 OA
ATOM      7  C   UNL     1      64.140 -24.528  -6.852  0.00  0.00    +0.251 C 
ATOM      8  C   UNL     1      63.497 -23.237  -6.260  0.00  0.00    -0.024 C 
ENDROOT
BRANCH   7   9
ATOM      9  C   UNL     1      62.989 -25.326  -7.526  0.00  0.00    +0.442 C 
ATOM     10  F   UNL     1      62.992 -25.130  -8.864  0.00  0.00    -0.165 F 
ATOM     11  F   UNL     1      61.786 -24.925  -7.060  0.00  0.00    -0.165 F 
ATOM     12  F   UNL     1      63.116 -26.650  -7.299  0.00  0.00    -0.165 F 
ENDBRANCH   7   9
BRANCH   7  13
ATOM     13  O   UNL     1      65.141 -24.125  -7.804  0.00  0.00    -0.359 OA
ATOM     14  H   UNL     1      64.716 -23.904  -8.647  0.00  0.00    +0.000 HD
ENDBRANCH   7  13
TORSDOF 2
ENDMDL
MODEL 12
REMARK VINA RESULT:    -4.492     41.394     42.969
REMARK INTER + INTRA:          -5.001
REMARK INTER:                  -4.902
REMARK INTRA:                  -0.098
REMARK UNBOUND:                -0.115
REMARK  Name = cpd240.pdb
REMARK  4 active torsions:
REMARK  status: ('A' for Active; 'I' for Inactive)
REMARK    1  A    between atoms: C_1  and  N_2
REMARK    2  A    between atoms: N_2  and  C_3
REMARK    3  A    between atoms: C_7  and  O_8
REMARK    4  A    between atoms: C_7  and  C_9
REMARK                            x       y       z     vdW  Elec       q    Type
REMARK                         _______ _______ _______ _____ _____    ______ ____
ROOT
ATOM      1  C   UNL     1      56.480 -36.891 -50.800  0.00  0.00    -0.100 C 
ATOM      2  N   UNL     1      55.558 -35.724 -50.423  0.00  0.00    +0.381 N 
ATOM      3  C   UNL     1      54.484 -35.597 -51.494  0.00  0.00    -0.100 C 
ATOM      4  C   UNL     1      56.388 -34.418 -50.333  0.00  0.00    -0.064 C 
ATOM      5  C   UNL     1      56.651 -34.007 -48.872  0.00  0.00    +0.037 C 
ATOM      6  O   UNL     1      56.990 -35.125 -48.052  0.00  0.00    -0.345 OA
ATOM      7  C   UNL     1      55.913 -36.068 -47.879  0.00  0.00    +0.251 C 
ATOM      8  C   UNL     1      54.875 -36.004 -49.041  0.00  0.00    -0.024 C 
ENDROOT
BRANCH   7   9
ATOM      9  C   UNL     1      55.119 -35.836 -46.564  0.00  0.00    +0.442 C 
ATOM     10  F   UNL     1      55.070 -36.970 -45.830  0.00  0.00    -0.165 F 
ATOM     11  F   UNL     1      53.845 -35.469 -46.827  0.00  0.00    -0.165 F 
ATOM     12  F   UNL     1      55.693 -34.875 -45.810  0.00  0.00    -0.165 F 
ENDBRANCH   7   9
BRANCH   7  13
ATOM     13  O   UNL     1      56.531 -37.368 -47.911  0.00  0.00    -0.359 OA
ATOM     14  H   UNL     1      55.893 -38.036 -47.614  0.00  0.00    +0.000 HD
ENDBRANCH   7  13
TORSDOF 2
ENDMDL
MODEL 13
REMARK VINA RESULT:    -4.406      2.858      3.636
REMARK INTER + INTRA:          -4.907
REMARK INTER:                  -4.797
REMARK INTRA:                  -0.110
REMARK UNBOUND:                -0.115
REMARK  Name = cpd240.pdb
REMARK  4 active torsions:
REMARK  status: ('A' for Active; 'I' for Inactive)
REMARK    1  A    between atoms: C_1  and  N_2
REMARK    2  A    between atoms: N_2  and  C_3
REMARK    3  A    between atoms: C_7  and  O_8
REMARK    4  A    between atoms: C_7  and  C_9
REMARK                            x       y       z     vdW  Elec       q    Type
REMARK                         _______ _______ _______ _____ _____    ______ ____
ROOT
ATOM      1  C   UNL     1      64.212 -22.509  -4.207  0.00  0.00    -0.100 C 
ATOM      2  N   UNL     1      64.788 -22.743  -5.610  0.00  0.00    +0.381 N 
ATOM      3  C   UNL     1      66.122 -22.017  -5.708  0.00  0.00    -0.100 C 
ATOM      4  C   UNL     1      63.799 -22.200  -6.673  0.00  0.00    -0.064 C 
ATOM      5  C   UNL     1      63.021 -23.336  -7.363  0.00  0.00    +0.037 C 
ATOM      6  O   UNL     1      62.595 -24.336  -6.438  0.00  0.00    -0.345 OA
ATOM      7  C   UNL     1      63.679 -25.074  -5.839  0.00  0.00    +0.251 C 
ATOM      8  C   UNL     1      65.018 -24.274  -5.847  0.00  0.00    -0.024 C 
ENDROOT
BRANCH   7   9
ATOM      9  C   UNL     1      63.963 -26.417  -6.567  0.00  0.00    +0.442 C 
ATOM     10  F   UNL     1      62.953 -26.726  -7.410  0.00  0.00    -0.165 F 
ATOM     11  F   UNL     1      64.077 -27.432  -5.681  0.00  0.00    -0.165 F 
ATOM     12  F   UNL     1      65.102 -26.351  -7.288  0.00  0.00    -0.165 F 
ENDBRANCH   7   9
BRANCH   7  13
ATOM     13  O   UNL     1      63.295 -25.278  -4.467  0.00  0.00    -0.359 OA
ATOM     14  H   UNL     1      63.701 -26.093  -4.135  0.00  0.00    +0.000 HD
ENDBRANCH   7  13
TORSDOF 2
ENDMDL
MODEL 14
REMARK VINA RESULT:    -4.394     23.844     25.160
REMARK INTER + INTRA:          -4.894
REMARK INTER:                  -4.781
REMARK INTRA:                  -0.113
REMARK UNBOUND:                -0.115
REMARK  Name = cpd240.pdb
REMARK  4 active torsions:
REMARK  status: ('A' for Active; 'I' for Inactive)
REMARK    1  A    between atoms: C_1  and  N_2
REMARK    2  A    between atoms: N_2  and  C_3
REMARK    3  A    between atoms: C_7  and  O_8
REMARK    4  A    between atoms: C_7  and  C_9
REMARK                            x       y       z     vdW  Elec       q    Type
REMARK                         _______ _______ _______ _____ _____    ______ ____
ROOT
ATOM      1  C   UNL     1      63.376 -13.016 -28.538  0.00  0.00    -0.100 C 
ATOM      2  N   UNL     1      63.411 -13.710 -29.907  0.00  0.00    +0.381 N 
ATOM      3  C   UNL     1      64.258 -14.968 -29.785  0.00  0.00    -0.100 C 
ATOM      4  C   UNL     1      64.022 -12.748 -30.958  0.00  0.00    -0.064 C 
ATOM      5  C   UNL     1      62.942 -12.138 -31.870  0.00  0.00    +0.037 C 
ATOM      6  O   UNL     1      61.778 -11.750 -31.141  0.00  0.00    -0.345 OA
ATOM      7  C   UNL     1      61.055 -12.857 -30.567  0.00  0.00    +0.251 C 
ATOM      8  C   UNL     1      61.960 -14.106 -30.344  0.00  0.00    -0.024 C 
ENDROOT
BRANCH   7   9
ATOM      9  C   UNL     1      59.869 -13.323 -31.456  0.00  0.00    +0.442 C 
ATOM     10  F   UNL     1      60.285 -14.227 -32.371  0.00  0.00    -0.165 F 
ATOM     11  F   UNL     1      59.332 -12.283 -32.130  0.00  0.00    -0.165 F 
ATOM     12  F   UNL     1      58.899 -13.898 -30.714  0.00  0.00    -0.165 F 
ENDBRANCH   7   9
BRANCH   7  13
ATOM     13  O   UNL     1      60.610 -12.399 -29.277  0.00  0.00    -0.359 OA
ATOM     14  H   UNL     1      60.867 -11.472 -29.157  0.00  0.00    +0.000 HD
ENDBRANCH   7  13
TORSDOF 2
ENDMDL
MODEL 15
REMARK VINA RESULT:    -4.376     35.362     36.815
REMARK INTER + INTRA:          -4.874
REMARK INTER:                  -4.789
REMARK INTRA:                  -0.085
REMARK UNBOUND:                -0.115
REMARK  Name = cpd240.pdb
REMARK  4 active torsions:
REMARK  status: ('A' for Active; 'I' for Inactive)
REMARK    1  A    between atoms: C_1  and  N_2
REMARK    2  A    between atoms: N_2  and  C_3
REMARK    3  A    between atoms: C_7  and  O_8
REMARK    4  A    between atoms: C_7  and  C_9
REMARK                            x       y       z     vdW  Elec       q    Type
REMARK                         _______ _______ _______ _____ _____    ______ ____
ROOT
ATOM      1  C   UNL     1      45.016 -19.720 -38.330  0.00  0.00    -0.100 C 
ATOM      2  N   UNL     1      46.438 -19.640 -38.901  0.00  0.00    +0.381 N 
ATOM      3  C   UNL     1      47.392 -19.302 -37.764  0.00  0.00    -0.100 C 
ATOM      4  C   UNL     1      46.495 -18.544 -39.996  0.00  0.00    -0.064 C 
ATOM      5  C   UNL     1      46.514 -19.151 -41.412  0.00  0.00    +0.037 C 
ATOM      6  O   UNL     1      45.603 -20.242 -41.541  0.00  0.00    -0.345 OA
ATOM      7  C   UNL     1      45.957 -21.393 -40.748  0.00  0.00    +0.251 C 
ATOM      8  C   UNL     1      46.846 -21.019 -39.522  0.00  0.00    -0.024 C 
ENDROOT
BRANCH   7   9
ATOM      9  C   UNL     1      46.747 -22.459 -41.556  0.00  0.00    +0.442 C 
ATOM     10  F   UNL     1      48.006 -22.034 -41.804  0.00  0.00    -0.165 F 
ATOM     11  F   UNL     1      46.157 -22.696 -42.749  0.00  0.00    -0.165 F 
ATOM     12  F   UNL     1      46.826 -23.624 -40.880  0.00  0.00    -0.165 F 
ENDBRANCH   7   9
BRANCH   7  13
ATOM     13  O   UNL     1      44.712 -21.913 -40.247  0.00  0.00    -0.359 OA
ATOM     14  H   UNL     1      44.468 -22.707 -40.748  0.00  0.00    +0.000 HD
ENDBRANCH   7  13
TORSDOF 2
ENDMDL
MODEL 16
REMARK VINA RESULT:    -4.324     36.747     37.799
REMARK INTER + INTRA:          -4.818
REMARK INTER:                  -4.741
REMARK INTRA:                  -0.077
REMARK UNBOUND:                -0.115
REMARK  Name = cpd240.pdb
REMARK  4 active torsions:
REMARK  status: ('A' for Active; 'I' for Inactive)
REMARK    1  A    between atoms: C_1  and  N_2
REMARK    2  A    between atoms: N_2  and  C_3
REMARK    3  A    between atoms: C_7  and  O_8
REMARK    4  A    between atoms: C_7  and  C_9
REMARK                            x       y       z     vdW  Elec       q    Type
REMARK                         _______ _______ _______ _____ _____    ______ ____
ROOT
ATOM      1  C   UNL     1      47.130 -17.964 -40.512  0.00  0.00    -0.100 C 
ATOM      2  N   UNL     1      45.779 -18.582 -40.130  0.00  0.00    +0.381 N 
ATOM      3  C   UNL     1      44.820 -17.455 -39.774  0.00  0.00    -0.100 C 
ATOM      4  C   UNL     1      45.968 -19.532 -38.920  0.00  0.00    -0.064 C 
ATOM      5  C   UNL     1      45.942 -21.012 -39.346  0.00  0.00    +0.037 C 
ATOM      6  O   UNL     1      46.673 -21.238 -40.551  0.00  0.00    -0.345 OA
ATOM      7  C   UNL     1      46.091 -20.611 -41.711  0.00  0.00    +0.251 C 
ATOM      8  C   UNL     1      45.197 -19.389 -41.340  0.00  0.00    -0.024 C 
ENDROOT
BRANCH   7   9
ATOM      9  C   UNL     1      45.194 -21.581 -42.530  0.00  0.00    +0.442 C 
ATOM     10  F   UNL     1      44.062 -21.873 -41.851  0.00  0.00    -0.165 F 
ATOM     11  F   UNL     1      45.835 -22.747 -42.768  0.00  0.00    -0.165 F 
ATOM     12  F   UNL     1      44.842 -21.038 -43.713  0.00  0.00    -0.165 F 
ENDBRANCH   7   9
BRANCH   7  13
ATOM     13  O   UNL     1      47.203 -20.126 -42.485  0.00  0.00    -0.359 OA
ATOM     14  H   UNL     1      47.835 -19.680 -41.900  0.00  0.00    +0.000 HD
ENDBRANCH   7  13
TORSDOF 2
ENDMDL
MODEL 17
REMARK VINA RESULT:    -4.254     49.805     51.059
REMARK INTER + INTRA:          -4.742
REMARK INTER:                  -4.638
REMARK INTRA:                  -0.104
REMARK UNBOUND:                -0.115
REMARK  Name = cpd240.pdb
REMARK  4 active torsions:
REMARK  status: ('A' for Active; 'I' for Inactive)
REMARK    1  A    between atoms: C_1  and  N_2
REMARK    2  A    between atoms: N_2  and  C_3
REMARK    3  A    between atoms: C_7  and  O_8
REMARK    4  A    between atoms: C_7  and  C_9
REMARK                            x       y       z     vdW  Elec       q    Type
REMARK                         _______ _______ _______ _____ _____    ______ ____
ROOT
ATOM      1  C   UNL     1      45.140 -37.029 -56.651  0.00  0.00    -0.100 C 
ATOM      2  N   UNL     1      46.168 -37.197 -55.524  0.00  0.00    +0.381 N 
ATOM      3  C   UNL     1      47.504 -37.577 -56.147  0.00  0.00    -0.100 C 
ATOM      4  C   UNL     1      45.692 -38.306 -54.551  0.00  0.00    -0.064 C 
ATOM      5  C   UNL     1      45.124 -37.717 -53.247  0.00  0.00    +0.037 C 
ATOM      6  O   UNL     1      44.300 -36.577 -53.486  0.00  0.00    -0.345 OA
ATOM      7  C   UNL     1      45.017 -35.440 -54.008  0.00  0.00    +0.251 C 
ATOM      8  C   UNL     1      46.330 -35.851 -54.741  0.00  0.00    -0.024 C 
ENDROOT
BRANCH   7   9
ATOM      9  C   UNL     1      45.427 -34.430 -52.900  0.00  0.00    +0.442 C 
ATOM     10  F   UNL     1      46.768 -34.426 -52.731  0.00  0.00    -0.165 F 
ATOM     11  F   UNL     1      44.869 -34.760 -51.715  0.00  0.00    -0.165 F 
ATOM     12  F   UNL     1      45.044 -33.175 -53.218  0.00  0.00    -0.165 F 
ENDBRANCH   7   9
BRANCH   7  13
ATOM     13  O   UNL     1      44.138 -34.843 -54.979  0.00  0.00    -0.359 OA
ATOM     14  H   UNL     1      43.274 -34.673 -54.573  0.00  0.00    +0.000 HD
ENDBRANCH   7  13
TORSDOF 2
ENDMDL
MODEL 18
REMARK VINA RESULT:    -4.251     35.046     36.477
REMARK INTER + INTRA:          -4.739
REMARK INTER:                  -4.625
REMARK INTRA:                  -0.114
REMARK UNBOUND:                -0.115
REMARK  Name = cpd240.pdb
REMARK  4 active torsions:
REMARK  status: ('A' for Active; 'I' for Inactive)
REMARK    1  A    between atoms: C_1  and  N_2
REMARK    2  A    between atoms: N_2  and  C_3
REMARK    3  A    between atoms: C_7  and  O_8
REMARK    4  A    between atoms: C_7  and  C_9
REMARK                            x       y       z     vdW  Elec       q    Type
REMARK                         _______ _______ _______ _____ _____    ______ ____
ROOT
ATOM      1  C   UNL     1      45.052 -18.711 -40.510  0.00  0.00    -0.100 C 
ATOM      2  N   UNL     1      44.661 -20.056 -39.883  0.00  0.00    +0.381 N 
ATOM      3  C   UNL     1      43.177 -20.285 -40.127  0.00  0.00    -0.100 C 
ATOM      4  C   UNL     1      44.959 -20.024 -38.362  0.00  0.00    -0.064 C 
ATOM      5  C   UNL     1      46.233 -20.816 -38.012  0.00  0.00    +0.037 C 
ATOM      6  O   UNL     1      47.284 -20.585 -38.949  0.00  0.00    -0.345 OA
ATOM      7  C   UNL     1      47.006 -21.088 -40.271  0.00  0.00    +0.251 C 
ATOM      8  C   UNL     1      45.477 -21.215 -40.549  0.00  0.00    -0.024 C 
ENDROOT
BRANCH   7   9
ATOM      9  C   UNL     1      47.618 -22.495 -40.518  0.00  0.00    +0.442 C 
ATOM     10  F   UNL     1      48.590 -22.757 -39.615  0.00  0.00    -0.165 F 
ATOM     11  F   UNL     1      48.175 -22.571 -41.747  0.00  0.00    -0.165 F 
ATOM     12  F   UNL     1      46.681 -23.460 -40.413  0.00  0.00    -0.165 F 
ENDBRANCH   7   9
BRANCH   7  13
ATOM     13  O   UNL     1      47.539 -20.105 -41.178  0.00  0.00    -0.359 OA
ATOM     14  H   UNL     1      47.370 -19.217 -40.827  0.00  0.00    +0.000 HD
ENDBRANCH   7  13
TORSDOF 2
ENDMDL
MODEL 19
REMARK VINA RESULT:    -4.238     23.517     24.941
REMARK INTER + INTRA:          -4.724
REMARK INTER:                  -4.692
REMARK INTRA:                  -0.032
REMARK UNBOUND:                -0.115
REMARK  Name = cpd240.pdb
REMARK  4 active torsions:
REMARK  status: ('A' for Active; 'I' for Inactive)
REMARK    1  A    between atoms: C_1  and  N_2
REMARK    2  A    between atoms: N_2  and  C_3
REMARK    3  A    between atoms: C_7  and  O_8
REMARK    4  A    between atoms: C_7  and  C_9
REMARK                            x       y       z     vdW  Elec       q    Type
REMARK                         _______ _______ _______ _____ _____    ______ ____
ROOT
ATOM      1  C   UNL     1      63.401 -11.838 -28.903  0.00  0.00    -0.100 C 
ATOM      2  N   UNL     1      62.960 -13.302 -29.033  0.00  0.00    +0.381 N 
ATOM      3  C   UNL     1      63.047 -13.953 -27.660  0.00  0.00    -0.100 C 
ATOM      4  C   UNL     1      63.886 -14.035 -30.037  0.00  0.00    -0.064 C 
ATOM      5  C   UNL     1      63.201 -14.245 -31.400  0.00  0.00    +0.037 C 
ATOM      6  O   UNL     1      62.468 -13.093 -31.816  0.00  0.00    -0.345 OA
ATOM      7  C   UNL     1      61.330 -12.795 -30.983  0.00  0.00    +0.251 C 
ATOM      8  C   UNL     1      61.480 -13.373 -29.543  0.00  0.00    -0.024 C 
ENDROOT
BRANCH   7   9
ATOM      9  C   UNL     1      60.003 -13.367 -31.553  0.00  0.00    +0.442 C 
ATOM     10  F   UNL     1      59.288 -13.974 -30.579  0.00  0.00    -0.165 F 
ATOM     11  F   UNL     1      60.246 -14.289 -32.511  0.00  0.00    -0.165 F 
ATOM     12  F   UNL     1      59.238 -12.391 -32.084  0.00  0.00    -0.165 F 
ENDBRANCH   7   9
BRANCH   7  13
ATOM     13  O   UNL     1      61.295 -11.359 -30.880  0.00  0.00    -0.359 OA
ATOM     14  H   UNL     1      61.032 -11.106 -29.981  0.00  0.00    +0.000 HD
ENDBRANCH   7  13
TORSDOF 2
ENDMDL
MODEL 20
REMARK VINA RESULT:    -4.199     34.875     36.087
REMARK INTER + INTRA:          -4.682
REMARK INTER:                  -4.572
REMARK INTRA:                  -0.110
REMARK UNBOUND:                -0.115
REMARK  Name = cpd240.pdb
REMARK  4 active torsions:
REMARK  status: ('A' for Active; 'I' for Inactive)
REMARK    1  A    between atoms: C_1  and  N_2
REMARK    2  A    between atoms: N_2  and  C_3
REMARK    3  A    between atoms: C_7  and  O_8
REMARK    4  A    between atoms: C_7  and  C_9
REMARK                            x       y       z     vdW  Elec       q    Type
REMARK                         _______ _______ _______ _____ _____    ______ ____
ROOT
ATOM      1  C   UNL     1      41.647 -20.976 -34.768  0.00  0.00    -0.100 C 
ATOM      2  N   UNL     1      40.533 -21.429 -35.723  0.00  0.00    +0.381 N 
ATOM      3  C   UNL     1      41.136 -21.613 -37.108  0.00  0.00    -0.100 C 
ATOM      4  C   UNL     1      39.415 -20.357 -35.759  0.00  0.00    -0.064 C 
ATOM      5  C   UNL     1      38.183 -20.788 -34.942  0.00  0.00    +0.037 C 
ATOM      6  O   UNL     1      38.545 -21.398 -33.704  0.00  0.00    -0.345 OA
ATOM      7  C   UNL     1      39.226 -22.660 -33.854  0.00  0.00    +0.251 C 
ATOM      8  C   UNL     1      39.933 -22.792 -35.238  0.00  0.00    -0.024 C 
ENDROOT
BRANCH   7   9
ATOM      9  C   UNL     1      38.268 -23.877 -33.730  0.00  0.00    +0.442 C 
ATOM     10  F   UNL     1      37.074 -23.495 -33.225  0.00  0.00    -0.165 F 
ATOM     11  F   UNL     1      38.779 -24.812 -32.898  0.00  0.00    -0.165 F 
ATOM     12  F   UNL     1      38.048 -24.450 -34.932  0.00  0.00    -0.165 F 
ENDBRANCH   7   9
BRANCH   7  13
ATOM     13  O   UNL     1      40.244 -22.672 -32.837  0.00  0.00    -0.359 OA
ATOM     14  H   UNL     1      39.851 -22.432 -31.983  0.00  0.00    +0.000 HD
ENDBRANCH   7  13
TORSDOF 2
ENDMDL
