REMARK  Name = cpd240.pdb
REMARK  4 active torsions:
REMARK  status: ('A' for Active; 'I' for Inactive)
REMARK    1  A    between atoms: C_1  and  N_2
REMARK    2  A    between atoms: N_2  and  C_3
REMARK    3  A    between atoms: C_7  and  O_8
REMARK    4  A    between atoms: C_7  and  C_9
REMARK                            x       y       z     vdW  Elec       q    Type
REMARK                         _______ _______ _______ _____ _____    ______ ____
ROOT
ATOM      1  C   UNL     1      -0.187  -1.621  -0.796  0.00  0.00    -0.100 C 
ATOM      2  N   UNL     1      -1.101  -0.768   0.094  0.00  0.00    +0.381 N 
ATOM      3  C   UNL     1      -1.760  -1.681   1.118  0.00  0.00    -0.100 C 
ATOM      4  C   UNL     1      -2.176  -0.075  -0.782  0.00  0.00    -0.064 C 
ATOM      5  C   UNL     1      -1.860   1.416  -1.002  0.00  0.00    +0.037 C 
ATOM      6  O   UNL     1      -0.475   1.639  -1.264  0.00  0.00    -0.345 OA
ATOM      7  C   UNL     1       0.384   1.342  -0.145  0.00  0.00    +0.251 C 
ATOM      8  C   UNL     1      -0.258   0.320   0.842  0.00  0.00    -0.024 C 
ENDROOT
BRANCH   7   9
ATOM      9  C   UNL     1       0.736   2.603   0.692  0.00  0.00    +0.442 C 
ATOM     10  F   UNL     1       1.513   2.273   1.748  0.00  0.00    -0.165 F 
ATOM     11  F   UNL     1      -0.381   3.188   1.178  0.00  0.00    -0.165 F 
ATOM     12  F   UNL     1       1.405   3.510  -0.050  0.00  0.00    -0.165 F 
ENDBRANCH   7   9
BRANCH   7  13
ATOM     13  O   UNL     1       1.557   0.730  -0.712  0.00  0.00    -0.359 OA
ATOM     14  H   UNL     1       1.976   1.347  -1.332  0.00  0.00    +0.000 HD
ENDBRANCH   7  13
TORSDOF 2
