@<TRIPOS>MOLECULE
*****
 13 13 0 0 0
SMALL
GASTEIGER

@<TRIPOS>ATOM
      1 C          -0.1589   -1.2071    0.0000 C.3     1  UNL1        0.1710
      2 N          -0.8660   -0.5000    0.0000 N.4     1  UNL1        0.3121
      3 C          -1.7899   -0.8827    0.0000 C.3     1  UNL1        0.1710
      4 C          -1.7321   -0.0000    0.0000 C.3     1  UNL1        0.1419
      5 C          -1.7321    1.0000    0.0000 C.3     1  UNL1        0.2058
      6 O          -0.8660    1.5000    0.0000 O.3     1  UNL1       -0.3154
      7 C          -0.0000    1.0000    0.0000 C.3     1  UNL1        0.3569
      8 O           1.0000    1.0000    0.0000 O.3     1  UNL1       -0.1795
      9 C           0.5000    1.8660    0.0000 C.3     1  UNL1        0.4538
     10 F           0.5000    2.8660    0.0000 F       1  UNL1       -0.1652
     11 F          -0.3660    2.3660    0.0000 F       1  UNL1       -0.1652
     12 F           1.5000    1.8660    0.0000 F       1  UNL1       -0.1652
     13 C          -0.0000   -0.0000    0.0000 C.3     1  UNL1        0.1779
@<TRIPOS>UNITY_ATOM_ATTR
2 1
charge 1
@<TRIPOS>BOND
     1     1     2    1
     2     2     3    1
     3     2     4    1
     4     4     5    1
     5     5     6    1
     6     6     7    1
     7     7     8    1
     8     7     9    1
     9     9    10    1
    10     9    11    1
    11     9    12    1
    12     7    13    1
    13     2    13    1
