MODEL 1
REMARK VINA RESULT:    -8.768      0.000      0.000
REMARK INTER + INTRA:         -18.552
REMARK INTER:                 -13.895
REMARK INTRA:                  -4.657
REMARK UNBOUND:                -4.657
REMARK  Name = cpd45.pdb
REMARK  12 active torsions:
REMARK  status: ('A' for Active; 'I' for Inactive)
REMARK    1  A    between atoms: C_1  and  C_2
REMARK    2  A    between atoms: C_6  and  N_7
REMARK    3  A    between atoms: N_7  and  C_8
REMARK    4  A    between atoms: C_13  and  C_14
REMARK    5  A    between atoms: N_16  and  C_17
REMARK    6  A    between atoms: C_17  and  C_18
REMARK    7  A    between atoms: N_20  and  C_21
REMARK    8  A    between atoms: C_21  and  C_22
REMARK    9  A    between atoms: C_22  and  C_23
REMARK   10  A    between atoms: C_23  and  N_24
REMARK   11  A    between atoms: N_24  and  C_25
REMARK   12  A    between atoms: C_40  and  C_41
REMARK                            x       y       z     vdW  Elec       q    Type
REMARK                         _______ _______ _______ _____ _____    ______ ____
ROOT
ATOM      1  C   UNL A   1      31.962 -33.805 -30.942  0.00  0.00    +0.230 C 
ATOM      2  O   UNL A   1      31.719 -33.770 -29.736  0.00  0.00    -0.274 OA
ATOM      3  N   UNL A   1      32.966 -33.058 -31.519  0.00  0.00    -0.314 N 
ATOM      4  H   UNL A   1      33.153 -33.172 -32.478  0.00  0.00    +0.000 HD
ENDROOT
BRANCH   1   5
ATOM      5  C   UNL A   1      31.033 -34.533 -31.927  0.00  0.00    +0.088 C 
BRANCH   5   8
ATOM      6  C   UNL A   1      32.437 -36.313 -32.943  0.00  0.00    +0.246 C 
ATOM      7  O   UNL A   1      33.397 -35.568 -33.126  0.00  0.00    -0.270 OA
ATOM      8  N   UNL A   1      31.333 -35.927 -32.221  0.00  0.00    -0.303 N 
ATOM      9  H   UNL A   1      30.719 -36.621 -31.890  0.00  0.00    +0.000 HD
BRANCH   6  15
ATOM     10  C   UNL A   1      33.395 -38.680 -33.037  0.00  0.00    +0.044 A 
ATOM     11  C   UNL A   1      33.288 -39.985 -33.551  0.00  0.00    -0.040 A 
ATOM     12  C   UNL A   1      32.314 -40.308 -34.498  0.00  0.00    -0.060 A 
ATOM     13  C   UNL A   1      31.407 -39.344 -34.924  0.00  0.00    -0.061 A 
ATOM     14  C   UNL A   1      31.470 -38.054 -34.399  0.00  0.00    -0.048 A 
ATOM     15  C   UNL A   1      32.455 -37.714 -33.457  0.00  0.00    +0.058 A 
BRANCH  10  16
ATOM     16  N   UNL A   1      34.297 -38.404 -31.967  0.00  0.00    -0.314 N 
ATOM     17  H   UNL A   1      34.687 -37.500 -31.945  0.00  0.00    +0.000 HD
BRANCH  16  23
ATOM     18  C   UNL A   1      33.341 -40.873 -27.688  0.00  0.00    -0.039 C 
ATOM     19  C   UNL A   1      34.244 -40.465 -28.822  0.00  0.00    -0.046 A 
ATOM     20  C   UNL A   1      35.560 -40.953 -28.830  0.00  0.00    -0.058 A 
ATOM     21  C   UNL A   1      36.444 -40.593 -29.838  0.00  0.00    -0.060 A 
ATOM     22  C   UNL A   1      36.018 -39.761 -30.870  0.00  0.00    -0.040 A 
ATOM     23  C   UNL A   1      34.696 -39.292 -30.925  0.00  0.00    +0.035 A 
ATOM     24  C   UNL A   1      33.817 -39.588 -29.850  0.00  0.00    -0.026 A 
ATOM     25  C   UNL A   1      32.421 -39.010 -29.829  0.00  0.00    -0.038 C 
ENDBRANCH  16  23
ENDBRANCH  10  16
ENDBRANCH   6  15
ENDBRANCH   5   8
ENDBRANCH   1   5
BRANCH   3  26
ATOM     26  C   UNL A   1      33.752 -32.112 -30.761  0.00  0.00    +0.013 C 
BRANCH  26  27
ATOM     27  C   UNL A   1      34.912 -32.773 -30.021  0.00  0.00    -0.022 C 
BRANCH  27  28
ATOM     28  C   UNL A   1      35.970 -33.248 -31.015  0.00  0.00    +0.011 C 
BRANCH  28  29
ATOM     29  N   UNL A   1      35.679 -34.631 -31.422  0.00  0.00    -0.343 N 
ATOM     30  H   UNL A   1      35.018 -34.878 -32.108  0.00  0.00    +0.000 HD
BRANCH  29  31
ATOM     31  C   UNL A   1      36.474 -35.571 -30.699  0.00  0.00    +0.041 A 
ATOM     32  C   UNL A   1      37.799 -35.854 -31.093  0.00  0.00    -0.005 A 
ATOM     33  C   UNL A   1      38.561 -36.668 -30.250  0.00  0.00    +0.047 A 
ATOM     34  N   UNL A   1      38.081 -37.213 -29.107  0.00  0.00    -0.251 NA
ATOM     35  C   UNL A   1      36.818 -36.959 -28.743  0.00  0.00    +0.074 A 
ATOM     36  C   UNL A   1      36.350 -37.530 -27.569  0.00  0.00    -0.017 A 
ATOM     37  C   UNL A   1      35.047 -37.312 -27.127  0.00  0.00    +0.043 A 
ATOM     38 CL   UNL A   1      34.505 -38.038 -25.664  0.00  0.00    -0.083 Cl
ATOM     39  C   UNL A   1      34.182 -36.514 -27.862  0.00  0.00    -0.043 A 
ATOM     40  C   UNL A   1      34.636 -35.934 -29.044  0.00  0.00    -0.049 A 
ATOM     41  C   UNL A   1      35.961 -36.137 -29.500  0.00  0.00    +0.022 A 
ATOM     42  C   UNL A   1      39.985 -37.040 -30.576  0.00  0.00    -0.010 C 
ATOM     43  C   UNL A   1      40.643 -36.088 -31.568  0.00  0.00    -0.047 C 
ATOM     44  C   UNL A   1      39.729 -35.889 -32.767  0.00  0.00    -0.049 C 
ATOM     45  C   UNL A   1      38.410 -35.248 -32.335  0.00  0.00    -0.024 C 
ENDBRANCH  29  31
ENDBRANCH  28  29
ENDBRANCH  27  28
ENDBRANCH  26  27
ENDBRANCH   3  26
TORSDOF 10
ENDMDL
MODEL 2
REMARK VINA RESULT:    -8.458      1.512      3.254
REMARK INTER + INTRA:         -18.059
REMARK INTER:                 -13.197
REMARK INTRA:                  -4.862
REMARK UNBOUND:                -4.657
REMARK  Name = cpd45.pdb
REMARK  12 active torsions:
REMARK  status: ('A' for Active; 'I' for Inactive)
REMARK    1  A    between atoms: C_1  and  C_2
REMARK    2  A    between atoms: C_6  and  N_7
REMARK    3  A    between atoms: N_7  and  C_8
REMARK    4  A    between atoms: C_13  and  C_14
REMARK    5  A    between atoms: N_16  and  C_17
REMARK    6  A    between atoms: C_17  and  C_18
REMARK    7  A    between atoms: N_20  and  C_21
REMARK    8  A    between atoms: C_21  and  C_22
REMARK    9  A    between atoms: C_22  and  C_23
REMARK   10  A    between atoms: C_23  and  N_24
REMARK   11  A    between atoms: N_24  and  C_25
REMARK   12  A    between atoms: C_40  and  C_41
REMARK                            x       y       z     vdW  Elec       q    Type
REMARK                         _______ _______ _______ _____ _____    ______ ____
ROOT
ATOM      1  C   UNL A   1      32.048 -33.769 -31.450  0.00  0.00    +0.230 C 
ATOM      2  O   UNL A   1      31.504 -33.487 -30.383  0.00  0.00    -0.274 OA
ATOM      3  N   UNL A   1      33.285 -33.278 -31.805  0.00  0.00    -0.314 N 
ATOM      4  H   UNL A   1      33.697 -33.585 -32.645  0.00  0.00    +0.000 HD
ENDROOT
BRANCH   1   5
ATOM      5  C   UNL A   1      31.299 -34.530 -32.556  0.00  0.00    +0.088 C 
BRANCH   5   8
ATOM      6  C   UNL A   1      32.669 -36.512 -33.163  0.00  0.00    +0.246 C 
ATOM      7  O   UNL A   1      33.701 -35.861 -33.303  0.00  0.00    -0.270 OA
ATOM      8  N   UNL A   1      31.519 -35.966 -32.644  0.00  0.00    -0.303 N 
ATOM      9  H   UNL A   1      30.814 -36.572 -32.318  0.00  0.00    +0.000 HD
BRANCH   6  15
ATOM     10  C   UNL A   1      33.420 -38.933 -32.838  0.00  0.00    +0.044 A 
ATOM     11  C   UNL A   1      33.272 -40.281 -33.208  0.00  0.00    -0.040 A 
ATOM     12  C   UNL A   1      32.417 -40.654 -34.247  0.00  0.00    -0.060 A 
ATOM     13  C   UNL A   1      31.666 -39.691 -34.913  0.00  0.00    -0.061 A 
ATOM     14  C   UNL A   1      31.767 -38.353 -34.537  0.00  0.00    -0.048 A 
ATOM     15  C   UNL A   1      32.636 -37.965 -33.503  0.00  0.00    +0.058 A 
BRANCH  10  16
ATOM     16  N   UNL A   1      34.183 -38.587 -31.684  0.00  0.00    -0.314 N 
ATOM     17  H   UNL A   1      34.424 -37.637 -31.587  0.00  0.00    +0.000 HD
BRANCH  16  23
ATOM     18  C   UNL A   1      33.422 -41.080 -27.381  0.00  0.00    -0.039 C 
ATOM     19  C   UNL A   1      34.280 -40.648 -28.541  0.00  0.00    -0.046 A 
ATOM     20  C   UNL A   1      35.607 -41.101 -28.589  0.00  0.00    -0.058 A 
ATOM     21  C   UNL A   1      36.451 -40.718 -29.623  0.00  0.00    -0.060 A 
ATOM     22  C   UNL A   1      35.972 -39.897 -30.640  0.00  0.00    -0.040 A 
ATOM     23  C   UNL A   1      34.636 -39.464 -30.656  0.00  0.00    +0.035 A 
ATOM     24  C   UNL A   1      33.798 -39.783 -29.555  0.00  0.00    -0.026 A 
ATOM     25  C   UNL A   1      32.389 -39.242 -29.492  0.00  0.00    -0.038 C 
ENDBRANCH  16  23
ENDBRANCH  10  16
ENDBRANCH   6  15
ENDBRANCH   5   8
ENDBRANCH   1   5
BRANCH   3  26
ATOM     26  C   UNL A   1      33.998 -32.325 -30.985  0.00  0.00    +0.013 C 
BRANCH  26  27
ATOM     27  C   UNL A   1      35.031 -32.989 -30.078  0.00  0.00    -0.022 C 
BRANCH  27  28
ATOM     28  C   UNL A   1      35.976 -33.859 -30.904  0.00  0.00    +0.011 C 
BRANCH  28  29
ATOM     29  N   UNL A   1      35.504 -35.251 -30.891  0.00  0.00    -0.343 N 
ATOM     30  H   UNL A   1      34.862 -35.623 -31.538  0.00  0.00    +0.000 HD
BRANCH  29  31
ATOM     31  C   UNL A   1      36.092 -35.997 -29.825  0.00  0.00    +0.041 A 
ATOM     32  C   UNL A   1      35.335 -36.354 -28.688  0.00  0.00    -0.005 A 
ATOM     33  C   UNL A   1      35.934 -37.210 -27.759  0.00  0.00    +0.047 A 
ATOM     34  N   UNL A   1      37.198 -37.678 -27.885  0.00  0.00    -0.251 NA
ATOM     35  C   UNL A   1      37.922 -37.325 -28.955  0.00  0.00    +0.074 A 
ATOM     36  C   UNL A   1      39.215 -37.817 -29.060  0.00  0.00    -0.017 A 
ATOM     37  C   UNL A   1      40.027 -37.492 -30.144  0.00  0.00    +0.043 A 
ATOM     38 CL   UNL A   1      41.625 -38.125 -30.237  0.00  0.00    -0.083 Cl
ATOM     39  C   UNL A   1      39.557 -36.658 -31.147  0.00  0.00    -0.043 A 
ATOM     40  C   UNL A   1      38.261 -36.154 -31.056  0.00  0.00    -0.049 A 
ATOM     41  C   UNL A   1      37.419 -36.485 -29.967  0.00  0.00    +0.022 A 
ATOM     42  C   UNL A   1      35.220 -37.650 -26.506  0.00  0.00    -0.010 C 
ATOM     43  C   UNL A   1      33.705 -37.512 -26.598  0.00  0.00    -0.047 C 
ATOM     44  C   UNL A   1      33.349 -36.121 -27.098  0.00  0.00    -0.049 C 
ATOM     45  C   UNL A   1      33.907 -35.898 -28.504  0.00  0.00    -0.024 C 
ENDBRANCH  29  31
ENDBRANCH  28  29
ENDBRANCH  27  28
ENDBRANCH  26  27
ENDBRANCH   3  26
TORSDOF 10
ENDMDL
MODEL 3
REMARK VINA RESULT:    -7.242     17.670     21.225
REMARK INTER + INTRA:         -16.132
REMARK INTER:                 -13.005
REMARK INTRA:                  -3.127
REMARK UNBOUND:                -4.657
REMARK  Name = cpd45.pdb
REMARK  12 active torsions:
REMARK  status: ('A' for Active; 'I' for Inactive)
REMARK    1  A    between atoms: C_1  and  C_2
REMARK    2  A    between atoms: C_6  and  N_7
REMARK    3  A    between atoms: N_7  and  C_8
REMARK    4  A    between atoms: C_13  and  C_14
REMARK    5  A    between atoms: N_16  and  C_17
REMARK    6  A    between atoms: C_17  and  C_18
REMARK    7  A    between atoms: N_20  and  C_21
REMARK    8  A    between atoms: C_21  and  C_22
REMARK    9  A    between atoms: C_22  and  C_23
REMARK   10  A    between atoms: C_23  and  N_24
REMARK   11  A    between atoms: N_24  and  C_25
REMARK   12  A    between atoms: C_40  and  C_41
REMARK                            x       y       z     vdW  Elec       q    Type
REMARK                         _______ _______ _______ _____ _____    ______ ____
ROOT
ATOM      1  C   UNL A   1      44.720 -17.061 -34.295  0.00  0.00    +0.230 C 
ATOM      2  O   UNL A   1      45.184 -15.926 -34.407  0.00  0.00    -0.274 OA
ATOM      3  N   UNL A   1      45.447 -18.193 -34.590  0.00  0.00    -0.314 N 
ATOM      4  H   UNL A   1      45.043 -19.075 -34.424  0.00  0.00    +0.000 HD
ENDROOT
BRANCH   1   5
ATOM      5  C   UNL A   1      43.228 -17.292 -34.010  0.00  0.00    +0.088 C 
BRANCH   5   8
ATOM      6  C   UNL A   1      41.385 -18.958 -34.063  0.00  0.00    +0.246 C 
ATOM      7  O   UNL A   1      40.503 -18.105 -34.132  0.00  0.00    -0.270 OA
ATOM      8  N   UNL A   1      42.720 -18.647 -34.170  0.00  0.00    -0.303 N 
ATOM      9  H   UNL A   1      43.359 -19.370 -34.363  0.00  0.00    +0.000 HD
BRANCH   6  15
ATOM     10  C   UNL A   1      40.502 -21.179 -34.966  0.00  0.00    +0.044 A 
ATOM     11  C   UNL A   1      40.255 -22.543 -34.728  0.00  0.00    -0.040 A 
ATOM     12  C   UNL A   1      40.474 -23.107 -33.470  0.00  0.00    -0.060 A 
ATOM     13  C   UNL A   1      40.978 -22.328 -32.434  0.00  0.00    -0.061 A 
ATOM     14  C   UNL A   1      41.267 -20.982 -32.657  0.00  0.00    -0.048 A 
ATOM     15  C   UNL A   1      41.035 -20.401 -33.915  0.00  0.00    +0.058 A 
BRANCH  10  16
ATOM     16  N   UNL A   1      40.411 -20.655 -36.290  0.00  0.00    -0.314 N 
ATOM     17  H   UNL A   1      39.645 -20.065 -36.475  0.00  0.00    +0.000 HD
BRANCH  16  23
ATOM     18  C   UNL A   1      41.300 -22.142 -41.013  0.00  0.00    -0.039 C 
ATOM     19  C   UNL A   1      41.745 -21.651 -39.661  0.00  0.00    -0.046 A 
ATOM     20  C   UNL A   1      43.118 -21.455 -39.446  0.00  0.00    -0.058 A 
ATOM     21  C   UNL A   1      43.588 -21.025 -38.212  0.00  0.00    -0.060 A 
ATOM     22  C   UNL A   1      42.691 -20.757 -37.183  0.00  0.00    -0.040 A 
ATOM     23  C   UNL A   1      41.306 -20.891 -37.373  0.00  0.00    +0.035 A 
ATOM     24  C   UNL A   1      40.830 -21.414 -38.604  0.00  0.00    -0.026 A 
ATOM     25  C   UNL A   1      39.355 -21.670 -38.801  0.00  0.00    -0.038 C 
ENDBRANCH  16  23
ENDBRANCH  10  16
ENDBRANCH   6  15
ENDBRANCH   5   8
ENDBRANCH   1   5
BRANCH   3  26
ATOM     26  C   UNL A   1      46.784 -18.127 -35.135  0.00  0.00    +0.013 C 
BRANCH  26  27
ATOM     27  C   UNL A   1      47.314 -19.495 -35.554  0.00  0.00    -0.022 C 
BRANCH  27  28
ATOM     28  C   UNL A   1      46.654 -19.942 -36.857  0.00  0.00    +0.011 C 
BRANCH  28  29
ATOM     29  N   UNL A   1      47.442 -19.460 -38.001  0.00  0.00    -0.343 N 
ATOM     30  H   UNL A   1      48.325 -19.032 -37.922  0.00  0.00    +0.000 HD
BRANCH  29  31
ATOM     31  C   UNL A   1      46.770 -19.691 -39.238  0.00  0.00    +0.041 A 
ATOM     32  C   UNL A   1      45.861 -18.744 -39.756  0.00  0.00    -0.005 A 
ATOM     33  C   UNL A   1      45.359 -18.970 -41.041  0.00  0.00    +0.047 A 
ATOM     34  N   UNL A   1      45.677 -20.056 -41.786  0.00  0.00    -0.251 NA
ATOM     35  C   UNL A   1      46.526 -20.963 -41.286  0.00  0.00    +0.074 A 
ATOM     36  C   UNL A   1      46.835 -22.067 -42.068  0.00  0.00    -0.017 A 
ATOM     37  C   UNL A   1      47.709 -23.052 -41.615  0.00  0.00    +0.043 A 
ATOM     38 CL   UNL A   1      48.068 -24.405 -42.616  0.00  0.00    -0.083 Cl
ATOM     39  C   UNL A   1      48.290 -22.951 -40.360  0.00  0.00    -0.043 A 
ATOM     40  C   UNL A   1      47.989 -21.849 -39.562  0.00  0.00    -0.049 A 
ATOM     41  C   UNL A   1      47.112 -20.833 -40.013  0.00  0.00    +0.022 A 
ATOM     42  C   UNL A   1      44.377 -18.027 -41.689  0.00  0.00    -0.010 C 
ATOM     43  C   UNL A   1      44.387 -16.633 -41.074  0.00  0.00    -0.047 C 
ATOM     44  C   UNL A   1      44.285 -16.743 -39.561  0.00  0.00    -0.049 C 
ATOM     45  C   UNL A   1      45.492 -17.492 -38.996  0.00  0.00    -0.024 C 
ENDBRANCH  29  31
ENDBRANCH  28  29
ENDBRANCH  27  28
ENDBRANCH  26  27
ENDBRANCH   3  26
TORSDOF 10
ENDMDL
MODEL 4
REMARK VINA RESULT:    -7.162     17.784     21.261
REMARK INTER + INTRA:         -16.007
REMARK INTER:                 -13.031
REMARK INTRA:                  -2.976
REMARK UNBOUND:                -4.657
REMARK  Name = cpd45.pdb
REMARK  12 active torsions:
REMARK  status: ('A' for Active; 'I' for Inactive)
REMARK    1  A    between atoms: C_1  and  C_2
REMARK    2  A    between atoms: C_6  and  N_7
REMARK    3  A    between atoms: N_7  and  C_8
REMARK    4  A    between atoms: C_13  and  C_14
REMARK    5  A    between atoms: N_16  and  C_17
REMARK    6  A    between atoms: C_17  and  C_18
REMARK    7  A    between atoms: N_20  and  C_21
REMARK    8  A    between atoms: C_21  and  C_22
REMARK    9  A    between atoms: C_22  and  C_23
REMARK   10  A    between atoms: C_23  and  N_24
REMARK   11  A    between atoms: N_24  and  C_25
REMARK   12  A    between atoms: C_40  and  C_41
REMARK                            x       y       z     vdW  Elec       q    Type
REMARK                         _______ _______ _______ _____ _____    ______ ____
ROOT
ATOM      1  C   UNL A   1      44.682 -17.238 -34.368  0.00  0.00    +0.230 C 
ATOM      2  O   UNL A   1      45.129 -16.096 -34.471  0.00  0.00    -0.274 OA
ATOM      3  N   UNL A   1      45.392 -18.351 -34.759  0.00  0.00    -0.314 N 
ATOM      4  H   UNL A   1      45.007 -19.243 -34.598  0.00  0.00    +0.000 HD
ENDROOT
BRANCH   1   5
ATOM      5  C   UNL A   1      43.216 -17.493 -33.983  0.00  0.00    +0.088 C 
BRANCH   5   8
ATOM      6  C   UNL A   1      41.371 -19.158 -34.020  0.00  0.00    +0.246 C 
ATOM      7  O   UNL A   1      40.488 -18.304 -34.007  0.00  0.00    -0.270 OA
ATOM      8  N   UNL A   1      42.700 -18.841 -34.178  0.00  0.00    -0.303 N 
ATOM      9  H   UNL A   1      43.328 -19.554 -34.435  0.00  0.00    +0.000 HD
BRANCH   6  15
ATOM     10  C   UNL A   1      40.494 -21.351 -34.995  0.00  0.00    +0.044 A 
ATOM     11  C   UNL A   1      40.254 -22.723 -34.802  0.00  0.00    -0.040 A 
ATOM     12  C   UNL A   1      40.480 -23.328 -33.564  0.00  0.00    -0.060 A 
ATOM     13  C   UNL A   1      40.984 -22.583 -32.504  0.00  0.00    -0.061 A 
ATOM     14  C   UNL A   1      41.267 -21.229 -32.683  0.00  0.00    -0.048 A 
ATOM     15  C   UNL A   1      41.028 -20.607 -33.920  0.00  0.00    +0.058 A 
BRANCH  10  16
ATOM     16  N   UNL A   1      40.397 -20.783 -36.299  0.00  0.00    -0.314 N 
ATOM     17  H   UNL A   1      39.612 -20.214 -36.471  0.00  0.00    +0.000 HD
BRANCH  16  23
ATOM     18  C   UNL A   1      41.381 -22.047 -41.069  0.00  0.00    -0.039 C 
ATOM     19  C   UNL A   1      41.796 -21.599 -39.692  0.00  0.00    -0.046 A 
ATOM     20  C   UNL A   1      43.160 -21.371 -39.453  0.00  0.00    -0.058 A 
ATOM     21  C   UNL A   1      43.605 -20.977 -38.198  0.00  0.00    -0.060 A 
ATOM     22  C   UNL A   1      42.688 -20.779 -37.169  0.00  0.00    -0.040 A 
ATOM     23  C   UNL A   1      41.310 -20.947 -37.381  0.00  0.00    +0.035 A 
ATOM     24  C   UNL A   1      40.864 -21.433 -38.638  0.00  0.00    -0.026 A 
ATOM     25  C   UNL A   1      39.399 -21.726 -38.862  0.00  0.00    -0.038 C 
ENDBRANCH  16  23
ENDBRANCH  10  16
ENDBRANCH   6  15
ENDBRANCH   5   8
ENDBRANCH   1   5
BRANCH   3  26
ATOM     26  C   UNL A   1      46.685 -18.253 -35.399  0.00  0.00    +0.013 C 
BRANCH  26  27
ATOM     27  C   UNL A   1      47.212 -19.606 -35.867  0.00  0.00    -0.022 C 
BRANCH  27  28
ATOM     28  C   UNL A   1      46.598 -19.975 -37.216  0.00  0.00    +0.011 C 
BRANCH  28  29
ATOM     29  N   UNL A   1      47.427 -19.429 -38.301  0.00  0.00    -0.343 N 
ATOM     30  H   UNL A   1      48.303 -18.999 -38.165  0.00  0.00    +0.000 HD
BRANCH  29  31
ATOM     31  C   UNL A   1      46.806 -19.599 -39.575  0.00  0.00    +0.041 A 
ATOM     32  C   UNL A   1      46.954 -20.801 -40.298  0.00  0.00    -0.005 A 
ATOM     33  C   UNL A   1      46.195 -20.950 -41.463  0.00  0.00    +0.047 A 
ATOM     34  N   UNL A   1      45.363 -19.992 -41.936  0.00  0.00    -0.251 NA
ATOM     35  C   UNL A   1      45.237 -18.844 -41.259  0.00  0.00    +0.074 A 
ATOM     36  C   UNL A   1      44.379 -17.878 -41.766  0.00  0.00    -0.017 A 
ATOM     37  C   UNL A   1      44.198 -16.659 -41.117  0.00  0.00    +0.043 A 
ATOM     38 CL   UNL A   1      43.123 -15.488 -41.778  0.00  0.00    -0.083 Cl
ATOM     39  C   UNL A   1      44.881 -16.381 -39.943  0.00  0.00    -0.043 A 
ATOM     40  C   UNL A   1      45.748 -17.340 -39.421  0.00  0.00    -0.049 A 
ATOM     41  C   UNL A   1      45.934 -18.588 -40.063  0.00  0.00    +0.022 A 
ATOM     42  C   UNL A   1      46.280 -22.190 -42.315  0.00  0.00    -0.010 C 
ATOM     43  C   UNL A   1      46.828 -23.398 -41.566  0.00  0.00    -0.047 C 
ATOM     44  C   UNL A   1      48.110 -23.013 -40.846  0.00  0.00    -0.049 C 
ATOM     45  C   UNL A   1      47.835 -21.926 -39.807  0.00  0.00    -0.024 C 
ENDBRANCH  29  31
ENDBRANCH  28  29
ENDBRANCH  27  28
ENDBRANCH  26  27
ENDBRANCH   3  26
TORSDOF 10
ENDMDL
MODEL 5
REMARK VINA RESULT:    -7.011     17.721     21.045
REMARK INTER + INTRA:         -15.767
REMARK INTER:                 -12.778
REMARK INTRA:                  -2.989
REMARK UNBOUND:                -4.657
REMARK  Name = cpd45.pdb
REMARK  12 active torsions:
REMARK  status: ('A' for Active; 'I' for Inactive)
REMARK    1  A    between atoms: C_1  and  C_2
REMARK    2  A    between atoms: C_6  and  N_7
REMARK    3  A    between atoms: N_7  and  C_8
REMARK    4  A    between atoms: C_13  and  C_14
REMARK    5  A    between atoms: N_16  and  C_17
REMARK    6  A    between atoms: C_17  and  C_18
REMARK    7  A    between atoms: N_20  and  C_21
REMARK    8  A    between atoms: C_21  and  C_22
REMARK    9  A    between atoms: C_22  and  C_23
REMARK   10  A    between atoms: C_23  and  N_24
REMARK   11  A    between atoms: N_24  and  C_25
REMARK   12  A    between atoms: C_40  and  C_41
REMARK                            x       y       z     vdW  Elec       q    Type
REMARK                         _______ _______ _______ _____ _____    ______ ____
ROOT
ATOM      1  C   UNL A   1      44.191 -17.716 -35.012  0.00  0.00    +0.230 C 
ATOM      2  O   UNL A   1      44.726 -16.659 -35.344  0.00  0.00    -0.274 OA
ATOM      3  N   UNL A   1      44.910 -18.863 -34.756  0.00  0.00    -0.314 N 
ATOM      4  H   UNL A   1      44.433 -19.663 -34.438  0.00  0.00    +0.000 HD
ENDROOT
BRANCH   1   5
ATOM      5  C   UNL A   1      42.665 -17.891 -35.057  0.00  0.00    +0.088 C 
BRANCH   5   8
ATOM      6  C   UNL A   1      42.143 -20.001 -36.261  0.00  0.00    +0.246 C 
ATOM      7  O   UNL A   1      42.353 -20.711 -35.281  0.00  0.00    -0.270 OA
ATOM      8  N   UNL A   1      42.110 -18.629 -36.183  0.00  0.00    -0.303 N 
ATOM      9  H   UNL A   1      41.695 -18.124 -36.919  0.00  0.00    +0.000 HD
BRANCH   6  15
ATOM     10  C   UNL A   1      40.558 -21.006 -37.995  0.00  0.00    +0.044 A 
ATOM     11  C   UNL A   1      40.392 -21.525 -39.292  0.00  0.00    -0.040 A 
ATOM     12  C   UNL A   1      41.484 -21.703 -40.143  0.00  0.00    -0.060 A 
ATOM     13  C   UNL A   1      42.759 -21.332 -39.729  0.00  0.00    -0.061 A 
ATOM     14  C   UNL A   1      42.942 -20.779 -38.463  0.00  0.00    -0.048 A 
ATOM     15  C   UNL A   1      41.852 -20.611 -37.592  0.00  0.00    +0.058 A 
BRANCH  10  16
ATOM     16  N   UNL A   1      39.417 -20.697 -37.196  0.00  0.00    -0.314 N 
ATOM     17  H   UNL A   1      38.927 -19.876 -37.432  0.00  0.00    +0.000 HD
BRANCH  16  23
ATOM     18  C   UNL A   1      37.150 -20.924 -32.711  0.00  0.00    -0.039 C 
ATOM     19  C   UNL A   1      37.839 -21.553 -33.893  0.00  0.00    -0.046 A 
ATOM     20  C   UNL A   1      38.026 -22.944 -33.888  0.00  0.00    -0.058 A 
ATOM     21  C   UNL A   1      38.674 -23.577 -34.941  0.00  0.00    -0.060 A 
ATOM     22  C   UNL A   1      39.122 -22.831 -36.028  0.00  0.00    -0.040 A 
ATOM     23  C   UNL A   1      38.909 -21.444 -36.094  0.00  0.00    +0.035 A 
ATOM     24  C   UNL A   1      38.325 -20.786 -34.981  0.00  0.00    -0.026 A 
ATOM     25  C   UNL A   1      38.180 -19.282 -34.978  0.00  0.00    -0.038 C 
ENDBRANCH  16  23
ENDBRANCH  10  16
ENDBRANCH   6  15
ENDBRANCH   5   8
ENDBRANCH   1   5
BRANCH   3  26
ATOM     26  C   UNL A   1      46.342 -18.930 -34.940  0.00  0.00    +0.013 C 
BRANCH  26  27
ATOM     27  C   UNL A   1      46.778 -20.185 -35.691  0.00  0.00    -0.022 C 
BRANCH  27  28
ATOM     28  C   UNL A   1      46.134 -20.223 -37.075  0.00  0.00    +0.011 C 
BRANCH  28  29
ATOM     29  N   UNL A   1      47.180 -20.192 -38.108  0.00  0.00    -0.343 N 
ATOM     30  H   UNL A   1      48.103 -20.505 -37.970  0.00  0.00    +0.000 HD
BRANCH  29  31
ATOM     31  C   UNL A   1      46.692 -19.651 -39.336  0.00  0.00    +0.041 A 
ATOM     32  C   UNL A   1      46.377 -20.492 -40.424  0.00  0.00    -0.005 A 
ATOM     33  C   UNL A   1      45.764 -19.906 -41.535  0.00  0.00    +0.047 A 
ATOM     34  N   UNL A   1      45.492 -18.583 -41.624  0.00  0.00    -0.251 NA
ATOM     35  C   UNL A   1      45.807 -17.782 -40.598  0.00  0.00    +0.074 A 
ATOM     36  C   UNL A   1      45.519 -16.429 -40.713  0.00  0.00    -0.017 A 
ATOM     37  C   UNL A   1      45.820 -15.535 -39.688  0.00  0.00    +0.043 A 
ATOM     38 CL   UNL A   1      45.445 -13.865 -39.871  0.00  0.00    -0.083 Cl
ATOM     39  C   UNL A   1      46.421 -15.982 -38.522  0.00  0.00    -0.043 A 
ATOM     40  C   UNL A   1      46.718 -17.337 -38.390  0.00  0.00    -0.049 A 
ATOM     41  C   UNL A   1      46.409 -18.261 -39.419  0.00  0.00    +0.022 A 
ATOM     42  C   UNL A   1      45.391 -20.710 -42.755  0.00  0.00    -0.010 C 
ATOM     43  C   UNL A   1      45.269 -22.203 -42.477  0.00  0.00    -0.047 C 
ATOM     44  C   UNL A   1      46.503 -22.685 -41.730  0.00  0.00    -0.049 C 
ATOM     45  C   UNL A   1      46.618 -21.983 -40.376  0.00  0.00    -0.024 C 
ENDBRANCH  29  31
ENDBRANCH  28  29
ENDBRANCH  27  28
ENDBRANCH  26  27
ENDBRANCH   3  26
TORSDOF 10
ENDMDL
MODEL 6
REMARK VINA RESULT:    -6.978     18.393     22.367
REMARK INTER + INTRA:         -15.714
REMARK INTER:                 -12.760
REMARK INTRA:                  -2.954
REMARK UNBOUND:                -4.657
REMARK  Name = cpd45.pdb
REMARK  12 active torsions:
REMARK  status: ('A' for Active; 'I' for Inactive)
REMARK    1  A    between atoms: C_1  and  C_2
REMARK    2  A    between atoms: C_6  and  N_7
REMARK    3  A    between atoms: N_7  and  C_8
REMARK    4  A    between atoms: C_13  and  C_14
REMARK    5  A    between atoms: N_16  and  C_17
REMARK    6  A    between atoms: C_17  and  C_18
REMARK    7  A    between atoms: N_20  and  C_21
REMARK    8  A    between atoms: C_21  and  C_22
REMARK    9  A    between atoms: C_22  and  C_23
REMARK   10  A    between atoms: C_23  and  N_24
REMARK   11  A    between atoms: N_24  and  C_25
REMARK   12  A    between atoms: C_40  and  C_41
REMARK                            x       y       z     vdW  Elec       q    Type
REMARK                         _______ _______ _______ _____ _____    ______ ____
ROOT
ATOM      1  C   UNL A   1      46.394 -19.356 -34.727  0.00  0.00    +0.230 C 
ATOM      2  O   UNL A   1      46.139 -20.502 -34.357  0.00  0.00    -0.274 OA
ATOM      3  N   UNL A   1      45.486 -18.325 -34.630  0.00  0.00    -0.314 N 
ATOM      4  H   UNL A   1      45.767 -17.418 -34.887  0.00  0.00    +0.000 HD
ENDROOT
BRANCH   1   5
ATOM      5  C   UNL A   1      47.676 -19.035 -35.512  0.00  0.00    +0.088 C 
BRANCH   5   8
ATOM      6  C   UNL A   1      46.776 -19.168 -37.824  0.00  0.00    +0.246 C 
ATOM      7  O   UNL A   1      45.970 -18.258 -37.653  0.00  0.00    -0.270 OA
ATOM      8  N   UNL A   1      47.740 -19.482 -36.896  0.00  0.00    -0.303 N 
ATOM      9  H   UNL A   1      48.506 -20.032 -37.179  0.00  0.00    +0.000 HD
BRANCH   6  15
ATOM     10  C   UNL A   1      46.848 -19.349 -40.372  0.00  0.00    +0.044 A 
ATOM     11  C   UNL A   1      46.895 -20.185 -41.502  0.00  0.00    -0.040 A 
ATOM     12  C   UNL A   1      46.816 -21.573 -41.375  0.00  0.00    -0.060 A 
ATOM     13  C   UNL A   1      46.726 -22.155 -40.115  0.00  0.00    -0.061 A 
ATOM     14  C   UNL A   1      46.717 -21.348 -38.979  0.00  0.00    -0.048 A 
ATOM     15  C   UNL A   1      46.780 -19.949 -39.096  0.00  0.00    +0.058 A 
BRANCH  10  16
ATOM     16  N   UNL A   1      47.075 -17.947 -40.509  0.00  0.00    -0.314 N 
ATOM     17  H   UNL A   1      47.993 -17.634 -40.338  0.00  0.00    +0.000 HD
BRANCH  16  23
ATOM     18  C   UNL A   1      45.690 -13.126 -40.893  0.00  0.00    -0.039 C 
ATOM     19  C   UNL A   1      45.432 -14.604 -41.017  0.00  0.00    -0.046 A 
ATOM     20  C   UNL A   1      44.170 -15.020 -41.467  0.00  0.00    -0.058 A 
ATOM     21  C   UNL A   1      43.867 -16.371 -41.581  0.00  0.00    -0.060 A 
ATOM     22  C   UNL A   1      44.831 -17.326 -41.271  0.00  0.00    -0.040 A 
ATOM     23  C   UNL A   1      46.121 -16.950 -40.864  0.00  0.00    +0.035 A 
ATOM     24  C   UNL A   1      46.404 -15.573 -40.665  0.00  0.00    -0.026 A 
ATOM     25  C   UNL A   1      47.749 -15.145 -40.127  0.00  0.00    -0.038 C 
ENDBRANCH  16  23
ENDBRANCH  10  16
ENDBRANCH   6  15
ENDBRANCH   5   8
ENDBRANCH   1   5
BRANCH   3  26
ATOM     26  C   UNL A   1      44.134 -18.533 -34.163  0.00  0.00    +0.013 C 
BRANCH  26  27
ATOM     27  C   UNL A   1      43.190 -18.971 -35.279  0.00  0.00    -0.022 C 
BRANCH  27  28
ATOM     28  C   UNL A   1      41.760 -18.537 -34.962  0.00  0.00    +0.011 C 
BRANCH  28  29
ATOM     29  N   UNL A   1      40.912 -18.727 -36.149  0.00  0.00    -0.343 N 
ATOM     30  H   UNL A   1      40.417 -18.002 -36.596  0.00  0.00    +0.000 HD
BRANCH  29  31
ATOM     31  C   UNL A   1      40.895 -20.090 -36.571  0.00  0.00    +0.041 A 
ATOM     32  C   UNL A   1      40.213 -21.072 -35.822  0.00  0.00    -0.005 A 
ATOM     33  C   UNL A   1      40.114 -22.351 -36.377  0.00  0.00    +0.047 A 
ATOM     34  N   UNL A   1      40.662 -22.692 -37.568  0.00  0.00    -0.251 NA
ATOM     35  C   UNL A   1      41.324 -21.764 -38.270  0.00  0.00    +0.074 A 
ATOM     36  C   UNL A   1      41.878 -22.137 -39.486  0.00  0.00    -0.017 A 
ATOM     37  C   UNL A   1      42.582 -21.227 -40.271  0.00  0.00    +0.043 A 
ATOM     38 CL   UNL A   1      43.251 -21.731 -41.775  0.00  0.00    -0.083 Cl
ATOM     39  C   UNL A   1      42.749 -19.917 -39.847  0.00  0.00    -0.043 A 
ATOM     40  C   UNL A   1      42.201 -19.526 -38.627  0.00  0.00    -0.049 A 
ATOM     41  C   UNL A   1      41.473 -20.437 -37.823  0.00  0.00    +0.022 A 
ATOM     42  C   UNL A   1      39.414 -23.478 -35.660  0.00  0.00    -0.010 C 
ATOM     43  C   UNL A   1      38.437 -22.996 -34.595  0.00  0.00    -0.047 C 
ATOM     44  C   UNL A   1      39.122 -21.978 -33.697  0.00  0.00    -0.049 C 
ATOM     45  C   UNL A   1      39.546 -20.751 -34.505  0.00  0.00    -0.024 C 
ENDBRANCH  29  31
ENDBRANCH  28  29
ENDBRANCH  27  28
ENDBRANCH  26  27
ENDBRANCH   3  26
TORSDOF 10
ENDMDL
MODEL 7
REMARK VINA RESULT:    -6.972     19.378     22.345
REMARK INTER + INTRA:         -15.705
REMARK INTER:                 -10.618
REMARK INTRA:                  -5.087
REMARK UNBOUND:                -4.657
REMARK  Name = cpd45.pdb
REMARK  12 active torsions:
REMARK  status: ('A' for Active; 'I' for Inactive)
REMARK    1  A    between atoms: C_1  and  C_2
REMARK    2  A    between atoms: C_6  and  N_7
REMARK    3  A    between atoms: N_7  and  C_8
REMARK    4  A    between atoms: C_13  and  C_14
REMARK    5  A    between atoms: N_16  and  C_17
REMARK    6  A    between atoms: C_17  and  C_18
REMARK    7  A    between atoms: N_20  and  C_21
REMARK    8  A    between atoms: C_21  and  C_22
REMARK    9  A    between atoms: C_22  and  C_23
REMARK   10  A    between atoms: C_23  and  N_24
REMARK   11  A    between atoms: N_24  and  C_25
REMARK   12  A    between atoms: C_40  and  C_41
REMARK                            x       y       z     vdW  Elec       q    Type
REMARK                         _______ _______ _______ _____ _____    ______ ____
ROOT
ATOM      1  C   UNL A   1      40.715 -14.800 -39.117  0.00  0.00    +0.230 C 
ATOM      2  O   UNL A   1      40.566 -13.591 -38.944  0.00  0.00    -0.274 OA
ATOM      3  N   UNL A   1      41.640 -15.316 -39.999  0.00  0.00    -0.314 N 
ATOM      4  H   UNL A   1      41.755 -16.292 -40.051  0.00  0.00    +0.000 HD
ENDROOT
BRANCH   1   5
ATOM      5  C   UNL A   1      39.740 -15.823 -38.512  0.00  0.00    +0.088 C 
BRANCH   5   8
ATOM      6  C   UNL A   1      40.238 -18.207 -38.023  0.00  0.00    +0.246 C 
ATOM      7  O   UNL A   1      40.131 -18.068 -36.807  0.00  0.00    -0.270 OA
ATOM      8  N   UNL A   1      39.899 -17.214 -38.911  0.00  0.00    -0.303 N 
ATOM      9  H   UNL A   1      39.759 -17.453 -39.855  0.00  0.00    +0.000 HD
BRANCH   6  15
ATOM     10  C   UNL A   1      42.053 -19.842 -38.773  0.00  0.00    +0.044 A 
ATOM     11  C   UNL A   1      42.368 -21.114 -39.283  0.00  0.00    -0.040 A 
ATOM     12  C   UNL A   1      41.364 -22.006 -39.666  0.00  0.00    -0.060 A 
ATOM     13  C   UNL A   1      40.026 -21.658 -39.515  0.00  0.00    -0.061 A 
ATOM     14  C   UNL A   1      39.690 -20.417 -38.975  0.00  0.00    -0.048 A 
ATOM     15  C   UNL A   1      40.692 -19.506 -38.601  0.00  0.00    +0.058 A 
BRANCH  10  16
ATOM     16  N   UNL A   1      43.084 -19.004 -38.253  0.00  0.00    -0.314 N 
ATOM     17  H   UNL A   1      43.469 -18.346 -38.876  0.00  0.00    +0.000 HD
BRANCH  16  23
ATOM     18  C   UNL A   1      44.550 -16.598 -34.085  0.00  0.00    -0.039 C 
ATOM     19  C   UNL A   1      44.367 -17.841 -34.916  0.00  0.00    -0.046 A 
ATOM     20  C   UNL A   1      44.783 -19.067 -34.375  0.00  0.00    -0.058 A 
ATOM     21  C   UNL A   1      44.660 -20.242 -35.104  0.00  0.00    -0.060 A 
ATOM     22  C   UNL A   1      44.093 -20.213 -36.376  0.00  0.00    -0.040 A 
ATOM     23  C   UNL A   1      43.618 -19.015 -36.932  0.00  0.00    +0.035 A 
ATOM     24  C   UNL A   1      43.823 -17.801 -36.224  0.00  0.00    -0.026 A 
ATOM     25  C   UNL A   1      43.419 -16.484 -36.843  0.00  0.00    -0.038 C 
ENDBRANCH  16  23
ENDBRANCH  10  16
ENDBRANCH   6  15
ENDBRANCH   5   8
ENDBRANCH   1   5
BRANCH   3  26
ATOM     26  C   UNL A   1      42.446 -14.470 -40.849  0.00  0.00    +0.013 C 
BRANCH  26  27
ATOM     27  C   UNL A   1      43.593 -15.228 -41.512  0.00  0.00    -0.022 C 
BRANCH  27  28
ATOM     28  C   UNL A   1      43.943 -16.472 -40.699  0.00  0.00    +0.011 C 
BRANCH  28  29
ATOM     29  N   UNL A   1      45.321 -16.888 -41.001  0.00  0.00    -0.343 N 
ATOM     30  H   UNL A   1      45.931 -16.389 -41.591  0.00  0.00    +0.000 HD
BRANCH  29  31
ATOM     31  C   UNL A   1      45.663 -18.102 -40.334  0.00  0.00    +0.041 A 
ATOM     32  C   UNL A   1      45.430 -19.354 -40.943  0.00  0.00    -0.005 A 
ATOM     33  C   UNL A   1      45.928 -20.488 -40.295  0.00  0.00    +0.047 A 
ATOM     34  N   UNL A   1      46.586 -20.442 -39.113  0.00  0.00    -0.251 NA
ATOM     35  C   UNL A   1      46.791 -19.255 -38.527  0.00  0.00    +0.074 A 
ATOM     36  C   UNL A   1      47.468 -19.234 -37.315  0.00  0.00    -0.017 A 
ATOM     37  C   UNL A   1      47.717 -18.038 -36.646  0.00  0.00    +0.043 A 
ATOM     38 CL   UNL A   1      48.560 -18.056 -35.146  0.00  0.00    -0.083 Cl
ATOM     39  C   UNL A   1      47.287 -16.833 -37.181  0.00  0.00    -0.043 A 
ATOM     40  C   UNL A   1      46.605 -16.837 -38.396  0.00  0.00    -0.049 A 
ATOM     41  C   UNL A   1      46.354 -18.043 -39.094  0.00  0.00    +0.022 A 
ATOM     42  C   UNL A   1      45.730 -21.875 -40.853  0.00  0.00    -0.010 C 
ATOM     43  C   UNL A   1      45.422 -21.884 -42.346  0.00  0.00    -0.047 C 
ATOM     44  C   UNL A   1      44.305 -20.896 -42.641  0.00  0.00    -0.049 C 
ATOM     45  C   UNL A   1      44.736 -19.475 -42.280  0.00  0.00    -0.024 C 
ENDBRANCH  29  31
ENDBRANCH  28  29
ENDBRANCH  27  28
ENDBRANCH  26  27
ENDBRANCH   3  26
TORSDOF 10
ENDMDL
MODEL 8
REMARK VINA RESULT:    -6.841     17.393     21.183
REMARK INTER + INTRA:         -15.497
REMARK INTER:                 -12.932
REMARK INTRA:                  -2.565
REMARK UNBOUND:                -4.657
REMARK  Name = cpd45.pdb
REMARK  12 active torsions:
REMARK  status: ('A' for Active; 'I' for Inactive)
REMARK    1  A    between atoms: C_1  and  C_2
REMARK    2  A    between atoms: C_6  and  N_7
REMARK    3  A    between atoms: N_7  and  C_8
REMARK    4  A    between atoms: C_13  and  C_14
REMARK    5  A    between atoms: N_16  and  C_17
REMARK    6  A    between atoms: C_17  and  C_18
REMARK    7  A    between atoms: N_20  and  C_21
REMARK    8  A    between atoms: C_21  and  C_22
REMARK    9  A    between atoms: C_22  and  C_23
REMARK   10  A    between atoms: C_23  and  N_24
REMARK   11  A    between atoms: N_24  and  C_25
REMARK   12  A    between atoms: C_40  and  C_41
REMARK                            x       y       z     vdW  Elec       q    Type
REMARK                         _______ _______ _______ _____ _____    ______ ____
ROOT
ATOM      1  C   UNL A   1      44.452 -18.538 -33.936  0.00  0.00    +0.230 C 
ATOM      2  O   UNL A   1      44.406 -18.897 -32.760  0.00  0.00    -0.274 OA
ATOM      3  N   UNL A   1      43.697 -17.492 -34.422  0.00  0.00    -0.314 N 
ATOM      4  H   UNL A   1      43.819 -17.212 -35.357  0.00  0.00    +0.000 HD
ENDROOT
BRANCH   1   5
ATOM      5  C   UNL A   1      45.201 -19.359 -34.997  0.00  0.00    +0.088 C 
BRANCH   5   8
ATOM      6  C   UNL A   1      46.392 -18.834 -37.114  0.00  0.00    +0.246 C 
ATOM      7  O   UNL A   1      47.347 -19.562 -36.855  0.00  0.00    -0.270 OA
ATOM      8  N   UNL A   1      45.250 -18.817 -36.348  0.00  0.00    -0.303 N 
ATOM      9  H   UNL A   1      44.433 -18.422 -36.727  0.00  0.00    +0.000 HD
BRANCH   6  15
ATOM     10  C   UNL A   1      46.894 -18.394 -39.581  0.00  0.00    +0.044 A 
ATOM     11  C   UNL A   1      46.814 -17.506 -40.668  0.00  0.00    -0.040 A 
ATOM     12  C   UNL A   1      46.321 -16.209 -40.505  0.00  0.00    -0.060 A 
ATOM     13  C   UNL A   1      45.865 -15.787 -39.262  0.00  0.00    -0.061 A 
ATOM     14  C   UNL A   1      45.898 -16.663 -38.178  0.00  0.00    -0.048 A 
ATOM     15  C   UNL A   1      46.406 -17.964 -38.327  0.00  0.00    +0.058 A 
BRANCH  10  16
ATOM     16  N   UNL A   1      47.262 -19.755 -39.794  0.00  0.00    -0.314 N 
ATOM     17  H   UNL A   1      47.986 -20.107 -39.226  0.00  0.00    +0.000 HD
BRANCH  16  23
ATOM     18  C   UNL A   1      47.471 -24.016 -42.462  0.00  0.00    -0.039 C 
ATOM     19  C   UNL A   1      46.817 -22.719 -42.065  0.00  0.00    -0.046 A 
ATOM     20  C   UNL A   1      45.609 -22.368 -42.687  0.00  0.00    -0.058 A 
ATOM     21  C   UNL A   1      44.971 -21.174 -42.377  0.00  0.00    -0.060 A 
ATOM     22  C   UNL A   1      45.518 -20.324 -41.419  0.00  0.00    -0.040 A 
ATOM     23  C   UNL A   1      46.698 -20.663 -40.737  0.00  0.00    +0.035 A 
ATOM     24  C   UNL A   1      47.396 -21.840 -41.115  0.00  0.00    -0.026 A 
ATOM     25  C   UNL A   1      48.722 -22.176 -40.474  0.00  0.00    -0.038 C 
ENDBRANCH  16  23
ENDBRANCH  10  16
ENDBRANCH   6  15
ENDBRANCH   5   8
ENDBRANCH   1   5
BRANCH   3  26
ATOM     26  C   UNL A   1      42.733 -16.794 -33.602  0.00  0.00    +0.013 C 
BRANCH  26  27
ATOM     27  C   UNL A   1      41.317 -16.877 -34.164  0.00  0.00    -0.022 C 
BRANCH  27  28
ATOM     28  C   UNL A   1      40.790 -18.307 -34.059  0.00  0.00    +0.011 C 
BRANCH  28  29
ATOM     29  N   UNL A   1      39.841 -18.565 -35.152  0.00  0.00    -0.343 N 
ATOM     30  H   UNL A   1      39.133 -17.939 -35.428  0.00  0.00    +0.000 HD
BRANCH  29  31
ATOM     31  C   UNL A   1      40.073 -19.834 -35.763  0.00  0.00    +0.041 A 
ATOM     32  C   UNL A   1      40.983 -19.967 -36.833  0.00  0.00    -0.005 A 
ATOM     33  C   UNL A   1      41.269 -21.261 -37.278  0.00  0.00    +0.047 A 
ATOM     34  N   UNL A   1      40.697 -22.372 -36.756  0.00  0.00    -0.251 NA
ATOM     35  C   UNL A   1      39.820 -22.243 -35.752  0.00  0.00    +0.074 A 
ATOM     36  C   UNL A   1      39.246 -23.396 -35.235  0.00  0.00    -0.017 A 
ATOM     37  C   UNL A   1      38.325 -23.341 -34.191  0.00  0.00    +0.043 A 
ATOM     38 CL   UNL A   1      37.638 -24.795 -33.577  0.00  0.00    -0.083 Cl
ATOM     39  C   UNL A   1      37.956 -22.120 -33.646  0.00  0.00    -0.043 A 
ATOM     40  C   UNL A   1      38.522 -20.953 -34.154  0.00  0.00    -0.049 A 
ATOM     41  C   UNL A   1      39.468 -20.994 -35.207  0.00  0.00    +0.022 A 
ATOM     42  C   UNL A   1      42.221 -21.519 -38.418  0.00  0.00    -0.010 C 
ATOM     43  C   UNL A   1      43.177 -20.361 -38.676  0.00  0.00    -0.047 C 
ATOM     44  C   UNL A   1      42.393 -19.061 -38.762  0.00  0.00    -0.049 C 
ATOM     45  C   UNL A   1      41.686 -18.774 -37.437  0.00  0.00    -0.024 C 
ENDBRANCH  29  31
ENDBRANCH  28  29
ENDBRANCH  27  28
ENDBRANCH  26  27
ENDBRANCH   3  26
TORSDOF 10
ENDMDL
MODEL 9
REMARK VINA RESULT:    -6.808     16.217     20.036
REMARK INTER + INTRA:         -15.446
REMARK INTER:                 -11.934
REMARK INTRA:                  -3.511
REMARK UNBOUND:                -4.657
REMARK  Name = cpd45.pdb
REMARK  12 active torsions:
REMARK  status: ('A' for Active; 'I' for Inactive)
REMARK    1  A    between atoms: C_1  and  C_2
REMARK    2  A    between atoms: C_6  and  N_7
REMARK    3  A    between atoms: N_7  and  C_8
REMARK    4  A    between atoms: C_13  and  C_14
REMARK    5  A    between atoms: N_16  and  C_17
REMARK    6  A    between atoms: C_17  and  C_18
REMARK    7  A    between atoms: N_20  and  C_21
REMARK    8  A    between atoms: C_21  and  C_22
REMARK    9  A    between atoms: C_22  and  C_23
REMARK   10  A    between atoms: C_23  and  N_24
REMARK   11  A    between atoms: N_24  and  C_25
REMARK   12  A    between atoms: C_40  and  C_41
REMARK                            x       y       z     vdW  Elec       q    Type
REMARK                         _______ _______ _______ _____ _____    ______ ____
ROOT
ATOM      1  C   UNL A   1      46.513 -18.993 -35.666  0.00  0.00    +0.230 C 
ATOM      2  O   UNL A   1      46.853 -20.071 -35.179  0.00  0.00    -0.274 OA
ATOM      3  N   UNL A   1      45.410 -18.294 -35.224  0.00  0.00    -0.314 N 
ATOM      4  H   UNL A   1      45.221 -17.409 -35.611  0.00  0.00    +0.000 HD
ENDROOT
BRANCH   1   5
ATOM      5  C   UNL A   1      47.175 -18.442 -36.938  0.00  0.00    +0.088 C 
BRANCH   5   8
ATOM      6  C   UNL A   1      45.590 -19.032 -38.759  0.00  0.00    +0.246 C 
ATOM      7  O   UNL A   1      44.758 -18.195 -38.420  0.00  0.00    -0.270 OA
ATOM      8  N   UNL A   1      46.844 -19.094 -38.198  0.00  0.00    -0.303 N 
ATOM      9  H   UNL A   1      47.547 -19.598 -38.667  0.00  0.00    +0.000 HD
BRANCH   6  15
ATOM     10  C   UNL A   1      43.980 -20.404 -40.193  0.00  0.00    +0.044 A 
ATOM     11  C   UNL A   1      43.812 -21.284 -41.277  0.00  0.00    -0.040 A 
ATOM     12  C   UNL A   1      44.912 -21.796 -41.968  0.00  0.00    -0.060 A 
ATOM     13  C   UNL A   1      46.200 -21.411 -41.613  0.00  0.00    -0.061 A 
ATOM     14  C   UNL A   1      46.390 -20.509 -40.567  0.00  0.00    -0.048 A 
ATOM     15  C   UNL A   1      45.291 -20.000 -39.855  0.00  0.00    +0.058 A 
BRANCH  10  16
ATOM     16  N   UNL A   1      42.846 -19.780 -39.595  0.00  0.00    -0.314 N 
ATOM     17  H   UNL A   1      42.668 -18.849 -39.861  0.00  0.00    +0.000 HD
BRANCH  16  23
ATOM     18  C   UNL A   1      38.945 -19.389 -36.441  0.00  0.00    -0.039 C 
ATOM     19  C   UNL A   1      40.067 -20.156 -37.090  0.00  0.00    -0.046 A 
ATOM     20  C   UNL A   1      40.256 -21.495 -36.718  0.00  0.00    -0.058 A 
ATOM     21  C   UNL A   1      41.287 -22.246 -37.267  0.00  0.00    -0.060 A 
ATOM     22  C   UNL A   1      42.129 -21.676 -38.218  0.00  0.00    -0.040 A 
ATOM     23  C   UNL A   1      41.943 -20.355 -38.654  0.00  0.00    +0.035 A 
ATOM     24  C   UNL A   1      40.944 -19.561 -38.031  0.00  0.00    -0.026 A 
ATOM     25  C   UNL A   1      40.789 -18.105 -38.404  0.00  0.00    -0.038 C 
ENDBRANCH  16  23
ENDBRANCH  10  16
ENDBRANCH   6  15
ENDBRANCH   5   8
ENDBRANCH   1   5
BRANCH   3  26
ATOM     26  C   UNL A   1      44.522 -18.820 -34.212  0.00  0.00    +0.013 C 
BRANCH  26  27
ATOM     27  C   UNL A   1      43.140 -19.156 -34.763  0.00  0.00    -0.022 C 
BRANCH  27  28
ATOM     28  C   UNL A   1      42.624 -20.452 -34.141  0.00  0.00    +0.011 C 
BRANCH  28  29
ATOM     29  N   UNL A   1      42.104 -20.180 -32.792  0.00  0.00    -0.343 N 
ATOM     30  H   UNL A   1      42.670 -20.049 -31.998  0.00  0.00    +0.000 HD
BRANCH  29  31
ATOM     31  C   UNL A   1      40.678 -20.130 -32.778  0.00  0.00    +0.041 A 
ATOM     32  C   UNL A   1      39.997 -18.899 -32.669  0.00  0.00    -0.005 A 
ATOM     33  C   UNL A   1      38.606 -18.917 -32.814  0.00  0.00    +0.047 A 
ATOM     34  N   UNL A   1      37.894 -20.050 -33.019  0.00  0.00    -0.251 NA
ATOM     35  C   UNL A   1      38.539 -21.220 -33.104  0.00  0.00    +0.074 A 
ATOM     36  C   UNL A   1      37.786 -22.367 -33.313  0.00  0.00    -0.017 A 
ATOM     37  C   UNL A   1      38.387 -23.620 -33.411  0.00  0.00    +0.043 A 
ATOM     38 CL   UNL A   1      37.416 -25.017 -33.672  0.00  0.00    -0.083 Cl
ATOM     39  C   UNL A   1      39.763 -23.748 -33.296  0.00  0.00    -0.043 A 
ATOM     40  C   UNL A   1      40.533 -22.607 -33.085  0.00  0.00    -0.049 A 
ATOM     41  C   UNL A   1      39.938 -21.325 -32.994  0.00  0.00    +0.022 A 
ATOM     42  C   UNL A   1      37.779 -17.661 -32.710  0.00  0.00    -0.010 C 
ATOM     43  C   UNL A   1      38.585 -16.389 -32.942  0.00  0.00    -0.047 C 
ATOM     44  C   UNL A   1      39.840 -16.417 -32.085  0.00  0.00    -0.049 C 
ATOM     45  C   UNL A   1      40.733 -17.593 -32.479  0.00  0.00    -0.024 C 
ENDBRANCH  29  31
ENDBRANCH  28  29
ENDBRANCH  27  28
ENDBRANCH  26  27
ENDBRANCH   3  26
TORSDOF 10
ENDMDL
MODEL 10
REMARK VINA RESULT:    -6.658     18.487     22.250
REMARK INTER + INTRA:         -15.208
REMARK INTER:                 -11.873
REMARK INTRA:                  -3.335
REMARK UNBOUND:                -4.657
REMARK  Name = cpd45.pdb
REMARK  12 active torsions:
REMARK  status: ('A' for Active; 'I' for Inactive)
REMARK    1  A    between atoms: C_1  and  C_2
REMARK    2  A    between atoms: C_6  and  N_7
REMARK    3  A    between atoms: N_7  and  C_8
REMARK    4  A    between atoms: C_13  and  C_14
REMARK    5  A    between atoms: N_16  and  C_17
REMARK    6  A    between atoms: C_17  and  C_18
REMARK    7  A    between atoms: N_20  and  C_21
REMARK    8  A    between atoms: C_21  and  C_22
REMARK    9  A    between atoms: C_22  and  C_23
REMARK   10  A    between atoms: C_23  and  N_24
REMARK   11  A    between atoms: N_24  and  C_25
REMARK   12  A    between atoms: C_40  and  C_41
REMARK                            x       y       z     vdW  Elec       q    Type
REMARK                         _______ _______ _______ _____ _____    ______ ____
ROOT
ATOM      1  C   UNL A   1      43.595 -16.126 -35.680  0.00  0.00    +0.230 C 
ATOM      2  O   UNL A   1      42.444 -16.539 -35.824  0.00  0.00    -0.274 OA
ATOM      3  N   UNL A   1      44.529 -16.784 -34.910  0.00  0.00    -0.314 N 
ATOM      4  H   UNL A   1      45.450 -16.438 -34.880  0.00  0.00    +0.000 HD
ENDROOT
BRANCH   1   5
ATOM      5  C   UNL A   1      44.017 -14.737 -36.184  0.00  0.00    +0.088 C 
BRANCH   5   8
ATOM      6  C   UNL A   1      44.689 -15.049 -38.556  0.00  0.00    +0.246 C 
ATOM      7  O   UNL A   1      43.533 -15.141 -38.959  0.00  0.00    -0.270 OA
ATOM      8  N   UNL A   1      44.992 -14.687 -37.265  0.00  0.00    -0.303 N 
ATOM      9  H   UNL A   1      45.906 -14.383 -37.062  0.00  0.00    +0.000 HD
BRANCH   6  15
ATOM     10  C   UNL A   1      46.139 -16.529 -40.051  0.00  0.00    +0.044 A 
ATOM     11  C   UNL A   1      47.216 -16.614 -40.951  0.00  0.00    -0.040 A 
ATOM     12  C   UNL A   1      48.007 -15.499 -41.236  0.00  0.00    -0.060 A 
ATOM     13  C   UNL A   1      47.717 -14.270 -40.654  0.00  0.00    -0.061 A 
ATOM     14  C   UNL A   1      46.630 -14.153 -39.789  0.00  0.00    -0.048 A 
ATOM     15  C   UNL A   1      45.837 -15.272 -39.484  0.00  0.00    +0.058 A 
BRANCH  10  16
ATOM     16  N   UNL A   1      45.256 -17.637 -39.885  0.00  0.00    -0.314 N 
ATOM     17  H   UNL A   1      44.680 -17.621 -39.087  0.00  0.00    +0.000 HD
BRANCH  16  23
ATOM     18  C   UNL A   1      46.315 -22.406 -41.088  0.00  0.00    -0.039 C 
ATOM     19  C   UNL A   1      45.662 -21.075 -41.351  0.00  0.00    -0.046 A 
ATOM     20  C   UNL A   1      44.911 -20.927 -42.527  0.00  0.00    -0.058 A 
ATOM     21  C   UNL A   1      44.304 -19.717 -42.834  0.00  0.00    -0.060 A 
ATOM     22  C   UNL A   1      44.417 -18.642 -41.956  0.00  0.00    -0.040 A 
ATOM     23  C   UNL A   1      45.117 -18.765 -40.745  0.00  0.00    +0.035 A 
ATOM     24  C   UNL A   1      45.809 -19.974 -40.472  0.00  0.00    -0.026 A 
ATOM     25  C   UNL A   1      46.658 -20.098 -39.229  0.00  0.00    -0.038 C 
ENDBRANCH  16  23
ENDBRANCH  10  16
ENDBRANCH   6  15
ENDBRANCH   5   8
ENDBRANCH   1   5
BRANCH   3  26
ATOM     26  C   UNL A   1      44.200 -17.966 -34.145  0.00  0.00    +0.013 C 
BRANCH  26  27
ATOM     27  C   UNL A   1      45.112 -19.145 -34.467  0.00  0.00    -0.022 C 
BRANCH  27  28
ATOM     28  C   UNL A   1      44.312 -20.270 -35.121  0.00  0.00    +0.011 C 
BRANCH  28  29
ATOM     29  N   UNL A   1      42.967 -19.784 -35.464  0.00  0.00    -0.343 N 
ATOM     30  H   UNL A   1      42.701 -18.836 -35.448  0.00  0.00    +0.000 HD
BRANCH  29  31
ATOM     31  C   UNL A   1      42.095 -20.856 -35.822  0.00  0.00    +0.041 A 
ATOM     32  C   UNL A   1      41.291 -21.490 -34.852  0.00  0.00    -0.005 A 
ATOM     33  C   UNL A   1      40.355 -22.426 -35.303  0.00  0.00    +0.047 A 
ATOM     34  N   UNL A   1      40.211 -22.767 -36.605  0.00  0.00    -0.251 NA
ATOM     35  C   UNL A   1      40.987 -22.178 -37.523  0.00  0.00    +0.074 A 
ATOM     36  C   UNL A   1      40.821 -22.545 -38.851  0.00  0.00    -0.017 A 
ATOM     37  C   UNL A   1      41.593 -21.976 -39.862  0.00  0.00    +0.043 A 
ATOM     38 CL   UNL A   1      41.354 -22.459 -41.496  0.00  0.00    -0.083 Cl
ATOM     39  C   UNL A   1      42.554 -21.024 -39.558  0.00  0.00    -0.043 A 
ATOM     40  C   UNL A   1      42.734 -20.645 -38.229  0.00  0.00    -0.049 A 
ATOM     41  C   UNL A   1      41.950 -21.206 -37.192  0.00  0.00    +0.022 A 
ATOM     42  C   UNL A   1      39.450 -23.168 -34.352  0.00  0.00    -0.010 C 
ATOM     43  C   UNL A   1      39.292 -22.472 -33.006  0.00  0.00    -0.047 C 
ATOM     44  C   UNL A   1      40.661 -22.110 -32.454  0.00  0.00    -0.049 C 
ATOM     45  C   UNL A   1      41.373 -21.130 -33.387  0.00  0.00    -0.024 C 
ENDBRANCH  29  31
ENDBRANCH  28  29
ENDBRANCH  27  28
ENDBRANCH  26  27
ENDBRANCH   3  26
TORSDOF 10
ENDMDL
MODEL 11
REMARK VINA RESULT:    -6.649     17.713     20.932
REMARK INTER + INTRA:         -15.194
REMARK INTER:                 -12.865
REMARK INTRA:                  -2.328
REMARK UNBOUND:                -4.657
REMARK  Name = cpd45.pdb
REMARK  12 active torsions:
REMARK  status: ('A' for Active; 'I' for Inactive)
REMARK    1  A    between atoms: C_1  and  C_2
REMARK    2  A    between atoms: C_6  and  N_7
REMARK    3  A    between atoms: N_7  and  C_8
REMARK    4  A    between atoms: C_13  and  C_14
REMARK    5  A    between atoms: N_16  and  C_17
REMARK    6  A    between atoms: C_17  and  C_18
REMARK    7  A    between atoms: N_20  and  C_21
REMARK    8  A    between atoms: C_21  and  C_22
REMARK    9  A    between atoms: C_22  and  C_23
REMARK   10  A    between atoms: C_23  and  N_24
REMARK   11  A    between atoms: N_24  and  C_25
REMARK   12  A    between atoms: C_40  and  C_41
REMARK                            x       y       z     vdW  Elec       q    Type
REMARK                         _______ _______ _______ _____ _____    ______ ____
ROOT
ATOM      1  C   UNL A   1      40.535 -21.424 -38.642  0.00  0.00    +0.230 C 
ATOM      2  O   UNL A   1      39.344 -21.127 -38.733  0.00  0.00    -0.274 OA
ATOM      3  N   UNL A   1      41.211 -21.421 -37.441  0.00  0.00    -0.314 N 
ATOM      4  H   UNL A   1      42.147 -21.724 -37.420  0.00  0.00    +0.000 HD
ENDROOT
BRANCH   1   5
ATOM      5  C   UNL A   1      41.410 -21.623 -39.889  0.00  0.00    +0.088 C 
BRANCH   5   8
ATOM      6  C   UNL A   1      43.751 -21.120 -40.555  0.00  0.00    +0.246 C 
ATOM      7  O   UNL A   1      43.423 -20.262 -41.371  0.00  0.00    -0.270 OA
ATOM      8  N   UNL A   1      42.851 -21.695 -39.689  0.00  0.00    -0.303 N 
ATOM      9  H   UNL A   1      43.194 -22.174 -38.902  0.00  0.00    +0.000 HD
BRANCH   6  15
ATOM     10  C   UNL A   1      45.983 -21.214 -39.316  0.00  0.00    +0.044 A 
ATOM     11  C   UNL A   1      47.301 -21.705 -39.279  0.00  0.00    -0.040 A 
ATOM     12  C   UNL A   1      47.823 -22.448 -40.339  0.00  0.00    -0.060 A 
ATOM     13  C   UNL A   1      47.029 -22.746 -41.441  0.00  0.00    -0.061 A 
ATOM     14  C   UNL A   1      45.708 -22.302 -41.483  0.00  0.00    -0.048 A 
ATOM     15  C   UNL A   1      45.177 -21.541 -40.428  0.00  0.00    +0.058 A 
BRANCH  10  16
ATOM     16  N   UNL A   1      45.421 -20.584 -38.166  0.00  0.00    -0.314 N 
ATOM     17  H   UNL A   1      44.459 -20.729 -38.014  0.00  0.00    +0.000 HD
BRANCH  16  23
ATOM     18  C   UNL A   1      47.419 -16.180 -36.778  0.00  0.00    -0.039 C 
ATOM     19  C   UNL A   1      47.104 -17.635 -36.551  0.00  0.00    -0.046 A 
ATOM     20  C   UNL A   1      47.537 -18.228 -35.355  0.00  0.00    -0.058 A 
ATOM     21  C   UNL A   1      47.295 -19.571 -35.101  0.00  0.00    -0.060 A 
ATOM     22  C   UNL A   1      46.592 -20.337 -36.027  0.00  0.00    -0.040 A 
ATOM     23  C   UNL A   1      46.098 -19.769 -37.213  0.00  0.00    +0.035 A 
ATOM     24  C   UNL A   1      46.420 -18.419 -37.513  0.00  0.00    -0.026 A 
ATOM     25  C   UNL A   1      45.994 -17.812 -38.829  0.00  0.00    -0.038 C 
ENDBRANCH  16  23
ENDBRANCH  10  16
ENDBRANCH   6  15
ENDBRANCH   5   8
ENDBRANCH   1   5
BRANCH   3  26
ATOM     26  C   UNL A   1      40.589 -20.987 -36.210  0.00  0.00    +0.013 C 
BRANCH  26  27
ATOM     27  C   UNL A   1      41.139 -21.714 -34.987  0.00  0.00    -0.022 C 
BRANCH  27  28
ATOM     28  C   UNL A   1      42.355 -20.973 -34.434  0.00  0.00    +0.011 C 
BRANCH  28  29
ATOM     29  N   UNL A   1      42.138 -20.659 -33.014  0.00  0.00    -0.343 N 
ATOM     30  H   UNL A   1      42.232 -21.311 -32.283  0.00  0.00    +0.000 HD
BRANCH  29  31
ATOM     31  C   UNL A   1      41.774 -19.291 -32.828  0.00  0.00    +0.041 A 
ATOM     32  C   UNL A   1      42.750 -18.272 -32.857  0.00  0.00    -0.005 A 
ATOM     33  C   UNL A   1      42.299 -16.949 -32.818  0.00  0.00    +0.047 A 
ATOM     34  N   UNL A   1      40.992 -16.609 -32.723  0.00  0.00    -0.251 NA
ATOM     35  C   UNL A   1      40.068 -17.577 -32.678  0.00  0.00    +0.074 A 
ATOM     36  C   UNL A   1      38.735 -17.204 -32.581  0.00  0.00    -0.017 A 
ATOM     37  C   UNL A   1      37.719 -18.155 -32.527  0.00  0.00    +0.043 A 
ATOM     38 CL   UNL A   1      36.078 -17.650 -32.408  0.00  0.00    -0.083 Cl
ATOM     39  C   UNL A   1      38.022 -19.508 -32.567  0.00  0.00    -0.043 A 
ATOM     40  C   UNL A   1      39.356 -19.900 -32.664  0.00  0.00    -0.049 A 
ATOM     41  C   UNL A   1      40.399 -18.945 -32.731  0.00  0.00    +0.022 A 
ATOM     42  C   UNL A   1      43.254 -15.782 -32.836  0.00  0.00    -0.010 C 
ATOM     43  C   UNL A   1      44.627 -16.137 -33.394  0.00  0.00    -0.047 C 
ATOM     44  C   UNL A   1      45.145 -17.394 -32.712  0.00  0.00    -0.049 C 
ATOM     45  C   UNL A   1      44.222 -18.579 -32.999  0.00  0.00    -0.024 C 
ENDBRANCH  29  31
ENDBRANCH  28  29
ENDBRANCH  27  28
ENDBRANCH  26  27
ENDBRANCH   3  26
TORSDOF 10
ENDMDL
MODEL 12
REMARK VINA RESULT:    -6.642     18.064     21.368
REMARK INTER + INTRA:         -15.183
REMARK INTER:                 -13.298
REMARK INTRA:                  -1.885
REMARK UNBOUND:                -4.657
REMARK  Name = cpd45.pdb
REMARK  12 active torsions:
REMARK  status: ('A' for Active; 'I' for Inactive)
REMARK    1  A    between atoms: C_1  and  C_2
REMARK    2  A    between atoms: C_6  and  N_7
REMARK    3  A    between atoms: N_7  and  C_8
REMARK    4  A    between atoms: C_13  and  C_14
REMARK    5  A    between atoms: N_16  and  C_17
REMARK    6  A    between atoms: C_17  and  C_18
REMARK    7  A    between atoms: N_20  and  C_21
REMARK    8  A    between atoms: C_21  and  C_22
REMARK    9  A    between atoms: C_22  and  C_23
REMARK   10  A    between atoms: C_23  and  N_24
REMARK   11  A    between atoms: N_24  and  C_25
REMARK   12  A    between atoms: C_40  and  C_41
REMARK                            x       y       z     vdW  Elec       q    Type
REMARK                         _______ _______ _______ _____ _____    ______ ____
ROOT
ATOM      1  C   UNL A   1      46.714 -19.489 -36.300  0.00  0.00    +0.230 C 
ATOM      2  O   UNL A   1      47.417 -19.957 -35.405  0.00  0.00    -0.274 OA
ATOM      3  N   UNL A   1      45.340 -19.447 -36.219  0.00  0.00    -0.314 N 
ATOM      4  H   UNL A   1      44.833 -19.007 -36.939  0.00  0.00    +0.000 HD
ENDROOT
BRANCH   1   5
ATOM      5  C   UNL A   1      47.306 -19.101 -37.664  0.00  0.00    +0.088 C 
BRANCH   5   8
ATOM      6  C   UNL A   1      47.297 -19.960 -39.995  0.00  0.00    +0.246 C 
ATOM      7  O   UNL A   1      47.296 -18.840 -40.498  0.00  0.00    -0.270 OA
ATOM      8  N   UNL A   1      47.470 -20.163 -38.647  0.00  0.00    -0.303 N 
ATOM      9  H   UNL A   1      47.716 -21.062 -38.332  0.00  0.00    +0.000 HD
BRANCH   6  15
ATOM     10  C   UNL A   1      45.990 -21.494 -41.567  0.00  0.00    +0.044 A 
ATOM     11  C   UNL A   1      45.993 -22.641 -42.381  0.00  0.00    -0.040 A 
ATOM     12  C   UNL A   1      47.107 -23.481 -42.438  0.00  0.00    -0.060 A 
ATOM     13  C   UNL A   1      48.252 -23.173 -41.711  0.00  0.00    -0.061 A 
ATOM     14  C   UNL A   1      48.285 -22.020 -40.928  0.00  0.00    -0.048 A 
ATOM     15  C   UNL A   1      47.165 -21.177 -40.851  0.00  0.00    +0.058 A 
BRANCH  10  16
ATOM     16  N   UNL A   1      44.903 -20.573 -41.633  0.00  0.00    -0.314 N 
ATOM     17  H   UNL A   1      44.922 -19.925 -42.375  0.00  0.00    +0.000 HD
BRANCH  16  23
ATOM     18  C   UNL A   1      41.758 -17.875 -38.779  0.00  0.00    -0.039 C 
ATOM     19  C   UNL A   1      42.284 -19.176 -39.324  0.00  0.00    -0.046 A 
ATOM     20  C   UNL A   1      41.674 -20.367 -38.902  0.00  0.00    -0.058 A 
ATOM     21  C   UNL A   1      42.130 -21.598 -39.354  0.00  0.00    -0.060 A 
ATOM     22  C   UNL A   1      43.188 -21.656 -40.258  0.00  0.00    -0.040 A 
ATOM     23  C   UNL A   1      43.792 -20.485 -40.744  0.00  0.00    +0.035 A 
ATOM     24  C   UNL A   1      43.384 -19.232 -40.216  0.00  0.00    -0.026 A 
ATOM     25  C   UNL A   1      44.088 -17.965 -40.640  0.00  0.00    -0.038 C 
ENDBRANCH  16  23
ENDBRANCH  10  16
ENDBRANCH   6  15
ENDBRANCH   5   8
ENDBRANCH   1   5
BRANCH   3  26
ATOM     26  C   UNL A   1      44.617 -20.027 -35.110  0.00  0.00    +0.013 C 
BRANCH  26  27
ATOM     27  C   UNL A   1      43.112 -20.081 -35.356  0.00  0.00    -0.022 C 
BRANCH  27  28
ATOM     28  C   UNL A   1      42.415 -20.814 -34.211  0.00  0.00    +0.011 C 
BRANCH  28  29
ATOM     29  N   UNL A   1      42.711 -20.136 -32.939  0.00  0.00    -0.343 N 
ATOM     30  H   UNL A   1      43.379 -20.450 -32.288  0.00  0.00    +0.000 HD
BRANCH  29  31
ATOM     31  C   UNL A   1      41.908 -18.969 -32.766  0.00  0.00    +0.041 A 
ATOM     32  C   UNL A   1      42.494 -17.686 -32.725  0.00  0.00    -0.005 A 
ATOM     33  C   UNL A   1      41.633 -16.585 -32.705  0.00  0.00    +0.047 A 
ATOM     34  N   UNL A   1      40.283 -16.695 -32.691  0.00  0.00    -0.251 NA
ATOM     35  C   UNL A   1      39.728 -17.913 -32.711  0.00  0.00    +0.074 A 
ATOM     36  C   UNL A   1      38.343 -17.999 -32.695  0.00  0.00    -0.017 A 
ATOM     37  C   UNL A   1      37.694 -19.232 -32.713  0.00  0.00    +0.043 A 
ATOM     38 CL   UNL A   1      35.974 -19.295 -32.694  0.00  0.00    -0.083 Cl
ATOM     39  C   UNL A   1      38.426 -20.409 -32.744  0.00  0.00    -0.043 A 
ATOM     40  C   UNL A   1      39.818 -20.340 -32.760  0.00  0.00    -0.049 A 
ATOM     41  C   UNL A   1      40.492 -19.095 -32.753  0.00  0.00    +0.022 A 
ATOM     42  C   UNL A   1      42.151 -15.170 -32.655  0.00  0.00    -0.010 C 
ATOM     43  C   UNL A   1      43.594 -15.041 -33.127  0.00  0.00    -0.047 C 
ATOM     44  C   UNL A   1      44.456 -16.077 -32.424  0.00  0.00    -0.049 C 
ATOM     45  C   UNL A   1      43.991 -17.490 -32.777  0.00  0.00    -0.024 C 
ENDBRANCH  29  31
ENDBRANCH  28  29
ENDBRANCH  27  28
ENDBRANCH  26  27
ENDBRANCH   3  26
TORSDOF 10
ENDMDL
MODEL 13
REMARK VINA RESULT:    -6.623     17.359     21.319
REMARK INTER + INTRA:         -15.153
REMARK INTER:                 -13.772
REMARK INTRA:                  -1.381
REMARK UNBOUND:                -4.657
REMARK  Name = cpd45.pdb
REMARK  12 active torsions:
REMARK  status: ('A' for Active; 'I' for Inactive)
REMARK    1  A    between atoms: C_1  and  C_2
REMARK    2  A    between atoms: C_6  and  N_7
REMARK    3  A    between atoms: N_7  and  C_8
REMARK    4  A    between atoms: C_13  and  C_14
REMARK    5  A    between atoms: N_16  and  C_17
REMARK    6  A    between atoms: C_17  and  C_18
REMARK    7  A    between atoms: N_20  and  C_21
REMARK    8  A    between atoms: C_21  and  C_22
REMARK    9  A    between atoms: C_22  and  C_23
REMARK   10  A    between atoms: C_23  and  N_24
REMARK   11  A    between atoms: N_24  and  C_25
REMARK   12  A    between atoms: C_40  and  C_41
REMARK                            x       y       z     vdW  Elec       q    Type
REMARK                         _______ _______ _______ _____ _____    ______ ____
ROOT
ATOM      1  C   UNL A   1      44.664 -18.986 -33.874  0.00  0.00    +0.230 C 
ATOM      2  O   UNL A   1      45.034 -18.113 -33.089  0.00  0.00    -0.274 OA
ATOM      3  N   UNL A   1      43.367 -19.447 -33.913  0.00  0.00    -0.314 N 
ATOM      4  H   UNL A   1      43.115 -20.103 -34.603  0.00  0.00    +0.000 HD
ENDROOT
BRANCH   1   5
ATOM      5  C   UNL A   1      45.669 -19.770 -34.733  0.00  0.00    +0.088 C 
BRANCH   5   8
ATOM      6  C   UNL A   1      47.119 -18.754 -36.476  0.00  0.00    +0.246 C 
ATOM      7  O   UNL A   1      48.152 -18.924 -35.835  0.00  0.00    -0.270 OA
ATOM      8  N   UNL A   1      45.913 -19.285 -36.084  0.00  0.00    -0.303 N 
ATOM      9  H   UNL A   1      45.185 -19.340 -36.744  0.00  0.00    +0.000 HD
BRANCH   6  15
ATOM     10  C   UNL A   1      47.153 -18.625 -39.028  0.00  0.00    +0.044 A 
ATOM     11  C   UNL A   1      47.123 -17.814 -40.176  0.00  0.00    -0.040 A 
ATOM     12  C   UNL A   1      47.138 -16.421 -40.076  0.00  0.00    -0.060 A 
ATOM     13  C   UNL A   1      47.148 -15.812 -38.826  0.00  0.00    -0.061 A 
ATOM     14  C   UNL A   1      47.139 -16.596 -37.673  0.00  0.00    -0.048 A 
ATOM     15  C   UNL A   1      47.139 -17.998 -37.763  0.00  0.00    +0.058 A 
BRANCH  10  16
ATOM     16  N   UNL A   1      46.991 -20.038 -39.145  0.00  0.00    -0.314 N 
ATOM     17  H   UNL A   1      47.317 -20.579 -38.390  0.00  0.00    +0.000 HD
BRANCH  16  23
ATOM     18  C   UNL A   1      47.212 -23.620 -42.671  0.00  0.00    -0.039 C 
ATOM     19  C   UNL A   1      46.533 -22.470 -41.975  0.00  0.00    -0.046 A 
ATOM     20  C   UNL A   1      45.280 -22.055 -42.451  0.00  0.00    -0.058 A 
ATOM     21  C   UNL A   1      44.615 -20.987 -41.863  0.00  0.00    -0.060 A 
ATOM     22  C   UNL A   1      45.182 -20.334 -40.772  0.00  0.00    -0.040 A 
ATOM     23  C   UNL A   1      46.410 -20.751 -40.233  0.00  0.00    +0.035 A 
ATOM     24  C   UNL A   1      47.130 -21.786 -40.887  0.00  0.00    -0.026 A 
ATOM     25  C   UNL A   1      48.501 -22.184 -40.395  0.00  0.00    -0.038 C 
ENDBRANCH  16  23
ENDBRANCH  10  16
ENDBRANCH   6  15
ENDBRANCH   5   8
ENDBRANCH   1   5
BRANCH   3  26
ATOM     26  C   UNL A   1      42.363 -19.000 -32.975  0.00  0.00    +0.013 C 
BRANCH  26  27
ATOM     27  C   UNL A   1      41.315 -20.070 -32.682  0.00  0.00    -0.022 C 
BRANCH  27  28
ATOM     28  C   UNL A   1      41.671 -21.369 -33.402  0.00  0.00    +0.011 C 
BRANCH  28  29
ATOM     29  N   UNL A   1      40.449 -22.149 -33.646  0.00  0.00    -0.343 N 
ATOM     30  H   UNL A   1      40.217 -22.976 -33.165  0.00  0.00    +0.000 HD
BRANCH  29  31
ATOM     31  C   UNL A   1      39.643 -21.560 -34.665  0.00  0.00    +0.041 A 
ATOM     32  C   UNL A   1      38.450 -20.878 -34.342  0.00  0.00    -0.005 A 
ATOM     33  C   UNL A   1      37.796 -20.200 -35.374  0.00  0.00    +0.047 A 
ATOM     34  N   UNL A   1      38.232 -20.195 -36.656  0.00  0.00    -0.251 NA
ATOM     35  C   UNL A   1      39.354 -20.857 -36.966  0.00  0.00    +0.074 A 
ATOM     36  C   UNL A   1      39.780 -20.838 -38.286  0.00  0.00    -0.017 A 
ATOM     37  C   UNL A   1      40.936 -21.505 -38.684  0.00  0.00    +0.043 A 
ATOM     38 CL   UNL A   1      41.430 -21.455 -40.332  0.00  0.00    -0.083 Cl
ATOM     39  C   UNL A   1      41.691 -22.211 -37.759  0.00  0.00    -0.043 A 
ATOM     40  C   UNL A   1      41.277 -22.241 -36.429  0.00  0.00    -0.049 A 
ATOM     41  C   UNL A   1      40.109 -21.559 -36.008  0.00  0.00    +0.022 A 
ATOM     42  C   UNL A   1      36.511 -19.445 -35.142  0.00  0.00    -0.010 C 
ATOM     43  C   UNL A   1      36.288 -19.073 -33.681  0.00  0.00    -0.047 C 
ATOM     44  C   UNL A   1      36.492 -20.299 -32.806  0.00  0.00    -0.049 C 
ATOM     45  C   UNL A   1      37.928 -20.811 -32.926  0.00  0.00    -0.024 C 
ENDBRANCH  29  31
ENDBRANCH  28  29
ENDBRANCH  27  28
ENDBRANCH  26  27
ENDBRANCH   3  26
TORSDOF 10
ENDMDL
MODEL 14
REMARK VINA RESULT:    -6.619     18.034     21.420
REMARK INTER + INTRA:         -15.146
REMARK INTER:                 -11.630
REMARK INTRA:                  -3.516
REMARK UNBOUND:                -4.657
REMARK  Name = cpd45.pdb
REMARK  12 active torsions:
REMARK  status: ('A' for Active; 'I' for Inactive)
REMARK    1  A    between atoms: C_1  and  C_2
REMARK    2  A    between atoms: C_6  and  N_7
REMARK    3  A    between atoms: N_7  and  C_8
REMARK    4  A    between atoms: C_13  and  C_14
REMARK    5  A    between atoms: N_16  and  C_17
REMARK    6  A    between atoms: C_17  and  C_18
REMARK    7  A    between atoms: N_20  and  C_21
REMARK    8  A    between atoms: C_21  and  C_22
REMARK    9  A    between atoms: C_22  and  C_23
REMARK   10  A    between atoms: C_23  and  N_24
REMARK   11  A    between atoms: N_24  and  C_25
REMARK   12  A    between atoms: C_40  and  C_41
REMARK                            x       y       z     vdW  Elec       q    Type
REMARK                         _______ _______ _______ _____ _____    ______ ____
ROOT
ATOM      1  C   UNL A   1      47.079 -16.610 -37.255  0.00  0.00    +0.230 C 
ATOM      2  O   UNL A   1      47.949 -15.935 -36.705  0.00  0.00    -0.274 OA
ATOM      3  N   UNL A   1      46.326 -17.544 -36.577  0.00  0.00    -0.314 N 
ATOM      4  H   UNL A   1      45.604 -18.012 -37.055  0.00  0.00    +0.000 HD
ENDROOT
BRANCH   1   5
ATOM      5  C   UNL A   1      46.907 -16.608 -38.782  0.00  0.00    +0.088 C 
BRANCH   5   8
ATOM      6  C   UNL A   1      46.203 -18.867 -39.539  0.00  0.00    +0.246 C 
ATOM      7  O   UNL A   1      47.140 -19.437 -38.985  0.00  0.00    -0.270 OA
ATOM      8  N   UNL A   1      45.934 -17.533 -39.345  0.00  0.00    -0.303 N 
ATOM      9  H   UNL A   1      45.047 -17.189 -39.598  0.00  0.00    +0.000 HD
BRANCH   6  15
ATOM     10  C   UNL A   1      44.285 -20.513 -39.918  0.00  0.00    +0.044 A 
ATOM     11  C   UNL A   1      43.422 -21.138 -40.835  0.00  0.00    -0.040 A 
ATOM     12  C   UNL A   1      43.563 -20.939 -42.210  0.00  0.00    -0.060 A 
ATOM     13  C   UNL A   1      44.546 -20.082 -42.694  0.00  0.00    -0.061 A 
ATOM     14  C   UNL A   1      45.388 -19.421 -41.801  0.00  0.00    -0.048 A 
ATOM     15  C   UNL A   1      45.265 -19.626 -40.417  0.00  0.00    +0.058 A 
BRANCH  10  16
ATOM     16  N   UNL A   1      44.036 -20.613 -38.517  0.00  0.00    -0.314 N 
ATOM     17  H   UNL A   1      44.681 -21.142 -37.995  0.00  0.00    +0.000 HD
BRANCH  16  23
ATOM     18  C   UNL A   1      39.499 -20.946 -36.367  0.00  0.00    -0.039 C 
ATOM     19  C   UNL A   1      40.731 -20.183 -36.776  0.00  0.00    -0.046 A 
ATOM     20  C   UNL A   1      40.800 -18.817 -36.460  0.00  0.00    -0.058 A 
ATOM     21  C   UNL A   1      41.901 -18.057 -36.830  0.00  0.00    -0.060 A 
ATOM     22  C   UNL A   1      42.964 -18.658 -37.500  0.00  0.00    -0.040 A 
ATOM     23  C   UNL A   1      42.956 -20.031 -37.791  0.00  0.00    +0.035 A 
ATOM     24  C   UNL A   1      41.795 -20.790 -37.489  0.00  0.00    -0.026 A 
ATOM     25  C   UNL A   1      41.715 -22.245 -37.885  0.00  0.00    -0.038 C 
ENDBRANCH  16  23
ENDBRANCH  10  16
ENDBRANCH   6  15
ENDBRANCH   5   8
ENDBRANCH   1   5
BRANCH   3  26
ATOM     26  C   UNL A   1      46.561 -17.858 -35.186  0.00  0.00    +0.013 C 
BRANCH  26  27
ATOM     27  C   UNL A   1      46.234 -19.310 -34.850  0.00  0.00    -0.022 C 
BRANCH  27  28
ATOM     28  C   UNL A   1      44.744 -19.461 -34.552  0.00  0.00    +0.011 C 
BRANCH  28  29
ATOM     29  N   UNL A   1      44.509 -19.299 -33.110  0.00  0.00    -0.343 N 
ATOM     30  H   UNL A   1      45.114 -19.636 -32.410  0.00  0.00    +0.000 HD
BRANCH  29  31
ATOM     31  C   UNL A   1      43.296 -18.593 -32.850  0.00  0.00    +0.041 A 
ATOM     32  C   UNL A   1      43.285 -17.186 -32.746  0.00  0.00    -0.005 A 
ATOM     33  C   UNL A   1      42.041 -16.558 -32.642  0.00  0.00    +0.047 A 
ATOM     34  N   UNL A   1      40.867 -17.232 -32.604  0.00  0.00    -0.251 NA
ATOM     35  C   UNL A   1      40.879 -18.568 -32.684  0.00  0.00    +0.074 A 
ATOM     36  C   UNL A   1      39.664 -19.236 -32.643  0.00  0.00    -0.017 A 
ATOM     37  C   UNL A   1      39.598 -20.625 -32.719  0.00  0.00    +0.043 A 
ATOM     38 CL   UNL A   1      38.069 -21.415 -32.665  0.00  0.00    -0.083 Cl
ATOM     39  C   UNL A   1      40.758 -21.377 -32.836  0.00  0.00    -0.043 A 
ATOM     40  C   UNL A   1      41.987 -20.722 -32.878  0.00  0.00    -0.049 A 
ATOM     41  C   UNL A   1      42.069 -19.310 -32.813  0.00  0.00    +0.022 A 
ATOM     42  C   UNL A   1      41.913 -15.061 -32.519  0.00  0.00    -0.010 C 
ATOM     43  C   UNL A   1      43.142 -14.309 -33.016  0.00  0.00    -0.047 C 
ATOM     44  C   UNL A   1      44.392 -14.910 -32.394  0.00  0.00    -0.049 C 
ATOM     45  C   UNL A   1      44.555 -16.370 -32.820  0.00  0.00    -0.024 C 
ENDBRANCH  29  31
ENDBRANCH  28  29
ENDBRANCH  27  28
ENDBRANCH  26  27
ENDBRANCH   3  26
TORSDOF 10
ENDMDL
MODEL 15
REMARK VINA RESULT:    -6.612     18.712     22.200
REMARK INTER + INTRA:         -15.135
REMARK INTER:                 -11.039
REMARK INTRA:                  -4.096
REMARK UNBOUND:                -4.657
REMARK  Name = cpd45.pdb
REMARK  12 active torsions:
REMARK  status: ('A' for Active; 'I' for Inactive)
REMARK    1  A    between atoms: C_1  and  C_2
REMARK    2  A    between atoms: C_6  and  N_7
REMARK    3  A    between atoms: N_7  and  C_8
REMARK    4  A    between atoms: C_13  and  C_14
REMARK    5  A    between atoms: N_16  and  C_17
REMARK    6  A    between atoms: C_17  and  C_18
REMARK    7  A    between atoms: N_20  and  C_21
REMARK    8  A    between atoms: C_21  and  C_22
REMARK    9  A    between atoms: C_22  and  C_23
REMARK   10  A    between atoms: C_23  and  N_24
REMARK   11  A    between atoms: N_24  and  C_25
REMARK   12  A    between atoms: C_40  and  C_41
REMARK                            x       y       z     vdW  Elec       q    Type
REMARK                         _______ _______ _______ _____ _____    ______ ____
ROOT
ATOM      1  C   UNL A   1      43.570 -16.268 -33.648  0.00  0.00    +0.230 C 
ATOM      2  O   UNL A   1      43.606 -15.515 -34.621  0.00  0.00    -0.274 OA
ATOM      3  N   UNL A   1      44.591 -17.143 -33.349  0.00  0.00    -0.314 N 
ATOM      4  H   UNL A   1      44.534 -17.678 -32.524  0.00  0.00    +0.000 HD
ENDROOT
BRANCH   1   5
ATOM      5  C   UNL A   1      42.294 -16.432 -32.808  0.00  0.00    +0.088 C 
BRANCH   5   8
ATOM      6  C   UNL A   1      41.424 -18.627 -33.581  0.00  0.00    +0.246 C 
ATOM      7  O   UNL A   1      42.347 -19.264 -33.079  0.00  0.00    -0.270 OA
ATOM      8  N   UNL A   1      41.245 -17.284 -33.348  0.00  0.00    -0.303 N 
ATOM      9  H   UNL A   1      40.370 -16.882 -33.555  0.00  0.00    +0.000 HD
BRANCH   6  15
ATOM     10  C   UNL A   1      40.695 -19.834 -35.712  0.00  0.00    +0.044 A 
ATOM     11  C   UNL A   1      39.670 -20.499 -36.408  0.00  0.00    -0.040 A 
ATOM     12  C   UNL A   1      38.381 -20.590 -35.879  0.00  0.00    -0.060 A 
ATOM     13  C   UNL A   1      38.100 -20.049 -34.629  0.00  0.00    -0.061 A 
ATOM     14  C   UNL A   1      39.110 -19.419 -33.904  0.00  0.00    -0.048 A 
ATOM     15  C   UNL A   1      40.406 -19.309 -34.434  0.00  0.00    +0.058 A 
BRANCH  10  16
ATOM     16  N   UNL A   1      42.036 -19.877 -36.198  0.00  0.00    -0.314 N 
ATOM     17  H   UNL A   1      42.749 -19.827 -35.521  0.00  0.00    +0.000 HD
BRANCH  16  23
ATOM     18  C   UNL A   1      43.421 -17.766 -40.550  0.00  0.00    -0.039 C 
ATOM     19  C   UNL A   1      43.095 -18.956 -39.686  0.00  0.00    -0.046 A 
ATOM     20  C   UNL A   1      43.172 -20.233 -40.262  0.00  0.00    -0.058 A 
ATOM     21  C   UNL A   1      42.862 -21.366 -39.520  0.00  0.00    -0.060 A 
ATOM     22  C   UNL A   1      42.496 -21.239 -38.182  0.00  0.00    -0.040 A 
ATOM     23  C   UNL A   1      42.457 -19.983 -37.556  0.00  0.00    +0.035 A 
ATOM     24  C   UNL A   1      42.689 -18.820 -38.335  0.00  0.00    -0.026 A 
ATOM     25  C   UNL A   1      42.549 -17.450 -37.715  0.00  0.00    -0.038 C 
ENDBRANCH  16  23
ENDBRANCH  10  16
ENDBRANCH   6  15
ENDBRANCH   5   8
ENDBRANCH   1   5
BRANCH   3  26
ATOM     26  C   UNL A   1      45.744 -17.301 -34.206  0.00  0.00    +0.013 C 
BRANCH  26  27
ATOM     27  C   UNL A   1      45.887 -18.724 -34.739  0.00  0.00    -0.022 C 
BRANCH  27  28
ATOM     28  C   UNL A   1      45.684 -18.745 -36.252  0.00  0.00    +0.011 C 
BRANCH  28  29
ATOM     29  N   UNL A   1      46.976 -18.955 -36.921  0.00  0.00    -0.343 N 
ATOM     30  H   UNL A   1      47.783 -19.293 -36.471  0.00  0.00    +0.000 HD
BRANCH  29  31
ATOM     31  C   UNL A   1      46.916 -18.606 -38.304  0.00  0.00    +0.041 A 
ATOM     32  C   UNL A   1      47.096 -17.270 -38.723  0.00  0.00    -0.005 A 
ATOM     33  C   UNL A   1      47.173 -17.031 -40.098  0.00  0.00    +0.047 A 
ATOM     34  N   UNL A   1      47.054 -18.005 -41.031  0.00  0.00    -0.251 NA
ATOM     35  C   UNL A   1      46.865 -19.270 -40.634  0.00  0.00    +0.074 A 
ATOM     36  C   UNL A   1      46.744 -20.249 -41.609  0.00  0.00    -0.017 A 
ATOM     37  C   UNL A   1      46.545 -21.586 -41.271  0.00  0.00    +0.043 A 
ATOM     38 CL   UNL A   1      46.402 -22.771 -42.512  0.00  0.00    -0.083 Cl
ATOM     39  C   UNL A   1      46.459 -21.968 -39.941  0.00  0.00    -0.043 A 
ATOM     40  C   UNL A   1      46.577 -20.996 -38.949  0.00  0.00    -0.049 A 
ATOM     41  C   UNL A   1      46.791 -19.635 -39.276  0.00  0.00    +0.022 A 
ATOM     42  C   UNL A   1      47.358 -15.643 -40.656  0.00  0.00    -0.010 C 
ATOM     43  C   UNL A   1      47.940 -14.661 -39.645  0.00  0.00    -0.047 C 
ATOM     44  C   UNL A   1      47.156 -14.744 -38.345  0.00  0.00    -0.049 C 
ATOM     45  C   UNL A   1      47.275 -16.141 -37.735  0.00  0.00    -0.024 C 
ENDBRANCH  29  31
ENDBRANCH  28  29
ENDBRANCH  27  28
ENDBRANCH  26  27
ENDBRANCH   3  26
TORSDOF 10
ENDMDL
MODEL 16
REMARK VINA RESULT:    -6.364     18.718     22.295
REMARK INTER + INTRA:         -14.742
REMARK INTER:                  -9.768
REMARK INTRA:                  -4.974
REMARK UNBOUND:                -4.657
REMARK  Name = cpd45.pdb
REMARK  12 active torsions:
REMARK  status: ('A' for Active; 'I' for Inactive)
REMARK    1  A    between atoms: C_1  and  C_2
REMARK    2  A    between atoms: C_6  and  N_7
REMARK    3  A    between atoms: N_7  and  C_8
REMARK    4  A    between atoms: C_13  and  C_14
REMARK    5  A    between atoms: N_16  and  C_17
REMARK    6  A    between atoms: C_17  and  C_18
REMARK    7  A    between atoms: N_20  and  C_21
REMARK    8  A    between atoms: C_21  and  C_22
REMARK    9  A    between atoms: C_22  and  C_23
REMARK   10  A    between atoms: C_23  and  N_24
REMARK   11  A    between atoms: N_24  and  C_25
REMARK   12  A    between atoms: C_40  and  C_41
REMARK                            x       y       z     vdW  Elec       q    Type
REMARK                         _______ _______ _______ _____ _____    ______ ____
ROOT
ATOM      1  C   UNL A   1      39.196 -18.271 -35.860  0.00  0.00    +0.230 C 
ATOM      2  O   UNL A   1      39.552 -17.440 -35.025  0.00  0.00    -0.274 OA
ATOM      3  N   UNL A   1      39.736 -19.536 -35.924  0.00  0.00    -0.314 N 
ATOM      4  H   UNL A   1      39.369 -20.178 -36.575  0.00  0.00    +0.000 HD
ENDROOT
BRANCH   1   5
ATOM      5  C   UNL A   1      38.265 -17.891 -37.022  0.00  0.00    +0.088 C 
BRANCH   5   8
ATOM      6  C   UNL A   1      39.826 -17.276 -38.855  0.00  0.00    +0.246 C 
ATOM      7  O   UNL A   1      40.189 -18.433 -39.047  0.00  0.00    -0.270 OA
ATOM      8  N   UNL A   1      38.783 -16.961 -38.015  0.00  0.00    -0.303 N 
ATOM      9  H   UNL A   1      38.370 -16.071 -38.089  0.00  0.00    +0.000 HD
BRANCH   6  15
ATOM     10  C   UNL A   1      41.861 -16.084 -39.838  0.00  0.00    +0.044 A 
ATOM     11  C   UNL A   1      42.357 -14.994 -40.576  0.00  0.00    -0.040 A 
ATOM     12  C   UNL A   1      41.513 -13.965 -40.997  0.00  0.00    -0.060 A 
ATOM     13  C   UNL A   1      40.151 -14.022 -40.721  0.00  0.00    -0.061 A 
ATOM     14  C   UNL A   1      39.631 -15.112 -40.024  0.00  0.00    -0.048 A 
ATOM     15  C   UNL A   1      40.474 -16.145 -39.583  0.00  0.00    +0.058 A 
BRANCH  10  16
ATOM     16  N   UNL A   1      42.708 -17.194 -39.543  0.00  0.00    -0.314 N 
ATOM     17  H   UNL A   1      42.258 -18.026 -39.270  0.00  0.00    +0.000 HD
BRANCH  16  23
ATOM     18  C   UNL A   1      47.213 -16.342 -37.472  0.00  0.00    -0.039 C 
ATOM     19  C   UNL A   1      46.326 -16.781 -38.607  0.00  0.00    -0.046 A 
ATOM     20  C   UNL A   1      46.934 -17.210 -39.796  0.00  0.00    -0.058 A 
ATOM     21  C   UNL A   1      46.167 -17.606 -40.884  0.00  0.00    -0.060 A 
ATOM     22  C   UNL A   1      44.778 -17.604 -40.789  0.00  0.00    -0.040 A 
ATOM     23  C   UNL A   1      44.131 -17.230 -39.600  0.00  0.00    +0.035 A 
ATOM     24  C   UNL A   1      44.912 -16.744 -38.518  0.00  0.00    -0.026 A 
ATOM     25  C   UNL A   1      44.239 -16.234 -37.266  0.00  0.00    -0.038 C 
ENDBRANCH  16  23
ENDBRANCH  10  16
ENDBRANCH   6  15
ENDBRANCH   5   8
ENDBRANCH   1   5
BRANCH   3  26
ATOM     26  C   UNL A   1      40.823 -19.953 -35.068  0.00  0.00    +0.013 C 
BRANCH  26  27
ATOM     27  C   UNL A   1      41.520 -21.212 -35.576  0.00  0.00    -0.022 C 
BRANCH  27  28
ATOM     28  C   UNL A   1      41.553 -21.217 -37.103  0.00  0.00    +0.011 C 
BRANCH  28  29
ATOM     29  N   UNL A   1      42.276 -20.032 -37.586  0.00  0.00    -0.343 N 
ATOM     30  H   UNL A   1      41.912 -19.117 -37.570  0.00  0.00    +0.000 HD
BRANCH  29  31
ATOM     31  C   UNL A   1      43.572 -20.370 -38.080  0.00  0.00    +0.041 A 
ATOM     32  C   UNL A   1      43.745 -20.832 -39.402  0.00  0.00    -0.005 A 
ATOM     33  C   UNL A   1      45.055 -20.998 -39.860  0.00  0.00    +0.047 A 
ATOM     34  N   UNL A   1      46.147 -20.769 -39.093  0.00  0.00    -0.251 NA
ATOM     35  C   UNL A   1      45.982 -20.347 -37.833  0.00  0.00    +0.074 A 
ATOM     36  C   UNL A   1      47.116 -20.120 -37.067  0.00  0.00    -0.017 A 
ATOM     37  C   UNL A   1      47.023 -19.682 -35.748  0.00  0.00    +0.043 A 
ATOM     38 CL   UNL A   1      48.455 -19.411 -34.832  0.00  0.00    -0.083 Cl
ATOM     39  C   UNL A   1      45.783 -19.465 -35.167  0.00  0.00    -0.043 A 
ATOM     40  C   UNL A   1      44.634 -19.690 -35.922  0.00  0.00    -0.049 A 
ATOM     41  C   UNL A   1      44.712 -20.125 -37.268  0.00  0.00    +0.022 A 
ATOM     42  C   UNL A   1      45.355 -21.494 -41.252  0.00  0.00    -0.010 C 
ATOM     43  C   UNL A   1      44.193 -21.306 -42.220  0.00  0.00    -0.047 C 
ATOM     44  C   UNL A   1      42.917 -21.846 -41.596  0.00  0.00    -0.049 C 
ATOM     45  C   UNL A   1      42.572 -21.072 -40.324  0.00  0.00    -0.024 C 
ENDBRANCH  29  31
ENDBRANCH  28  29
ENDBRANCH  27  28
ENDBRANCH  26  27
ENDBRANCH   3  26
TORSDOF 10
ENDMDL
MODEL 17
REMARK VINA RESULT:    -6.170     18.588     21.855
REMARK INTER + INTRA:         -14.434
REMARK INTER:                 -10.353
REMARK INTRA:                  -4.081
REMARK UNBOUND:                -4.657
REMARK  Name = cpd45.pdb
REMARK  12 active torsions:
REMARK  status: ('A' for Active; 'I' for Inactive)
REMARK    1  A    between atoms: C_1  and  C_2
REMARK    2  A    between atoms: C_6  and  N_7
REMARK    3  A    between atoms: N_7  and  C_8
REMARK    4  A    between atoms: C_13  and  C_14
REMARK    5  A    between atoms: N_16  and  C_17
REMARK    6  A    between atoms: C_17  and  C_18
REMARK    7  A    between atoms: N_20  and  C_21
REMARK    8  A    between atoms: C_21  and  C_22
REMARK    9  A    between atoms: C_22  and  C_23
REMARK   10  A    between atoms: C_23  and  N_24
REMARK   11  A    between atoms: N_24  and  C_25
REMARK   12  A    between atoms: C_40  and  C_41
REMARK                            x       y       z     vdW  Elec       q    Type
REMARK                         _______ _______ _______ _____ _____    ______ ____
ROOT
ATOM      1  C   UNL A   1      43.992 -14.027 -39.089  0.00  0.00    +0.230 C 
ATOM      2  O   UNL A   1      44.162 -12.825 -39.294  0.00  0.00    -0.274 OA
ATOM      3  N   UNL A   1      43.398 -14.508 -37.943  0.00  0.00    -0.314 N 
ATOM      4  H   UNL A   1      43.235 -15.475 -37.861  0.00  0.00    +0.000 HD
ENDROOT
BRANCH   1   5
ATOM      5  C   UNL A   1      44.613 -15.092 -40.006  0.00  0.00    +0.088 C 
BRANCH   5   8
ATOM      6  C   UNL A   1      43.714 -17.378 -40.376  0.00  0.00    +0.246 C 
ATOM      7  O   UNL A   1      43.423 -17.166 -41.550  0.00  0.00    -0.270 OA
ATOM      8  N   UNL A   1      44.440 -16.486 -39.623  0.00  0.00    -0.303 N 
ATOM      9  H   UNL A   1      44.859 -16.802 -38.791  0.00  0.00    +0.000 HD
BRANCH   6  15
ATOM     10  C   UNL A   1      43.957 -19.897 -40.017  0.00  0.00    +0.044 A 
ATOM     11  C   UNL A   1      43.552 -21.039 -39.304  0.00  0.00    -0.040 A 
ATOM     12  C   UNL A   1      42.520 -20.975 -38.366  0.00  0.00    -0.060 A 
ATOM     13  C   UNL A   1      41.895 -19.761 -38.097  0.00  0.00    -0.061 A 
ATOM     14  C   UNL A   1      42.307 -18.608 -38.764  0.00  0.00    -0.048 A 
ATOM     15  C   UNL A   1      43.334 -18.665 -39.721  0.00  0.00    +0.058 A 
BRANCH  10  16
ATOM     16  N   UNL A   1      45.106 -19.950 -40.861  0.00  0.00    -0.314 N 
ATOM     17  H   UNL A   1      45.200 -19.222 -41.518  0.00  0.00    +0.000 HD
BRANCH  16  23
ATOM     18  C   UNL A   1      47.134 -24.182 -42.675  0.00  0.00    -0.039 C 
ATOM     19  C   UNL A   1      47.100 -23.021 -41.717  0.00  0.00    -0.046 A 
ATOM     20  C   UNL A   1      48.109 -22.933 -40.746  0.00  0.00    -0.058 A 
ATOM     21  C   UNL A   1      48.117 -21.896 -39.822  0.00  0.00    -0.060 A 
ATOM     22  C   UNL A   1      47.129 -20.916 -39.872  0.00  0.00    -0.040 A 
ATOM     23  C   UNL A   1      46.131 -20.940 -40.860  0.00  0.00    +0.035 A 
ATOM     24  C   UNL A   1      46.073 -22.045 -41.749  0.00  0.00    -0.026 A 
ATOM     25  C   UNL A   1      44.949 -22.153 -42.753  0.00  0.00    -0.038 C 
ENDBRANCH  16  23
ENDBRANCH  10  16
ENDBRANCH   6  15
ENDBRANCH   5   8
ENDBRANCH   1   5
BRANCH   3  26
ATOM     26  C   UNL A   1      43.007 -13.638 -36.857  0.00  0.00    +0.013 C 
BRANCH  26  27
ATOM     27  C   UNL A   1      42.105 -14.336 -35.843  0.00  0.00    -0.022 C 
BRANCH  27  28
ATOM     28  C   UNL A   1      42.237 -15.851 -35.973  0.00  0.00    +0.011 C 
BRANCH  28  29
ATOM     29  N   UNL A   1      43.101 -16.365 -34.900  0.00  0.00    -0.343 N 
ATOM     30  H   UNL A   1      43.495 -15.806 -34.192  0.00  0.00    +0.000 HD
BRANCH  29  31
ATOM     31  C   UNL A   1      43.297 -17.775 -35.011  0.00  0.00    +0.041 A 
ATOM     32  C   UNL A   1      44.441 -18.298 -35.649  0.00  0.00    -0.005 A 
ATOM     33  C   UNL A   1      44.638 -19.681 -35.586  0.00  0.00    +0.047 A 
ATOM     34  N   UNL A   1      43.776 -20.529 -34.976  0.00  0.00    -0.251 NA
ATOM     35  C   UNL A   1      42.681 -20.033 -34.386  0.00  0.00    +0.074 A 
ATOM     36  C   UNL A   1      41.813 -20.922 -33.769  0.00  0.00    -0.017 A 
ATOM     37  C   UNL A   1      40.653 -20.481 -33.136  0.00  0.00    +0.043 A 
ATOM     38 CL   UNL A   1      39.604 -21.617 -32.381  0.00  0.00    -0.083 Cl
ATOM     39  C   UNL A   1      40.338 -19.130 -33.113  0.00  0.00    -0.043 A 
ATOM     40  C   UNL A   1      41.199 -18.224 -33.729  0.00  0.00    -0.049 A 
ATOM     41  C   UNL A   1      42.387 -18.657 -34.367  0.00  0.00    +0.022 A 
ATOM     42  C   UNL A   1      45.822 -20.347 -36.239  0.00  0.00    -0.010 C 
ATOM     43  C   UNL A   1      46.980 -19.392 -36.502  0.00  0.00    -0.047 C 
ATOM     44  C   UNL A   1      46.464 -18.146 -37.203  0.00  0.00    -0.049 C 
ATOM     45  C   UNL A   1      45.463 -17.406 -36.315  0.00  0.00    -0.024 C 
ENDBRANCH  29  31
ENDBRANCH  28  29
ENDBRANCH  27  28
ENDBRANCH  26  27
ENDBRANCH   3  26
TORSDOF 10
ENDMDL
MODEL 18
REMARK VINA RESULT:    -6.116     19.058     22.673
REMARK INTER + INTRA:         -14.349
REMARK INTER:                  -9.320
REMARK INTRA:                  -5.029
REMARK UNBOUND:                -4.657
REMARK  Name = cpd45.pdb
REMARK  12 active torsions:
REMARK  status: ('A' for Active; 'I' for Inactive)
REMARK    1  A    between atoms: C_1  and  C_2
REMARK    2  A    between atoms: C_6  and  N_7
REMARK    3  A    between atoms: N_7  and  C_8
REMARK    4  A    between atoms: C_13  and  C_14
REMARK    5  A    between atoms: N_16  and  C_17
REMARK    6  A    between atoms: C_17  and  C_18
REMARK    7  A    between atoms: N_20  and  C_21
REMARK    8  A    between atoms: C_21  and  C_22
REMARK    9  A    between atoms: C_22  and  C_23
REMARK   10  A    between atoms: C_23  and  N_24
REMARK   11  A    between atoms: N_24  and  C_25
REMARK   12  A    between atoms: C_40  and  C_41
REMARK                            x       y       z     vdW  Elec       q    Type
REMARK                         _______ _______ _______ _____ _____    ______ ____
ROOT
ATOM      1  C   UNL A   1      39.653 -17.961 -35.193  0.00  0.00    +0.230 C 
ATOM      2  O   UNL A   1      40.037 -17.015 -34.505  0.00  0.00    -0.274 OA
ATOM      3  N   UNL A   1      40.290 -19.183 -35.195  0.00  0.00    -0.314 N 
ATOM      4  H   UNL A   1      39.904 -19.920 -35.720  0.00  0.00    +0.000 HD
ENDROOT
BRANCH   1   5
ATOM      5  C   UNL A   1      38.555 -17.789 -36.253  0.00  0.00    +0.088 C 
BRANCH   5   8
ATOM      6  C   UNL A   1      39.863 -17.098 -38.250  0.00  0.00    +0.246 C 
ATOM      7  O   UNL A   1      40.418 -18.187 -38.367  0.00  0.00    -0.270 OA
ATOM      8  N   UNL A   1      38.834 -16.887 -37.362  0.00  0.00    -0.303 N 
ATOM      9  H   UNL A   1      38.262 -16.095 -37.481  0.00  0.00    +0.000 HD
BRANCH   6  15
ATOM     10  C   UNL A   1      41.561 -15.754 -39.606  0.00  0.00    +0.044 A 
ATOM     11  C   UNL A   1      41.802 -14.665 -40.462  0.00  0.00    -0.040 A 
ATOM     12  C   UNL A   1      40.786 -13.762 -40.783  0.00  0.00    -0.060 A 
ATOM     13  C   UNL A   1      39.502 -13.950 -40.284  0.00  0.00    -0.061 A 
ATOM     14  C   UNL A   1      39.231 -15.045 -39.464  0.00  0.00    -0.048 A 
ATOM     15  C   UNL A   1      40.249 -15.950 -39.123  0.00  0.00    +0.058 A 
BRANCH  10  16
ATOM     16  N   UNL A   1      42.569 -16.744 -39.407  0.00  0.00    -0.314 N 
ATOM     17  H   UNL A   1      42.261 -17.679 -39.361  0.00  0.00    +0.000 HD
BRANCH  16  23
ATOM     18  C   UNL A   1      47.280 -17.223 -41.107  0.00  0.00    -0.039 C 
ATOM     19  C   UNL A   1      46.268 -16.797 -40.076  0.00  0.00    -0.046 A 
ATOM     20  C   UNL A   1      46.736 -16.194 -38.898  0.00  0.00    -0.058 A 
ATOM     21  C   UNL A   1      45.852 -15.800 -37.903  0.00  0.00    -0.060 A 
ATOM     22  C   UNL A   1      44.483 -15.978 -38.082  0.00  0.00    -0.040 A 
ATOM     23  C   UNL A   1      43.971 -16.531 -39.267  0.00  0.00    +0.035 A 
ATOM     24  C   UNL A   1      44.878 -17.012 -40.247  0.00  0.00    -0.026 A 
ATOM     25  C   UNL A   1      44.360 -17.707 -41.484  0.00  0.00    -0.038 C 
ENDBRANCH  16  23
ENDBRANCH  10  16
ENDBRANCH   6  15
ENDBRANCH   5   8
ENDBRANCH   1   5
BRANCH   3  26
ATOM     26  C   UNL A   1      41.509 -19.416 -34.453  0.00  0.00    +0.013 C 
BRANCH  26  27
ATOM     27  C   UNL A   1      42.182 -20.732 -34.830  0.00  0.00    -0.022 C 
BRANCH  27  28
ATOM     28  C   UNL A   1      42.349 -20.826 -36.345  0.00  0.00    +0.011 C 
BRANCH  28  29
ATOM     29  N   UNL A   1      42.800 -19.530 -36.873  0.00  0.00    -0.343 N 
ATOM     30  H   UNL A   1      42.258 -18.708 -36.858  0.00  0.00    +0.000 HD
BRANCH  29  31
ATOM     31  C   UNL A   1      44.120 -19.611 -37.411  0.00  0.00    +0.041 A 
ATOM     32  C   UNL A   1      45.236 -19.192 -36.656  0.00  0.00    -0.005 A 
ATOM     33  C   UNL A   1      46.504 -19.442 -37.189  0.00  0.00    +0.047 A 
ATOM     34  N   UNL A   1      46.704 -20.030 -38.392  0.00  0.00    -0.251 NA
ATOM     35  C   UNL A   1      45.643 -20.411 -39.116  0.00  0.00    +0.074 A 
ATOM     36  C   UNL A   1      45.874 -21.011 -40.346  0.00  0.00    -0.017 A 
ATOM     37  C   UNL A   1      44.821 -21.432 -41.155  0.00  0.00    +0.043 A 
ATOM     38 CL   UNL A   1      45.150 -22.173 -42.673  0.00  0.00    -0.083 Cl
ATOM     39  C   UNL A   1      43.508 -21.256 -40.744  0.00  0.00    -0.043 A 
ATOM     40  C   UNL A   1      43.259 -20.654 -39.513  0.00  0.00    -0.049 A 
ATOM     41  C   UNL A   1      44.319 -20.231 -38.674  0.00  0.00    +0.022 A 
ATOM     42  C   UNL A   1      47.764 -19.031 -36.471  0.00  0.00    -0.010 C 
ATOM     43  C   UNL A   1      47.561 -18.810 -34.977  0.00  0.00    -0.047 C 
ATOM     44  C   UNL A   1      46.359 -17.906 -34.755  0.00  0.00    -0.049 C 
ATOM     45  C   UNL A   1      45.087 -18.564 -35.290  0.00  0.00    -0.024 C 
ENDBRANCH  29  31
ENDBRANCH  28  29
ENDBRANCH  27  28
ENDBRANCH  26  27
ENDBRANCH   3  26
TORSDOF 10
ENDMDL
MODEL 19
REMARK VINA RESULT:    -6.046     17.056     20.695
REMARK INTER + INTRA:         -14.237
REMARK INTER:                 -10.757
REMARK INTRA:                  -3.480
REMARK UNBOUND:                -4.657
REMARK  Name = cpd45.pdb
REMARK  12 active torsions:
REMARK  status: ('A' for Active; 'I' for Inactive)
REMARK    1  A    between atoms: C_1  and  C_2
REMARK    2  A    between atoms: C_6  and  N_7
REMARK    3  A    between atoms: N_7  and  C_8
REMARK    4  A    between atoms: C_13  and  C_14
REMARK    5  A    between atoms: N_16  and  C_17
REMARK    6  A    between atoms: C_17  and  C_18
REMARK    7  A    between atoms: N_20  and  C_21
REMARK    8  A    between atoms: C_21  and  C_22
REMARK    9  A    between atoms: C_22  and  C_23
REMARK   10  A    between atoms: C_23  and  N_24
REMARK   11  A    between atoms: N_24  and  C_25
REMARK   12  A    between atoms: C_40  and  C_41
REMARK                            x       y       z     vdW  Elec       q    Type
REMARK                         _______ _______ _______ _____ _____    ______ ____
ROOT
ATOM      1  C   UNL A   1      41.631 -15.058 -36.212  0.00  0.00    +0.230 C 
ATOM      2  O   UNL A   1      42.090 -14.161 -35.506  0.00  0.00    -0.274 OA
ATOM      3  N   UNL A   1      40.291 -15.379 -36.228  0.00  0.00    -0.314 N 
ATOM      4  H   UNL A   1      39.974 -16.066 -36.857  0.00  0.00    +0.000 HD
ENDROOT
BRANCH   1   5
ATOM      5  C   UNL A   1      42.549 -16.024 -36.979  0.00  0.00    +0.088 C 
BRANCH   5   8
ATOM      6  C   UNL A   1      42.950 -18.410 -37.543  0.00  0.00    +0.246 C 
ATOM      7  O   UNL A   1      44.166 -18.269 -37.643  0.00  0.00    -0.270 OA
ATOM      8  N   UNL A   1      42.130 -17.416 -37.064  0.00  0.00    -0.303 N 
ATOM      9  H   UNL A   1      41.223 -17.655 -36.767  0.00  0.00    +0.000 HD
BRANCH   6  15
ATOM     10  C   UNL A   1      42.666 -20.476 -39.021  0.00  0.00    +0.044 A 
ATOM     11  C   UNL A   1      42.025 -21.711 -39.224  0.00  0.00    -0.040 A 
ATOM     12  C   UNL A   1      41.016 -22.149 -38.364  0.00  0.00    -0.060 A 
ATOM     13  C   UNL A   1      40.651 -21.379 -37.266  0.00  0.00    -0.061 A 
ATOM     14  C   UNL A   1      41.299 -20.169 -37.023  0.00  0.00    -0.048 A 
ATOM     15  C   UNL A   1      42.306 -19.711 -37.890  0.00  0.00    +0.058 A 
BRANCH  10  16
ATOM     16  N   UNL A   1      43.790 -20.113 -39.820  0.00  0.00    -0.314 N 
ATOM     17  H   UNL A   1      44.035 -19.159 -39.823  0.00  0.00    +0.000 HD
BRANCH  16  23
ATOM     18  C   UNL A   1      47.936 -22.889 -40.469  0.00  0.00    -0.039 C 
ATOM     19  C   UNL A   1      46.635 -22.299 -40.945  0.00  0.00    -0.046 A 
ATOM     20  C   UNL A   1      46.218 -22.584 -42.255  0.00  0.00    -0.058 A 
ATOM     21  C   UNL A   1      45.038 -22.050 -42.756  0.00  0.00    -0.060 A 
ATOM     22  C   UNL A   1      44.242 -21.245 -41.946  0.00  0.00    -0.040 A 
ATOM     23  C   UNL A   1      44.598 -20.977 -40.614  0.00  0.00    +0.035 A 
ATOM     24  C   UNL A   1      45.846 -21.450 -40.129  0.00  0.00    -0.026 A 
ATOM     25  C   UNL A   1      46.305 -21.089 -38.736  0.00  0.00    -0.038 C 
ENDBRANCH  16  23
ENDBRANCH  10  16
ENDBRANCH   6  15
ENDBRANCH   5   8
ENDBRANCH   1   5
BRANCH   3  26
ATOM     26  C   UNL A   1      39.338 -14.739 -35.351  0.00  0.00    +0.013 C 
BRANCH  26  27
ATOM     27  C   UNL A   1      39.240 -15.425 -33.991  0.00  0.00    -0.022 C 
BRANCH  27  28
ATOM     28  C   UNL A   1      39.550 -16.914 -34.127  0.00  0.00    +0.011 C 
BRANCH  28  29
ATOM     29  N   UNL A   1      40.230 -17.390 -32.913  0.00  0.00    -0.343 N 
ATOM     30  H   UNL A   1      40.246 -16.898 -32.060  0.00  0.00    +0.000 HD
BRANCH  29  31
ATOM     31  C   UNL A   1      40.864 -18.651 -33.125  0.00  0.00    +0.041 A 
ATOM     32  C   UNL A   1      40.127 -19.852 -33.054  0.00  0.00    -0.005 A 
ATOM     33  C   UNL A   1      40.782 -21.032 -33.420  0.00  0.00    +0.047 A 
ATOM     34  N   UNL A   1      42.080 -21.075 -33.803  0.00  0.00    -0.251 NA
ATOM     35  C   UNL A   1      42.783 -19.936 -33.853  0.00  0.00    +0.074 A 
ATOM     36  C   UNL A   1      44.112 -20.007 -34.248  0.00  0.00    -0.017 A 
ATOM     37  C   UNL A   1      44.906 -18.865 -34.323  0.00  0.00    +0.043 A 
ATOM     38 CL   UNL A   1      46.549 -18.995 -34.819  0.00  0.00    -0.083 Cl
ATOM     39  C   UNL A   1      44.382 -17.623 -33.997  0.00  0.00    -0.043 A 
ATOM     40  C   UNL A   1      43.050 -17.535 -33.597  0.00  0.00    -0.049 A 
ATOM     41  C   UNL A   1      42.226 -18.685 -33.527  0.00  0.00    +0.022 A 
ATOM     42  C   UNL A   1      40.093 -22.372 -33.375  0.00  0.00    -0.010 C 
ATOM     43  C   UNL A   1      38.573 -22.268 -33.400  0.00  0.00    -0.047 C 
ATOM     44  C   UNL A   1      38.114 -21.263 -32.356  0.00  0.00    -0.049 C 
ATOM     45  C   UNL A   1      38.666 -19.872 -32.671  0.00  0.00    -0.024 C 
ENDBRANCH  29  31
ENDBRANCH  28  29
ENDBRANCH  27  28
ENDBRANCH  26  27
ENDBRANCH   3  26
TORSDOF 10
ENDMDL
MODEL 20
REMARK VINA RESULT:    -6.043     18.011     21.481
REMARK INTER + INTRA:         -14.233
REMARK INTER:                 -10.566
REMARK INTRA:                  -3.667
REMARK UNBOUND:                -4.657
REMARK  Name = cpd45.pdb
REMARK  12 active torsions:
REMARK  status: ('A' for Active; 'I' for Inactive)
REMARK    1  A    between atoms: C_1  and  C_2
REMARK    2  A    between atoms: C_6  and  N_7
REMARK    3  A    between atoms: N_7  and  C_8
REMARK    4  A    between atoms: C_13  and  C_14
REMARK    5  A    between atoms: N_16  and  C_17
REMARK    6  A    between atoms: C_17  and  C_18
REMARK    7  A    between atoms: N_20  and  C_21
REMARK    8  A    between atoms: C_21  and  C_22
REMARK    9  A    between atoms: C_22  and  C_23
REMARK   10  A    between atoms: C_23  and  N_24
REMARK   11  A    between atoms: N_24  and  C_25
REMARK   12  A    between atoms: C_40  and  C_41
REMARK                            x       y       z     vdW  Elec       q    Type
REMARK                         _______ _______ _______ _____ _____    ______ ____
ROOT
ATOM      1  C   UNL A   1      47.317 -18.130 -35.522  0.00  0.00    +0.230 C 
ATOM      2  O   UNL A   1      48.539 -18.104 -35.380  0.00  0.00    -0.274 OA
ATOM      3  N   UNL A   1      46.634 -17.180 -36.249  0.00  0.00    -0.314 N 
ATOM      4  H   UNL A   1      45.664 -17.285 -36.377  0.00  0.00    +0.000 HD
ENDROOT
BRANCH   1   5
ATOM      5  C   UNL A   1      46.438 -19.109 -34.728  0.00  0.00    +0.088 C 
BRANCH   5   8
ATOM      6  C   UNL A   1      44.058 -18.852 -35.394  0.00  0.00    +0.246 C 
ATOM      7  O   UNL A   1      44.165 -19.587 -36.371  0.00  0.00    -0.270 OA
ATOM      8  N   UNL A   1      45.063 -18.710 -34.466  0.00  0.00    -0.303 N 
ATOM      9  H   UNL A   1      44.843 -18.323 -33.588  0.00  0.00    +0.000 HD
BRANCH   6  15
ATOM     10  C   UNL A   1      41.589 -18.746 -34.743  0.00  0.00    +0.044 A 
ATOM     11  C   UNL A   1      40.465 -17.943 -34.479  0.00  0.00    -0.040 A 
ATOM     12  C   UNL A   1      40.509 -16.559 -34.656  0.00  0.00    -0.060 A 
ATOM     13  C   UNL A   1      41.688 -15.945 -35.066  0.00  0.00    -0.061 A 
ATOM     14  C   UNL A   1      42.827 -16.716 -35.295  0.00  0.00    -0.048 A 
ATOM     15  C   UNL A   1      42.788 -18.111 -35.135  0.00  0.00    +0.058 A 
BRANCH  10  16
ATOM     16  N   UNL A   1      41.570 -20.134 -34.418  0.00  0.00    -0.314 N 
ATOM     17  H   UNL A   1      42.186 -20.426 -33.707  0.00  0.00    +0.000 HD
BRANCH  16  23
ATOM     18  C   UNL A   1      38.279 -23.920 -34.023  0.00  0.00    -0.039 C 
ATOM     19  C   UNL A   1      39.185 -23.014 -34.815  0.00  0.00    -0.046 A 
ATOM     20  C   UNL A   1      39.264 -23.205 -36.202  0.00  0.00    -0.058 A 
ATOM     21  C   UNL A   1      40.099 -22.415 -36.981  0.00  0.00    -0.060 A 
ATOM     22  C   UNL A   1      40.848 -21.403 -36.387  0.00  0.00    -0.040 A 
ATOM     23  C   UNL A   1      40.759 -21.146 -35.009  0.00  0.00    +0.035 A 
ATOM     24  C   UNL A   1      39.973 -22.008 -34.200  0.00  0.00    -0.026 A 
ATOM     25  C   UNL A   1      39.941 -21.823 -32.702  0.00  0.00    -0.038 C 
ENDBRANCH  16  23
ENDBRANCH  10  16
ENDBRANCH   6  15
ENDBRANCH   5   8
ENDBRANCH   1   5
BRANCH   3  26
ATOM     26  C   UNL A   1      47.296 -16.034 -36.831  0.00  0.00    +0.013 C 
BRANCH  26  27
ATOM     27  C   UNL A   1      46.872 -15.783 -38.275  0.00  0.00    -0.022 C 
BRANCH  27  28
ATOM     28  C   UNL A   1      47.112 -17.031 -39.121  0.00  0.00    +0.011 C 
BRANCH  28  29
ATOM     29  N   UNL A   1      46.180 -17.043 -40.259  0.00  0.00    -0.343 N 
ATOM     30  H   UNL A   1      46.163 -16.358 -40.966  0.00  0.00    +0.000 HD
BRANCH  29  31
ATOM     31  C   UNL A   1      45.305 -18.169 -40.211  0.00  0.00    +0.041 A 
ATOM     32  C   UNL A   1      45.761 -19.457 -40.564  0.00  0.00    -0.005 A 
ATOM     33  C   UNL A   1      44.891 -20.530 -40.348  0.00  0.00    +0.047 A 
ATOM     34  N   UNL A   1      43.639 -20.386 -39.852  0.00  0.00    -0.251 NA
ATOM     35  C   UNL A   1      43.201 -19.161 -39.534  0.00  0.00    +0.074 A 
ATOM     36  C   UNL A   1      41.914 -19.039 -39.028  0.00  0.00    -0.017 A 
ATOM     37  C   UNL A   1      41.389 -17.798 -38.676  0.00  0.00    +0.043 A 
ATOM     38 CL   UNL A   1      39.789 -17.691 -38.051  0.00  0.00    -0.083 Cl
ATOM     39  C   UNL A   1      42.147 -16.647 -38.829  0.00  0.00    -0.043 A 
ATOM     40  C   UNL A   1      43.441 -16.752 -39.336  0.00  0.00    -0.049 A 
ATOM     41  C   UNL A   1      43.993 -18.008 -39.688  0.00  0.00    +0.022 A 
ATOM     42  C   UNL A   1      45.272 -21.946 -40.695  0.00  0.00    -0.010 C 
ATOM     43  C   UNL A   1      46.778 -22.154 -40.803  0.00  0.00    -0.047 C 
ATOM     44  C   UNL A   1      47.379 -21.079 -41.695  0.00  0.00    -0.049 C 
ATOM     45  C   UNL A   1      47.158 -19.694 -41.087  0.00  0.00    -0.024 C 
ENDBRANCH  29  31
ENDBRANCH  28  29
ENDBRANCH  27  28
ENDBRANCH  26  27
ENDBRANCH   3  26
TORSDOF 10
ENDMDL
