REMARK  Name = cpd45.pdb
REMARK  12 active torsions:
REMARK  status: ('A' for Active; 'I' for Inactive)
REMARK    1  A    between atoms: C_1  and  C_2
REMARK    2  A    between atoms: C_6  and  N_7
REMARK    3  A    between atoms: N_7  and  C_8
REMARK    4  A    between atoms: C_13  and  C_14
REMARK    5  A    between atoms: N_16  and  C_17
REMARK    6  A    between atoms: C_17  and  C_18
REMARK    7  A    between atoms: N_20  and  C_21
REMARK    8  A    between atoms: C_21  and  C_22
REMARK    9  A    between atoms: C_22  and  C_23
REMARK   10  A    between atoms: C_23  and  N_24
REMARK   11  A    between atoms: N_24  and  C_25
REMARK   12  A    between atoms: C_40  and  C_41
REMARK                            x       y       z     vdW  Elec       q    Type
REMARK                         _______ _______ _______ _____ _____    ______ ____
ROOT
ATOM      1  C   UNL A   1       4.877   1.648   1.215  0.00  0.00    +0.230 C 
ATOM      2  O   UNL A   1       5.813   0.863   1.065  0.00  0.00    -0.274 OA
ATOM      3  N   UNL A   1       5.065   3.000   1.402  0.00  0.00    -0.314 N 
ATOM      4  H   UNL A   1       4.277   3.587   1.457  0.00  0.00    +0.000 HD
ENDROOT
BRANCH   1   5
ATOM      5  C   UNL A   1       3.436   1.150   1.408  0.00  0.00    +0.088 C 
BRANCH   5   8
ATOM      6  C   UNL A   1       1.921   3.117   1.505  0.00  0.00    +0.246 C 
ATOM      7  O   UNL A   1       2.573   3.682   2.379  0.00  0.00    -0.270 OA
ATOM      8  N   UNL A   1       2.366   1.980   0.873  0.00  0.00    -0.303 N 
ATOM      9  H   UNL A   1       1.944   1.716   0.024  0.00  0.00    +0.000 HD
BRANCH   6  15
ATOM     10  C   UNL A   1      -0.424   2.893   0.514  0.00  0.00    +0.044 A 
ATOM     11  C   UNL A   1      -1.626   3.528   0.154  0.00  0.00    -0.040 A 
ATOM     12  C   UNL A   1      -1.769   4.913   0.258  0.00  0.00    -0.060 A 
ATOM     13  C   UNL A   1      -0.727   5.687   0.757  0.00  0.00    -0.061 A 
ATOM     14  C   UNL A   1       0.460   5.075   1.157  0.00  0.00    -0.048 A 
ATOM     15  C   UNL A   1       0.620   3.684   1.042  0.00  0.00    +0.058 A 
BRANCH  10  16
ATOM     16  N   UNL A   1      -0.346   1.469   0.539  0.00  0.00    -0.314 N 
ATOM     17  H   UNL A   1       0.147   1.071   1.293  0.00  0.00    +0.000 HD
BRANCH  16  23
ATOM     18  C   UNL A   1      -2.124  -3.082  -0.661  0.00  0.00    -0.039 C 
ATOM     19  C   UNL A   1      -1.733  -1.668  -1.001  0.00  0.00    -0.046 A 
ATOM     20  C   UNL A   1      -1.887  -1.239  -2.328  0.00  0.00    -0.058 A 
ATOM     21  C   UNL A   1      -1.523   0.047  -2.705  0.00  0.00    -0.060 A 
ATOM     22  C   UNL A   1      -1.024   0.933  -1.754  0.00  0.00    -0.040 A 
ATOM     23  C   UNL A   1      -0.902   0.559  -0.406  0.00  0.00    +0.035 A 
ATOM     24  C   UNL A   1      -1.192  -0.781  -0.037  0.00  0.00    -0.026 A 
ATOM     25  C   UNL A   1      -0.969  -1.242   1.384  0.00  0.00    -0.038 C 
ENDBRANCH  16  23
ENDBRANCH  10  16
ENDBRANCH   6  15
ENDBRANCH   5   8
ENDBRANCH   1   5
BRANCH   3  26
ATOM     26  C   UNL A   1       6.382   3.584   1.520  0.00  0.00    +0.013 C 
BRANCH  26  27
ATOM     27  C   UNL A   1       7.045   3.813   0.165  0.00  0.00    -0.022 C 
BRANCH  27  28
ATOM     28  C   UNL A   1       8.433   4.422   0.352  0.00  0.00    +0.011 C 
BRANCH  28  29
ATOM     29  N   UNL A   1       9.045   4.669  -0.962  0.00  0.00    -0.343 N 
ATOM     30  H   UNL A   1       8.585   4.529  -1.821  0.00  0.00    +0.000 HD
BRANCH  29  31
ATOM     31  C   UNL A   1      10.388   5.136  -0.838  0.00  0.00    +0.041 A 
ATOM     32  C   UNL A   1      10.672   6.517  -0.779  0.00  0.00    -0.005 A 
ATOM     33  C   UNL A   1      11.991   6.892  -0.506  0.00  0.00    +0.047 A 
ATOM     34  N   UNL A   1      12.997   6.003  -0.330  0.00  0.00    -0.251 NA
ATOM     35  C   UNL A   1      12.730   4.693  -0.404  0.00  0.00    +0.074 A 
ATOM     36  C   UNL A   1      13.778   3.802  -0.221  0.00  0.00    -0.017 A 
ATOM     37  C   UNL A   1      13.577   2.425  -0.285  0.00  0.00    +0.043 A 
ATOM     38 CL   UNL A   1      14.904   1.354  -0.051  0.00  0.00    -0.083 Cl
ATOM     39  C   UNL A   1      12.314   1.912  -0.539  0.00  0.00    -0.043 A 
ATOM     40  C   UNL A   1      11.251   2.793  -0.726  0.00  0.00    -0.049 A 
ATOM     41  C   UNL A   1      11.437   4.195  -0.653  0.00  0.00    +0.022 A 
ATOM     42  C   UNL A   1      12.407   8.339  -0.427  0.00  0.00    -0.010 C 
ATOM     43  C   UNL A   1      11.242   9.286  -0.166  0.00  0.00    -0.047 C 
ATOM     44  C   UNL A   1      10.112   8.984  -1.137  0.00  0.00    -0.049 C 
ATOM     45  C   UNL A   1       9.591   7.562  -0.928  0.00  0.00    -0.024 C 
ENDBRANCH  29  31
ENDBRANCH  28  29
ENDBRANCH  27  28
ENDBRANCH  26  27
ENDBRANCH   3  26
TORSDOF 10
