REMARK  Name = cpd298.pdb
REMARK  20 active torsions:
REMARK  status: ('A' for Active; 'I' for Inactive)
REMARK    1  A    between atoms: C_1  and  C_2
REMARK    2  A    between atoms: C_2  and  N_3
REMARK    3  A    between atoms: N_3  and  C_4
REMARK    4  A    between atoms: N_3  and  C_6
REMARK    5  A    between atoms: C_4  and  C_5
REMARK    6  A    between atoms: C_6  and  C_7
REMARK    7  A    between atoms: C_7  and  C_8
REMARK    8  A    between atoms: C_8  and  O_9
REMARK    9  A    between atoms: O_9  and  C_10
REMARK   10  A    between atoms: C_10  and  C_12
REMARK   11  A    between atoms: C_12  and  C_13
REMARK   12  A    between atoms: C_13  and  C_14
REMARK   13  A    between atoms: C_13  and  C_15
REMARK   14  A    between atoms: C_15  and  C_16
REMARK   15  A    between atoms: C_16  and  C_17
REMARK   16  A    between atoms: C_18  and  C_19
REMARK   17  A    between atoms: C_19  and  O_20
REMARK   18  A    between atoms: C_24  and  C_25
REMARK   19  A    between atoms: C_24  and  C_26
REMARK   20  A    between atoms: C_30  and  C_31
REMARK                            x       y       z     vdW  Elec       q    Type
REMARK                         _______ _______ _______ _____ _____    ______ ____
ROOT
ATOM      1  C   UNL     1       2.670  -1.326   0.492  0.00  0.00    -0.046 C 
ENDROOT
BRANCH   1   2
ATOM      2  C   UNL     1       1.693  -0.105   0.857  0.00  0.00    -0.012 C 
ATOM      3  C   UNL     1       2.601   1.135   0.683  0.00  0.00    -0.045 C 
ATOM      4  C   UNL     1       2.333   1.887  -0.389  0.00  0.00    -0.082 C 
ATOM      5  C   UNL     1       1.067   1.559  -1.097  0.00  0.00    -0.031 C 
ATOM      6  C   UNL     1       0.000   1.000   0.000  0.00  0.00    -0.027 C 
ATOM      7  C   UNL     1      -1.445   1.697  -0.561  0.00  0.00    -0.031 C 
ATOM      8  C   UNL     1      -1.895   1.077  -1.908  0.00  0.00    -0.060 C 
ATOM      9  C   UNL     1      -1.353   3.239  -0.755  0.00  0.00    -0.060 C 
ATOM     10  C   UNL     1      -2.586   1.519   0.476  0.00  0.00    -0.048 C 
ATOM     11  C   UNL     1      -2.522   0.166   1.122  0.00  0.00    -0.052 C 
ATOM     12  C   UNL     1      -1.064  -0.065   1.483  0.00  0.00    -0.047 C 
ATOM     13  C   UNL     1       0.000   0.000   0.000  0.00  0.00    -0.022 C 
ATOM     14  C   UNL     1       0.000  -1.000   0.000  0.00  0.00    -0.059 C 
BRANCH   3  15
ATOM     15  C   UNL     1       3.662   1.424   1.713  0.00  0.00    +0.066 C 
BRANCH  15  16
ATOM     16  O   UNL     1       4.446   2.553   1.352  0.00  0.00    -0.391 OA
ATOM     17  H   UNL     1       4.894   2.379   0.509  0.00  0.00    +0.000 HD
ENDBRANCH  15  16
ENDBRANCH   3  15
ENDBRANCH   1   2
BRANCH   1  18
ATOM     18  C   UNL     1       2.250  -2.740   0.930  0.00  0.00    -0.049 C 
BRANCH  18  19
ATOM     19  C   UNL     1       3.385  -3.763   1.156  0.00  0.00    -0.034 C 
ATOM     20  C   UNL     1       4.414  -3.766   0.022  0.00  0.00    -0.062 C 
BRANCH  19  21
ATOM     21  C   UNL     1       2.828  -5.193   1.332  0.00  0.00    +0.048 C 
BRANCH  21  22
ATOM     22  C   UNL     1       1.564  -5.244   2.162  0.00  0.00    +0.307 C 
ATOM     23  O   UNL     1       1.514  -5.044   3.367  0.00  0.00    -0.251 OA
BRANCH  22  24
ATOM     24  O   UNL     1       0.489  -5.442   1.349  0.00  0.00    -0.465 OA
BRANCH  24  25
ATOM     25  C   UNL     1      -0.791  -5.254   1.970  0.00  0.00    +0.094 C 
BRANCH  25  26
ATOM     26  C   UNL     1      -1.861  -5.498   0.909  0.00  0.00    -0.006 C 
BRANCH  26  27
ATOM     27  C   UNL     1      -3.256  -5.129   1.418  0.00  0.00    +0.002 C 
BRANCH  27  28
ATOM     28  N   UNL     1      -4.282  -5.422   0.396  0.00  0.00    -0.303 N 
ATOM     29  H   UNL     1      -3.871  -5.266  -0.524  0.00  0.00    +0.000 HD
BRANCH  28  31
ATOM     30  C   UNL     1      -5.150  -3.152  -0.097  0.00  0.00    -0.052 C 
ATOM     31  C   UNL     1      -5.437  -4.515   0.526  0.00  0.00    -0.004 C 
ENDBRANCH  28  31
BRANCH  28  32
ATOM     32  C   UNL     1      -4.706  -6.834   0.487  0.00  0.00    -0.004 C 
ATOM     33  C   UNL     1      -5.346  -7.330  -0.806  0.00  0.00    -0.052 C 
ENDBRANCH  28  32
ENDBRANCH  27  28
ENDBRANCH  26  27
ENDBRANCH  25  26
ENDBRANCH  24  25
ENDBRANCH  22  24
ENDBRANCH  21  22
ENDBRANCH  19  21
ENDBRANCH  18  19
ENDBRANCH   1  18
TORSDOF 14
