@<TRIPOS>MOLECULE
*****
 31 32 0 0 0
SMALL
GASTEIGER

@<TRIPOS>ATOM
      1 C          -6.0622   -3.5000    0.0000 C.3     1  UNL1        0.0188
      2 C          -6.0622   -4.5000    0.0000 C.3     1  UNL1        0.0721
      3 N          -5.1962   -5.0000    0.0000 N.3     1  UNL1       -0.2726
      4 C          -5.1962   -6.0000    0.0000 C.3     1  UNL1        0.0721
      5 C          -4.3301   -6.5000    0.0000 C.3     1  UNL1        0.0188
      6 C          -4.3301   -4.5000    0.0000 C.3     1  UNL1        0.0759
      7 C          -3.4641   -5.0000    0.0000 C.3     1  UNL1        0.0647
      8 C          -2.5981   -4.5000    0.0000 C.3     1  UNL1        0.2099
      9 O          -1.7321   -5.0000    0.0000 O.3     1  UNL1       -0.4484
     10 C          -0.8660   -4.5000    0.0000 C.2     1  UNL1        0.3170
     11 O           0.0000   -5.0000    0.0000 O.2     1  UNL1       -0.2501
     12 C          -0.8660   -3.5000    0.0000 C.3     1  UNL1        0.1096
     13 C          -0.0000   -3.0000    0.0000 C.3     1  UNL1        0.0111
     14 C           0.8660   -3.5000    0.0000 C.3     1  UNL1        0.0006
     15 C          -0.0000   -2.0000    0.0000 C.3     1  UNL1        0.0009
     16 C           0.8660   -1.5000    0.0000 C.3     1  UNL1        0.0041
     17 C           0.8660   -0.5000    0.0000 C.3     1  UNL1        0.0205
     18 C           1.7321   -0.0000    0.0000 C.2     1  UNL1       -0.0162
     19 C           2.5981   -0.5000    0.0000 C.3     1  UNL1        0.2041
     20 O           3.4641   -0.0000    0.0000 O.3     1  UNL1       -0.2155
     21 C           1.7321    1.0000    0.0000 C.2     1  UNL1       -0.0321
     22 C           0.8660    1.5000    0.0000 C.3     1  UNL1        0.0255
     23 C           0.0000    1.0000    0.0000 C.3     1  UNL1        0.0046
     24 C          -0.8660    1.5000    0.0000 C.3     1  UNL1        0.0003
     25 C          -1.3660    2.3660    0.0000 C.3     1  UNL1        0.0000
     26 C          -0.3660    2.3660    0.0000 C.3     1  UNL1        0.0000
     27 C          -1.7321    1.0000    0.0000 C.3     1  UNL1        0.0000
     28 C          -1.7321    0.0000    0.0000 C.3     1  UNL1        0.0000
     29 C          -0.8660   -0.5000    0.0000 C.3     1  UNL1        0.0003
     30 C           0.0000   -0.0000    0.0000 C.3     1  UNL1        0.0038
     31 C          -0.0000   -1.0000    0.0000 C.3     1  UNL1        0.0003
@<TRIPOS>BOND
     1     1     2    1
     2     2     3    1
     3     3     4    1
     4     4     5    1
     5     3     6    1
     6     6     7    1
     7     7     8    1
     8     8     9    1
     9     9    10    1
    10    10    11    2
    11    10    12    1
    12    12    13    1
    13    13    14    1
    14    13    15    1
    15    15    16    1
    16    16    17    1
    17    17    18    1
    18    18    19    1
    19    19    20    1
    20    18    21    2
    21    21    22    1
    22    22    23    1
    23    23    24    1
    24    24    25    1
    25    24    26    1
    26    24    27    1
    27    27    28    1
    28    28    29    1
    29    29    30    1
    30    17    30    1
    31    23    30    1
    32    30    31    1
