REMARK  Name = cpd126.pdb
REMARK  29 active torsions:
REMARK  status: ('A' for Active; 'I' for Inactive)
REMARK    1  A    between atoms: C_1  and  C_2
REMARK    2  A    between atoms: C_2  and  N_3
REMARK    3  A    between atoms: N_3  and  C_4
REMARK    4  A    between atoms: N_3  and  C_6
REMARK    5  A    between atoms: N_3  and  C_8
REMARK    6  A    between atoms: C_4  and  C_5
REMARK    7  A    between atoms: C_6  and  C_7
REMARK    8  A    between atoms: C_8  and  C_9
REMARK    9  A    between atoms: C_9  and  O_10
REMARK   10  A    between atoms: O_10  and  C_11
REMARK   11  A    between atoms: C_13  and  O_14
REMARK   12  A    between atoms: O_14  and  C_15
REMARK   13  A    between atoms: C_15  and  C_16
REMARK   14  A    between atoms: C_16  and  N_17
REMARK   15  A    between atoms: N_17  and  C_18
REMARK   16  A    between atoms: N_17  and  C_20
REMARK   17  A    between atoms: N_17  and  C_22
REMARK   18  A    between atoms: C_18  and  C_19
REMARK   19  A    between atoms: C_20  and  C_21
REMARK   20  A    between atoms: C_22  and  C_23
REMARK   21  A    between atoms: C_25  and  C_26
REMARK   22  A    between atoms: N_28  and  C_29
REMARK   23  A    between atoms: C_29  and  C_30
REMARK   24  A    between atoms: C_30  and  C_31
REMARK   25  A    between atoms: C_31  and  C_32
REMARK   26  A    between atoms: C_32  and  C_33
REMARK   27  A    between atoms: C_33  and  C_34
REMARK   28  A    between atoms: N_36  and  N_37
REMARK   29  A    between atoms: N_37  and  C_38
REMARK                            x       y       z     vdW  Elec       q    Type
REMARK                         _______ _______ _______ _____ _____    ______ ____
ROOT
ATOM      1  C   UNL     1       4.790   2.439  -0.006  0.00  0.00    +0.244 C 
ATOM      2  O   UNL     1       5.430   2.891   0.935  0.00  0.00    -0.270 OA
ATOM      3  N   UNL     1       5.151   1.317  -0.723  0.00  0.00    -0.311 N 
ATOM      4  H   UNL     1       4.579   1.001  -1.459  0.00  0.00    +0.000 HD
ENDROOT
BRANCH   1   9
ATOM      5  C   UNL     1       1.182   2.968  -1.010  0.00  0.00    +0.125 A 
ATOM      6  C   UNL     1       1.072   4.348  -0.791  0.00  0.00    +0.022 A 
ATOM      7  C   UNL     1       2.171   5.106  -0.362  0.00  0.00    +0.125 A 
ATOM      8  C   UNL     1       3.391   4.475  -0.140  0.00  0.00    -0.008 A 
ATOM      9  C   UNL     1       3.522   3.108  -0.394  0.00  0.00    +0.044 A 
ATOM     10  C   UNL     1       2.433   2.370  -0.871  0.00  0.00    -0.008 A 
BRANCH   7  11
ATOM     11  O   UNL     1       1.977   6.457  -0.247  0.00  0.00    -0.494 OA
BRANCH  11  12
ATOM     12  C   UNL     1       2.654   7.100   0.843  0.00  0.00    +0.075 C 
BRANCH  12  13
ATOM     13  C   UNL     1       2.413   8.617   0.773  0.00  0.00    -0.053 C 
BRANCH  13  14
ATOM     14  N   UNL     1       3.370   9.424  -0.193  0.00  0.00    +0.382 N 
BRANCH  14  15
ATOM     15  C   UNL     1       3.150   8.942  -1.665  0.00  0.00    -0.091 C 
ATOM     16  C   UNL     1       4.136   7.892  -2.151  0.00  0.00    -0.080 C 
ENDBRANCH  14  15
BRANCH  14  17
ATOM     17  C   UNL     1       2.856  10.906  -0.116  0.00  0.00    -0.091 C 
ATOM     18  C   UNL     1       3.774  11.925  -0.781  0.00  0.00    -0.080 C 
ENDBRANCH  14  17
BRANCH  14  19
ATOM     19  C   UNL     1       4.852   9.332   0.240  0.00  0.00    -0.091 C 
ATOM     20  C   UNL     1       5.118   9.811   1.659  0.00  0.00    -0.080 C 
ENDBRANCH  14  19
ENDBRANCH  13  14
ENDBRANCH  12  13
ENDBRANCH  11  12
ENDBRANCH   7  11
BRANCH   5  21
ATOM     21  O   UNL     1       0.004   2.320  -1.285  0.00  0.00    -0.494 OA
BRANCH  21  22
ATOM     22  C   UNL     1      -0.009   0.902  -1.511  0.00  0.00    +0.075 C 
BRANCH  22  23
ATOM     23  C   UNL     1       0.000   0.000   0.000  0.00  0.00    -0.053 C 
BRANCH  23  24
ATOM     24  N   UNL     1       0.000  -1.000   0.000  0.00  0.00    +0.382 N 
BRANCH  24  26
ATOM     25  C   UNL     1      -2.376   0.069   0.046  0.00  0.00    -0.080 C 
ATOM     26  C   UNL     1      -1.000  -1.000   0.000  0.00  0.00    -0.091 C 
ENDBRANCH  24  26
BRANCH  24  27
ATOM     27  C   UNL     1       1.000  -1.000   0.000  0.00  0.00    -0.091 C 
ATOM     28  C   UNL     1       1.842  -0.840   1.484  0.00  0.00    -0.080 C 
ENDBRANCH  24  27
BRANCH  24  29
ATOM     29  C   UNL     1       0.000  -2.000   0.000  0.00  0.00    -0.091 C 
ATOM     30  C   UNL     1       0.218  -2.850  -1.469  0.00  0.00    -0.080 C 
ENDBRANCH  24  29
ENDBRANCH  23  24
ENDBRANCH  22  23
ENDBRANCH  21  22
ENDBRANCH   5  21
ENDBRANCH   1   9
BRANCH   3  31
ATOM     31  C   UNL     1       6.374   0.597  -0.396  0.00  0.00    +0.012 C 
BRANCH  31  32
ATOM     32  C   UNL     1       7.606   1.323  -0.922  0.00  0.00    -0.037 C 
BRANCH  32  33
ATOM     33  C   UNL     1       8.908   0.626  -0.521  0.00  0.00    -0.051 C 
BRANCH  33  34
ATOM     34  C   UNL     1      10.094   1.460  -0.994  0.00  0.00    -0.045 C 
BRANCH  34  35
ATOM     35  C   UNL     1      11.450   0.878  -0.600  0.00  0.00    +0.025 C 
BRANCH  35  36
ATOM     36  C   UNL     1      12.543   1.744  -1.193  0.00  0.00    +0.229 C 
ATOM     37  O   UNL     1      13.193   1.407  -2.178  0.00  0.00    -0.274 OA
ATOM     38  N   UNL     1      12.666   2.975  -0.565  0.00  0.00    -0.236 N 
ATOM     39  H   UNL     1      12.455   3.102   0.388  0.00  0.00    +0.000 HD
BRANCH  38  40
ATOM     40  N   UNL     1      13.116   4.038  -1.387  0.00  0.00    -0.264 N 
ATOM     41  H   UNL     1      13.351   3.948  -2.339  0.00  0.00    +0.000 HD
BRANCH  40  42
ATOM     42  C   UNL     1      13.182   5.255  -0.648  0.00  0.00    +0.058 A 
ATOM     43  C   UNL     1      12.007   6.029  -0.521  0.00  0.00    -0.003 A 
ATOM     44  C   UNL     1      12.075   7.190   0.245  0.00  0.00    +0.047 A 
ATOM     45  N   UNL     1      13.195   7.579   0.892  0.00  0.00    -0.251 NA
ATOM     46  C   UNL     1      14.308   6.838   0.784  0.00  0.00    +0.073 A 
ATOM     47  C   UNL     1      15.446   7.272   1.452  0.00  0.00    -0.036 A 
ATOM     48  C   UNL     1      16.645   6.559   1.411  0.00  0.00    -0.060 A 
ATOM     49  C   UNL     1      16.713   5.375   0.692  0.00  0.00    -0.061 A 
ATOM     50  C   UNL     1      15.585   4.919   0.012  0.00  0.00    -0.051 A 
ATOM     51  C   UNL     1      14.366   5.645   0.035  0.00  0.00    +0.023 A 
ATOM     52  C   UNL     1      10.870   8.067   0.469  0.00  0.00    -0.010 C 
ATOM     53  C   UNL     1       9.766   7.865  -0.563  0.00  0.00    -0.047 C 
ATOM     54  C   UNL     1       9.500   6.380  -0.759  0.00  0.00    -0.049 C 
ATOM     55  C   UNL     1      10.752   5.683  -1.288  0.00  0.00    -0.024 C 
ENDBRANCH  40  42
ENDBRANCH  38  40
ENDBRANCH  35  36
ENDBRANCH  34  35
ENDBRANCH  33  34
ENDBRANCH  32  33
ENDBRANCH  31  32
ENDBRANCH   3  31
TORSDOF 23
