MODEL 1
REMARK VINA RESULT:    -7.715      0.000      0.000
REMARK INTER + INTRA:         -11.218
REMARK INTER:                 -16.510
REMARK INTRA:                   5.292
REMARK UNBOUND:                 5.292
REMARK  Name = cpd126.pdb
REMARK  29 active torsions:
REMARK  status: ('A' for Active; 'I' for Inactive)
REMARK    1  A    between atoms: C_1  and  C_2
REMARK    2  A    between atoms: C_2  and  N_3
REMARK    3  A    between atoms: N_3  and  C_4
REMARK    4  A    between atoms: N_3  and  C_6
REMARK    5  A    between atoms: N_3  and  C_8
REMARK    6  A    between atoms: C_4  and  C_5
REMARK    7  A    between atoms: C_6  and  C_7
REMARK    8  A    between atoms: C_8  and  C_9
REMARK    9  A    between atoms: C_9  and  O_10
REMARK   10  A    between atoms: O_10  and  C_11
REMARK   11  A    between atoms: C_13  and  O_14
REMARK   12  A    between atoms: O_14  and  C_15
REMARK   13  A    between atoms: C_15  and  C_16
REMARK   14  A    between atoms: C_16  and  N_17
REMARK   15  A    between atoms: N_17  and  C_18
REMARK   16  A    between atoms: N_17  and  C_20
REMARK   17  A    between atoms: N_17  and  C_22
REMARK   18  A    between atoms: C_18  and  C_19
REMARK   19  A    between atoms: C_20  and  C_21
REMARK   20  A    between atoms: C_22  and  C_23
REMARK   21  A    between atoms: C_25  and  C_26
REMARK   22  A    between atoms: N_28  and  C_29
REMARK   23  A    between atoms: C_29  and  C_30
REMARK   24  A    between atoms: C_30  and  C_31
REMARK   25  A    between atoms: C_31  and  C_32
REMARK   26  A    between atoms: C_32  and  C_33
REMARK   27  A    between atoms: C_33  and  C_34
REMARK   28  A    between atoms: N_36  and  N_37
REMARK   29  A    between atoms: N_37  and  C_38
REMARK                            x       y       z     vdW  Elec       q    Type
REMARK                         _______ _______ _______ _____ _____    ______ ____
ROOT
ATOM      1  C   UNL     1      33.021 -39.233 -28.249  0.00  0.00    +0.244 C 
ATOM      2  O   UNL     1      33.624 -40.248 -27.925  0.00  0.00    -0.270 OA
ATOM      3  N   UNL     1      32.433 -39.039 -29.482  0.00  0.00    -0.311 N 
ATOM      4  H   UNL     1      31.950 -38.202 -29.668  0.00  0.00    +0.000 HD
ENDROOT
BRANCH   1   9
ATOM      5  C   UNL     1      33.499 -37.135 -25.138  0.00  0.00    +0.125 A 
ATOM      6  C   UNL     1      32.854 -35.958 -25.542  0.00  0.00    +0.022 A 
ATOM      7  C   UNL     1      32.233 -35.862 -26.795  0.00  0.00    +0.125 A 
ATOM      8  C   UNL     1      32.267 -36.952 -27.659  0.00  0.00    -0.008 A 
ATOM      9  C   UNL     1      32.871 -38.143 -27.251  0.00  0.00    +0.044 A 
ATOM     10  C   UNL     1      33.443 -38.246 -25.978  0.00  0.00    -0.008 A 
BRANCH   7  11
ATOM     11  O   UNL     1      31.570 -34.694 -27.063  0.00  0.00    -0.494 OA
BRANCH  11  12
ATOM     12  C   UNL     1      30.905 -34.624 -28.334  0.00  0.00    +0.075 C 
BRANCH  12  13
ATOM     13  C   UNL     1      31.299 -33.321 -29.048  0.00  0.00    -0.053 C 
BRANCH  13  14
ATOM     14  N   UNL     1      31.466 -33.417 -30.617  0.00  0.00    +0.382 N 
BRANCH  14  15
ATOM     15  C   UNL     1      31.748 -34.902 -31.020  0.00  0.00    -0.091 C 
ATOM     16  C   UNL     1      32.218 -35.100 -32.452  0.00  0.00    -0.080 C 
ENDBRANCH  14  15
BRANCH  14  17
ATOM     17  C   UNL     1      30.051 -33.050 -31.191  0.00  0.00    -0.091 C 
ATOM     18  C   UNL     1      29.875 -31.575 -31.533  0.00  0.00    -0.080 C 
ENDBRANCH  14  17
BRANCH  14  19
ATOM     19  C   UNL     1      32.546 -32.448 -31.152  0.00  0.00    -0.091 C 
ATOM     20  C   UNL     1      33.263 -31.655 -30.070  0.00  0.00    -0.080 C 
ENDBRANCH  14  19
ENDBRANCH  13  14
ENDBRANCH  12  13
ENDBRANCH  11  12
ENDBRANCH   7  11
BRANCH   5  21
ATOM     21  O   UNL     1      34.190 -37.052 -23.956  0.00  0.00    -0.494 OA
BRANCH  21  22
ATOM     22  C   UNL     1      33.486 -36.984 -22.706  0.00  0.00    +0.075 C 
BRANCH  22  23
ATOM     23  C   UNL     1      33.617 -38.486 -21.800  0.00  0.00    -0.053 C 
BRANCH  23  24
ATOM     24  N   UNL     1      32.931 -39.207 -21.899  0.00  0.00    +0.382 N 
BRANCH  24  26
ATOM     25  C   UNL     1      31.803 -38.280 -19.741  0.00  0.00    -0.080 C 
ATOM     26  C   UNL     1      32.280 -38.659 -21.374  0.00  0.00    -0.091 C 
ENDBRANCH  24  26
BRANCH  24  27
ATOM     27  C   UNL     1      33.582 -39.755 -22.424  0.00  0.00    -0.091 C 
ATOM     28  C   UNL     1      34.672 -40.788 -21.599  0.00  0.00    -0.080 C 
ENDBRANCH  24  27
BRANCH  24  29
ATOM     29  C   UNL     1      32.244 -39.927 -21.998  0.00  0.00    -0.091 C 
ATOM     30  C   UNL     1      31.340 -40.046 -23.446  0.00  0.00    -0.080 C 
ENDBRANCH  24  29
ENDBRANCH  23  24
ENDBRANCH  22  23
ENDBRANCH  21  22
ENDBRANCH   5  21
ENDBRANCH   1   9
BRANCH   3  31
ATOM     31  C   UNL     1      32.524 -40.066 -30.510  0.00  0.00    +0.012 C 
BRANCH  31  32
ATOM     32  C   UNL     1      33.615 -39.745 -31.524  0.00  0.00    -0.037 C 
BRANCH  32  33
ATOM     33  C   UNL     1      34.773 -40.745 -31.470  0.00  0.00    -0.051 C 
BRANCH  33  34
ATOM     34  C   UNL     1      35.865 -40.203 -30.553  0.00  0.00    -0.045 C 
BRANCH  34  35
ATOM     35  C   UNL     1      36.347 -41.210 -29.510  0.00  0.00    +0.025 C 
BRANCH  35  36
ATOM     36  C   UNL     1      37.173 -40.479 -28.472  0.00  0.00    +0.229 C 
ATOM     37  O   UNL     1      38.173 -40.969 -27.957  0.00  0.00    -0.274 OA
ATOM     38  N   UNL     1      36.734 -39.184 -28.236  0.00  0.00    -0.236 N 
ATOM     39  H   UNL     1      35.788 -38.926 -28.326  0.00  0.00    +0.000 HD
BRANCH  38  40
ATOM     40  N   UNL     1      37.737 -38.257 -27.858  0.00  0.00    -0.264 N 
ATOM     41  H   UNL     1      38.151 -38.215 -26.965  0.00  0.00    +0.000 HD
BRANCH  40  42
ATOM     42  C   UNL     1      38.065 -37.396 -28.945  0.00  0.00    +0.058 A 
ATOM     43  C   UNL     1      39.339 -37.522 -29.542  0.00  0.00    -0.003 A 
ATOM     44  C   UNL     1      39.627 -36.708 -30.634  0.00  0.00    +0.047 A 
ATOM     45  N   UNL     1      38.735 -35.841 -31.160  0.00  0.00    -0.251 NA
ATOM     46  C   UNL     1      37.519 -35.730 -30.603  0.00  0.00    +0.073 A 
ATOM     47  C   UNL     1      36.629 -34.821 -31.161  0.00  0.00    -0.036 A 
ATOM     48  C   UNL     1      35.338 -34.647 -30.660  0.00  0.00    -0.060 A 
ATOM     49  C   UNL     1      34.916 -35.406 -29.578  0.00  0.00    -0.061 A 
ATOM     50  C   UNL     1      35.791 -36.324 -29.000  0.00  0.00    -0.051 A 
ATOM     51  C   UNL     1      37.111 -36.496 -29.493  0.00  0.00    +0.023 A 
ATOM     52  C   UNL     1      40.945 -36.789 -31.361  0.00  0.00    -0.010 C 
ATOM     53  C   UNL     1      42.057 -37.434 -30.542  0.00  0.00    -0.047 C 
ATOM     54  C   UNL     1      41.555 -38.718 -29.899  0.00  0.00    -0.049 C 
ATOM     55  C   UNL     1      40.401 -38.416 -28.945  0.00  0.00    -0.024 C 
ENDBRANCH  40  42
ENDBRANCH  38  40
ENDBRANCH  35  36
ENDBRANCH  34  35
ENDBRANCH  33  34
ENDBRANCH  32  33
ENDBRANCH  31  32
ENDBRANCH   3  31
TORSDOF 23
ENDMDL
MODEL 2
REMARK VINA RESULT:    -7.688      1.144      7.066
REMARK INTER + INTRA:         -11.160
REMARK INTER:                 -16.674
REMARK INTRA:                   5.514
REMARK UNBOUND:                 5.292
REMARK  Name = cpd126.pdb
REMARK  29 active torsions:
REMARK  status: ('A' for Active; 'I' for Inactive)
REMARK    1  A    between atoms: C_1  and  C_2
REMARK    2  A    between atoms: C_2  and  N_3
REMARK    3  A    between atoms: N_3  and  C_4
REMARK    4  A    between atoms: N_3  and  C_6
REMARK    5  A    between atoms: N_3  and  C_8
REMARK    6  A    between atoms: C_4  and  C_5
REMARK    7  A    between atoms: C_6  and  C_7
REMARK    8  A    between atoms: C_8  and  C_9
REMARK    9  A    between atoms: C_9  and  O_10
REMARK   10  A    between atoms: O_10  and  C_11
REMARK   11  A    between atoms: C_13  and  O_14
REMARK   12  A    between atoms: O_14  and  C_15
REMARK   13  A    between atoms: C_15  and  C_16
REMARK   14  A    between atoms: C_16  and  N_17
REMARK   15  A    between atoms: N_17  and  C_18
REMARK   16  A    between atoms: N_17  and  C_20
REMARK   17  A    between atoms: N_17  and  C_22
REMARK   18  A    between atoms: C_18  and  C_19
REMARK   19  A    between atoms: C_20  and  C_21
REMARK   20  A    between atoms: C_22  and  C_23
REMARK   21  A    between atoms: C_25  and  C_26
REMARK   22  A    between atoms: N_28  and  C_29
REMARK   23  A    between atoms: C_29  and  C_30
REMARK   24  A    between atoms: C_30  and  C_31
REMARK   25  A    between atoms: C_31  and  C_32
REMARK   26  A    between atoms: C_32  and  C_33
REMARK   27  A    between atoms: C_33  and  C_34
REMARK   28  A    between atoms: N_36  and  N_37
REMARK   29  A    between atoms: N_37  and  C_38
REMARK                            x       y       z     vdW  Elec       q    Type
REMARK                         _______ _______ _______ _____ _____    ______ ____
ROOT
ATOM      1  C   UNL     1      32.802 -38.938 -28.844  0.00  0.00    +0.244 C 
ATOM      2  O   UNL     1      33.483 -39.726 -28.201  0.00  0.00    -0.270 OA
ATOM      3  N   UNL     1      32.376 -39.155 -30.138  0.00  0.00    -0.311 N 
ATOM      4  H   UNL     1      31.816 -38.483 -30.589  0.00  0.00    +0.000 HD
ENDROOT
BRANCH   1   9
ATOM      5  C   UNL     1      30.867 -35.773 -28.104  0.00  0.00    +0.125 A 
ATOM      6  C   UNL     1      31.333 -35.504 -26.810  0.00  0.00    +0.022 A 
ATOM      7  C   UNL     1      32.297 -36.319 -26.200  0.00  0.00    +0.125 A 
ATOM      8  C   UNL     1      32.794 -37.421 -26.889  0.00  0.00    -0.008 A 
ATOM      9  C   UNL     1      32.367 -37.675 -28.194  0.00  0.00    +0.044 A 
ATOM     10  C   UNL     1      31.442 -36.826 -28.813  0.00  0.00    -0.008 A 
BRANCH   7  11
ATOM     11  O   UNL     1      32.737 -35.929 -24.963  0.00  0.00    -0.494 OA
BRANCH  11  12
ATOM     12  C   UNL     1      33.613 -36.844 -24.289  0.00  0.00    +0.075 C 
BRANCH  12  13
ATOM     13  C   UNL     1      33.155 -37.012 -22.830  0.00  0.00    -0.053 C 
BRANCH  13  14
ATOM     14  N   UNL     1      32.719 -38.471 -22.407  0.00  0.00    +0.382 N 
BRANCH  14  15
ATOM     15  C   UNL     1      32.839 -39.428 -23.639  0.00  0.00    -0.091 C 
ATOM     16  C   UNL     1      33.830 -40.568 -23.473  0.00  0.00    -0.080 C 
ENDBRANCH  14  15
BRANCH  14  17
ATOM     17  C   UNL     1      33.805 -38.926 -21.368  0.00  0.00    -0.091 C 
ATOM     18  C   UNL     1      34.677 -37.796 -20.836  0.00  0.00    -0.080 C 
ENDBRANCH  14  17
BRANCH  14  19
ATOM     19  C   UNL     1      31.307 -38.500 -21.777  0.00  0.00    -0.091 C 
ATOM     20  C   UNL     1      31.290 -38.865 -20.300  0.00  0.00    -0.080 C 
ENDBRANCH  14  19
ENDBRANCH  13  14
ENDBRANCH  12  13
ENDBRANCH  11  12
ENDBRANCH   7  11
BRANCH   5  21
ATOM     21  O   UNL     1      29.822 -34.991 -28.528  0.00  0.00    -0.494 OA
BRANCH  21  22
ATOM     22  C   UNL     1      29.976 -34.125 -29.663  0.00  0.00    +0.075 C 
BRANCH  22  23
ATOM     23  C   UNL     1      30.382 -32.482 -29.180  0.00  0.00    -0.053 C 
BRANCH  23  24
ATOM     24  N   UNL     1      30.239 -31.714 -29.804  0.00  0.00    +0.382 N 
BRANCH  24  26
ATOM     25  C   UNL     1      32.809 -31.475 -30.163  0.00  0.00    -0.080 C 
ATOM     26  C   UNL     1      31.120 -31.902 -30.237  0.00  0.00    -0.091 C 
ENDBRANCH  24  26
BRANCH  24  27
ATOM     27  C   UNL     1      29.357 -31.526 -29.371  0.00  0.00    -0.091 C 
ATOM     28  C   UNL     1      29.289 -30.472 -28.022  0.00  0.00    -0.080 C 
ENDBRANCH  24  27
BRANCH  24  29
ATOM     29  C   UNL     1      30.096 -30.946 -30.429  0.00  0.00    -0.091 C 
ATOM     30  C   UNL     1      29.355 -31.213 -31.948  0.00  0.00    -0.080 C 
ENDBRANCH  24  29
ENDBRANCH  23  24
ENDBRANCH  22  23
ENDBRANCH  21  22
ENDBRANCH   5  21
ENDBRANCH   1   9
BRANCH   3  31
ATOM     31  C   UNL     1      32.749 -40.375 -30.840  0.00  0.00    +0.012 C 
BRANCH  31  32
ATOM     32  C   UNL     1      33.834 -40.112 -31.877  0.00  0.00    -0.037 C 
BRANCH  32  33
ATOM     33  C   UNL     1      35.075 -40.980 -31.654  0.00  0.00    -0.051 C 
BRANCH  33  34
ATOM     34  C   UNL     1      36.013 -40.279 -30.677  0.00  0.00    -0.045 C 
BRANCH  34  35
ATOM     35  C   UNL     1      36.447 -41.158 -29.506  0.00  0.00    +0.025 C 
BRANCH  35  36
ATOM     36  C   UNL     1      37.231 -40.309 -28.525  0.00  0.00    +0.229 C 
ATOM     37  O   UNL     1      38.280 -40.688 -28.013  0.00  0.00    -0.274 OA
ATOM     38  N   UNL     1      36.688 -39.046 -28.340  0.00  0.00    -0.236 N 
ATOM     39  H   UNL     1      35.722 -38.873 -28.417  0.00  0.00    +0.000 HD
BRANCH  38  40
ATOM     40  N   UNL     1      37.616 -38.021 -28.031  0.00  0.00    -0.264 N 
ATOM     41  H   UNL     1      38.041 -37.897 -27.151  0.00  0.00    +0.000 HD
BRANCH  40  42
ATOM     42  C   UNL     1      37.853 -37.194 -29.168  0.00  0.00    +0.058 A 
ATOM     43  C   UNL     1      36.860 -36.259 -29.537  0.00  0.00    -0.003 A 
ATOM     44  C   UNL     1      37.126 -35.425 -30.620  0.00  0.00    +0.047 A 
ATOM     45  N   UNL     1      38.295 -35.450 -31.297  0.00  0.00    -0.251 NA
ATOM     46  C   UNL     1      39.244 -36.328 -30.939  0.00  0.00    +0.073 A 
ATOM     47  C   UNL     1      40.429 -36.336 -31.664  0.00  0.00    -0.036 A 
ATOM     48  C   UNL     1      41.479 -37.202 -31.355  0.00  0.00    -0.060 A 
ATOM     49  C   UNL     1      41.351 -38.080 -30.290  0.00  0.00    -0.061 A 
ATOM     50  C   UNL     1      40.171 -38.092 -29.548  0.00  0.00    -0.051 A 
ATOM     51  C   UNL     1      39.092 -37.226 -29.864  0.00  0.00    +0.023 A 
ATOM     52  C   UNL     1      36.147 -34.372 -31.072  0.00  0.00    -0.010 C 
ATOM     53  C   UNL     1      34.720 -34.621 -30.599  0.00  0.00    -0.047 C 
ATOM     54  C   UNL     1      34.714 -34.963 -29.116  0.00  0.00    -0.049 C 
ATOM     55  C   UNL     1      35.507 -36.245 -28.866  0.00  0.00    -0.024 C 
ENDBRANCH  40  42
ENDBRANCH  38  40
ENDBRANCH  35  36
ENDBRANCH  34  35
ENDBRANCH  33  34
ENDBRANCH  32  33
ENDBRANCH  31  32
ENDBRANCH   3  31
TORSDOF 23
ENDMDL
MODEL 3
REMARK VINA RESULT:    -7.160     18.353     23.431
REMARK INTER + INTRA:         -10.030
REMARK INTER:                 -14.878
REMARK INTRA:                   4.848
REMARK UNBOUND:                 5.292
REMARK  Name = cpd126.pdb
REMARK  29 active torsions:
REMARK  status: ('A' for Active; 'I' for Inactive)
REMARK    1  A    between atoms: C_1  and  C_2
REMARK    2  A    between atoms: C_2  and  N_3
REMARK    3  A    between atoms: N_3  and  C_4
REMARK    4  A    between atoms: N_3  and  C_6
REMARK    5  A    between atoms: N_3  and  C_8
REMARK    6  A    between atoms: C_4  and  C_5
REMARK    7  A    between atoms: C_6  and  C_7
REMARK    8  A    between atoms: C_8  and  C_9
REMARK    9  A    between atoms: C_9  and  O_10
REMARK   10  A    between atoms: O_10  and  C_11
REMARK   11  A    between atoms: C_13  and  O_14
REMARK   12  A    between atoms: O_14  and  C_15
REMARK   13  A    between atoms: C_15  and  C_16
REMARK   14  A    between atoms: C_16  and  N_17
REMARK   15  A    between atoms: N_17  and  C_18
REMARK   16  A    between atoms: N_17  and  C_20
REMARK   17  A    between atoms: N_17  and  C_22
REMARK   18  A    between atoms: C_18  and  C_19
REMARK   19  A    between atoms: C_20  and  C_21
REMARK   20  A    between atoms: C_22  and  C_23
REMARK   21  A    between atoms: C_25  and  C_26
REMARK   22  A    between atoms: N_28  and  C_29
REMARK   23  A    between atoms: C_29  and  C_30
REMARK   24  A    between atoms: C_30  and  C_31
REMARK   25  A    between atoms: C_31  and  C_32
REMARK   26  A    between atoms: C_32  and  C_33
REMARK   27  A    between atoms: C_33  and  C_34
REMARK   28  A    between atoms: N_36  and  N_37
REMARK   29  A    between atoms: N_37  and  C_38
REMARK                            x       y       z     vdW  Elec       q    Type
REMARK                         _______ _______ _______ _____ _____    ______ ____
ROOT
ATOM      1  C   UNL     1      44.019 -18.313 -34.387  0.00  0.00    +0.244 C 
ATOM      2  O   UNL     1      44.843 -18.166 -33.494  0.00  0.00    -0.270 OA
ATOM      3  N   UNL     1      42.667 -18.488 -34.175  0.00  0.00    -0.311 N 
ATOM      4  H   UNL     1      42.060 -18.584 -34.944  0.00  0.00    +0.000 HD
ENDROOT
BRANCH   1   9
ATOM      5  C   UNL     1      45.844 -19.173 -37.587  0.00  0.00    +0.125 A 
ATOM      6  C   UNL     1      45.100 -18.412 -38.499  0.00  0.00    +0.022 A 
ATOM      7  C   UNL     1      44.043 -17.595 -38.073  0.00  0.00    +0.125 A 
ATOM      8  C   UNL     1      43.720 -17.546 -36.720  0.00  0.00    -0.008 A 
ATOM      9  C   UNL     1      44.481 -18.269 -35.798  0.00  0.00    +0.044 A 
ATOM     10  C   UNL     1      45.566 -19.041 -36.228  0.00  0.00    -0.008 A 
BRANCH   7  11
ATOM     11  O   UNL     1      43.427 -16.838 -39.033  0.00  0.00    -0.494 OA
BRANCH  11  12
ATOM     12  C   UNL     1      44.275 -16.328 -40.073  0.00  0.00    +0.075 C 
BRANCH  12  13
ATOM     13  C   UNL     1      44.829 -14.955 -39.656  0.00  0.00    -0.053 C 
BRANCH  13  14
ATOM     14  N   UNL     1      46.243 -14.572 -40.250  0.00  0.00    +0.382 N 
BRANCH  14  15
ATOM     15  C   UNL     1      46.111 -13.275 -41.114  0.00  0.00    -0.091 C 
ATOM     16  C   UNL     1      45.204 -13.402 -42.327  0.00  0.00    -0.080 C 
ENDBRANCH  14  15
BRANCH  14  17
ATOM     17  C   UNL     1      47.113 -14.200 -38.997  0.00  0.00    -0.091 C 
ATOM     18  C   UNL     1      47.205 -15.299 -37.945  0.00  0.00    -0.080 C 
ENDBRANCH  14  17
BRANCH  14  19
ATOM     19  C   UNL     1      46.883 -15.740 -41.037  0.00  0.00    -0.091 C 
ATOM     20  C   UNL     1      48.239 -15.414 -41.644  0.00  0.00    -0.080 C 
ENDBRANCH  14  19
ENDBRANCH  13  14
ENDBRANCH  12  13
ENDBRANCH  11  12
ENDBRANCH   7  11
BRANCH   5  21
ATOM     21  O   UNL     1      46.751 -20.039 -38.144  0.00  0.00    -0.494 OA
BRANCH  21  22
ATOM     22  C   UNL     1      46.306 -21.251 -38.773  0.00  0.00    +0.075 C 
BRANCH  22  23
ATOM     23  C   UNL     1      47.116 -21.524 -40.311  0.00  0.00    -0.053 C 
BRANCH  23  24
ATOM     24  N   UNL     1      46.590 -21.621 -41.156  0.00  0.00    +0.382 N 
BRANCH  24  26
ATOM     25  C   UNL     1      47.589 -19.315 -41.844  0.00  0.00    -0.080 C 
ATOM     26  C   UNL     1      46.595 -20.628 -41.273  0.00  0.00    -0.091 C 
ENDBRANCH  24  26
BRANCH  24  27
ATOM     27  C   UNL     1      46.586 -22.615 -41.039  0.00  0.00    -0.091 C 
ATOM     28  C   UNL     1      48.013 -23.507 -41.359  0.00  0.00    -0.080 C 
ENDBRANCH  24  27
BRANCH  24  29
ATOM     29  C   UNL     1      46.065 -21.718 -42.002  0.00  0.00    -0.091 C 
ATOM     30  C   UNL     1      44.365 -21.532 -41.973  0.00  0.00    -0.080 C 
ENDBRANCH  24  29
ENDBRANCH  23  24
ENDBRANCH  22  23
ENDBRANCH  21  22
ENDBRANCH   5  21
ENDBRANCH   1   9
BRANCH   3  31
ATOM     31  C   UNL     1      42.134 -18.530 -32.821  0.00  0.00    +0.012 C 
BRANCH  31  32
ATOM     32  C   UNL     1      40.644 -18.846 -32.818  0.00  0.00    -0.037 C 
BRANCH  32  33
ATOM     33  C   UNL     1      40.337 -20.197 -32.168  0.00  0.00    -0.051 C 
BRANCH  33  34
ATOM     34  C   UNL     1      41.454 -21.182 -32.498  0.00  0.00    -0.045 C 
BRANCH  34  35
ATOM     35  C   UNL     1      41.184 -22.603 -32.008  0.00  0.00    +0.025 C 
BRANCH  35  36
ATOM     36  C   UNL     1      40.343 -23.324 -33.043  0.00  0.00    +0.229 C 
ATOM     37  O   UNL     1      39.366 -24.004 -32.744  0.00  0.00    -0.274 OA
ATOM     38  N   UNL     1      40.740 -23.064 -34.347  0.00  0.00    -0.236 N 
ATOM     39  H   UNL     1      41.675 -22.866 -34.582  0.00  0.00    +0.000 HD
BRANCH  38  40
ATOM     40  N   UNL     1      39.709 -23.103 -35.318  0.00  0.00    -0.264 N 
ATOM     41  H   UNL     1      39.185 -23.905 -35.546  0.00  0.00    +0.000 HD
BRANCH  40  42
ATOM     42  C   UNL     1      39.534 -21.823 -35.921  0.00  0.00    +0.058 A 
ATOM     43  C   UNL     1      38.563 -20.952 -35.379  0.00  0.00    -0.003 A 
ATOM     44  C   UNL     1      38.438 -19.687 -35.947  0.00  0.00    +0.047 A 
ATOM     45  N   UNL     1      39.223 -19.254 -36.957  0.00  0.00    -0.251 NA
ATOM     46  C   UNL     1      40.155 -20.075 -37.464  0.00  0.00    +0.073 A 
ATOM     47  C   UNL     1      40.937 -19.604 -38.511  0.00  0.00    -0.036 A 
ATOM     48  C   UNL     1      41.942 -20.380 -39.091  0.00  0.00    -0.060 A 
ATOM     49  C   UNL     1      42.181 -21.659 -38.612  0.00  0.00    -0.061 A 
ATOM     50  C   UNL     1      41.409 -22.155 -37.564  0.00  0.00    -0.051 A 
ATOM     51  C   UNL     1      40.375 -21.380 -36.977  0.00  0.00    +0.023 A 
ATOM     52  C   UNL     1      37.456 -18.672 -35.421  0.00  0.00    -0.010 C 
ATOM     53  C   UNL     1      36.328 -19.283 -34.596  0.00  0.00    -0.047 C 
ATOM     54  C   UNL     1      36.895 -20.268 -33.585  0.00  0.00    -0.049 C 
ATOM     55  C   UNL     1      37.606 -21.413 -34.304  0.00  0.00    -0.024 C 
ENDBRANCH  40  42
ENDBRANCH  38  40
ENDBRANCH  35  36
ENDBRANCH  34  35
ENDBRANCH  33  34
ENDBRANCH  32  33
ENDBRANCH  31  32
ENDBRANCH   3  31
TORSDOF 23
ENDMDL
MODEL 4
REMARK VINA RESULT:    -7.074     18.437     23.512
REMARK INTER + INTRA:          -9.847
REMARK INTER:                 -13.364
REMARK INTRA:                   3.517
REMARK UNBOUND:                 5.292
REMARK  Name = cpd126.pdb
REMARK  29 active torsions:
REMARK  status: ('A' for Active; 'I' for Inactive)
REMARK    1  A    between atoms: C_1  and  C_2
REMARK    2  A    between atoms: C_2  and  N_3
REMARK    3  A    between atoms: N_3  and  C_4
REMARK    4  A    between atoms: N_3  and  C_6
REMARK    5  A    between atoms: N_3  and  C_8
REMARK    6  A    between atoms: C_4  and  C_5
REMARK    7  A    between atoms: C_6  and  C_7
REMARK    8  A    between atoms: C_8  and  C_9
REMARK    9  A    between atoms: C_9  and  O_10
REMARK   10  A    between atoms: O_10  and  C_11
REMARK   11  A    between atoms: C_13  and  O_14
REMARK   12  A    between atoms: O_14  and  C_15
REMARK   13  A    between atoms: C_15  and  C_16
REMARK   14  A    between atoms: C_16  and  N_17
REMARK   15  A    between atoms: N_17  and  C_18
REMARK   16  A    between atoms: N_17  and  C_20
REMARK   17  A    between atoms: N_17  and  C_22
REMARK   18  A    between atoms: C_18  and  C_19
REMARK   19  A    between atoms: C_20  and  C_21
REMARK   20  A    between atoms: C_22  and  C_23
REMARK   21  A    between atoms: C_25  and  C_26
REMARK   22  A    between atoms: N_28  and  C_29
REMARK   23  A    between atoms: C_29  and  C_30
REMARK   24  A    between atoms: C_30  and  C_31
REMARK   25  A    between atoms: C_31  and  C_32
REMARK   26  A    between atoms: C_32  and  C_33
REMARK   27  A    between atoms: C_33  and  C_34
REMARK   28  A    between atoms: N_36  and  N_37
REMARK   29  A    between atoms: N_37  and  C_38
REMARK                            x       y       z     vdW  Elec       q    Type
REMARK                         _______ _______ _______ _____ _____    ______ ____
ROOT
ATOM      1  C   UNL     1      43.224 -17.716 -34.653  0.00  0.00    +0.244 C 
ATOM      2  O   UNL     1      42.616 -16.682 -34.901  0.00  0.00    -0.270 OA
ATOM      3  N   UNL     1      42.884 -18.594 -33.645  0.00  0.00    -0.311 N 
ATOM      4  H   UNL     1      43.409 -19.416 -33.514  0.00  0.00    +0.000 HD
ENDROOT
BRANCH   1   9
ATOM      5  C   UNL     1      45.514 -19.686 -36.930  0.00  0.00    +0.125 A 
ATOM      6  C   UNL     1      46.368 -18.660 -37.356  0.00  0.00    +0.022 A 
ATOM      7  C   UNL     1      46.228 -17.350 -36.877  0.00  0.00    +0.125 A 
ATOM      8  C   UNL     1      45.215 -17.060 -35.967  0.00  0.00    -0.008 A 
ATOM      9  C   UNL     1      44.384 -18.083 -35.505  0.00  0.00    +0.044 A 
ATOM     10  C   UNL     1      44.565 -19.397 -35.951  0.00  0.00    -0.008 A 
BRANCH   7  11
ATOM     11  O   UNL     1      47.157 -16.438 -37.301  0.00  0.00    -0.494 OA
BRANCH  11  12
ATOM     12  C   UNL     1      47.176 -16.167 -38.710  0.00  0.00    +0.075 C 
BRANCH  12  13
ATOM     13  C   UNL     1      46.139 -15.080 -39.037  0.00  0.00    -0.053 C 
BRANCH  13  14
ATOM     14  N   UNL     1      45.336 -15.274 -40.386  0.00  0.00    +0.382 N 
BRANCH  14  15
ATOM     15  C   UNL     1      45.351 -16.787 -40.786  0.00  0.00    -0.091 C 
ATOM     16  C   UNL     1      44.146 -17.251 -41.587  0.00  0.00    -0.080 C 
ENDBRANCH  14  15
BRANCH  14  17
ATOM     17  C   UNL     1      43.852 -14.913 -40.022  0.00  0.00    -0.091 C 
ATOM     18  C   UNL     1      43.526 -15.016 -38.536  0.00  0.00    -0.080 C 
ENDBRANCH  14  17
BRANCH  14  19
ATOM     19  C   UNL     1      45.864 -14.362 -41.518  0.00  0.00    -0.091 C 
ATOM     20  C   UNL     1      44.788 -13.533 -42.203  0.00  0.00    -0.080 C 
ENDBRANCH  14  19
ENDBRANCH  13  14
ENDBRANCH  12  13
ENDBRANCH  11  12
ENDBRANCH   7  11
BRANCH   5  21
ATOM     21  O   UNL     1      45.662 -20.884 -37.581  0.00  0.00    -0.494 OA
BRANCH  21  22
ATOM     22  C   UNL     1      46.643 -21.029 -38.620  0.00  0.00    +0.075 C 
BRANCH  22  23
ATOM     23  C   UNL     1      45.932 -21.643 -40.108  0.00  0.00    -0.053 C 
BRANCH  23  24
ATOM     24  N   UNL     1      46.247 -21.316 -40.999  0.00  0.00    +0.382 N 
BRANCH  24  26
ATOM     25  C   UNL     1      47.656 -23.453 -41.491  0.00  0.00    -0.080 C 
ATOM     26  C   UNL     1      47.044 -21.917 -40.938  0.00  0.00    -0.091 C 
ENDBRANCH  24  26
BRANCH  24  27
ATOM     27  C   UNL     1      45.450 -20.716 -41.061  0.00  0.00    -0.091 C 
ATOM     28  C   UNL     1      44.163 -21.130 -42.114  0.00  0.00    -0.080 C 
ENDBRANCH  24  27
BRANCH  24  29
ATOM     29  C   UNL     1      46.562 -20.990 -41.891  0.00  0.00    -0.091 C 
ATOM     30  C   UNL     1      47.643 -19.666 -41.977  0.00  0.00    -0.080 C 
ENDBRANCH  24  29
ENDBRANCH  23  24
ENDBRANCH  22  23
ENDBRANCH  21  22
ENDBRANCH   5  21
ENDBRANCH   1   9
BRANCH   3  31
ATOM     31  C   UNL     1      41.751 -18.312 -32.775  0.00  0.00    +0.012 C 
BRANCH  31  32
ATOM     32  C   UNL     1      40.730 -19.443 -32.805  0.00  0.00    -0.037 C 
BRANCH  32  33
ATOM     33  C   UNL     1      41.383 -20.821 -32.678  0.00  0.00    -0.051 C 
BRANCH  33  34
ATOM     34  C   UNL     1      40.300 -21.880 -32.505  0.00  0.00    -0.045 C 
BRANCH  34  35
ATOM     35  C   UNL     1      40.621 -23.205 -33.193  0.00  0.00    +0.025 C 
BRANCH  35  36
ATOM     36  C   UNL     1      39.800 -23.306 -34.462  0.00  0.00    +0.229 C 
ATOM     37  O   UNL     1      38.700 -23.849 -34.498  0.00  0.00    -0.274 OA
ATOM     38  N   UNL     1      40.379 -22.653 -35.541  0.00  0.00    -0.236 N 
ATOM     39  H   UNL     1      41.354 -22.563 -35.638  0.00  0.00    +0.000 HD
BRANCH  38  40
ATOM     40  N   UNL     1      39.473 -22.124 -36.493  0.00  0.00    -0.264 N 
ATOM     41  H   UNL     1      38.848 -22.664 -37.031  0.00  0.00    +0.000 HD
BRANCH  40  42
ATOM     42  C   UNL     1      39.588 -20.706 -36.567  0.00  0.00    +0.058 A 
ATOM     43  C   UNL     1      38.753 -19.919 -35.743  0.00  0.00    -0.003 A 
ATOM     44  C   UNL     1      38.911 -18.537 -35.790  0.00  0.00    +0.047 A 
ATOM     45  N   UNL     1      39.844 -17.930 -36.555  0.00  0.00    -0.251 NA
ATOM     46  C   UNL     1      40.648 -18.675 -37.328  0.00  0.00    +0.073 A 
ATOM     47  C   UNL     1      41.589 -18.020 -38.111  0.00  0.00    -0.036 A 
ATOM     48  C   UNL     1      42.478 -18.712 -38.935  0.00  0.00    -0.060 A 
ATOM     49  C   UNL     1      42.437 -20.098 -38.974  0.00  0.00    -0.061 A 
ATOM     50  C   UNL     1      41.501 -20.779 -38.198  0.00  0.00    -0.051 A 
ATOM     51  C   UNL     1      40.582 -20.083 -37.370  0.00  0.00    +0.023 A 
ATOM     52  C   UNL     1      38.092 -17.612 -34.927  0.00  0.00    -0.010 C 
ATOM     53  C   UNL     1      36.806 -18.242 -34.404  0.00  0.00    -0.047 C 
ATOM     54  C   UNL     1      37.095 -19.625 -33.838  0.00  0.00    -0.049 C 
ATOM     55  C   UNL     1      37.640 -20.541 -34.931  0.00  0.00    -0.024 C 
ENDBRANCH  40  42
ENDBRANCH  38  40
ENDBRANCH  35  36
ENDBRANCH  34  35
ENDBRANCH  33  34
ENDBRANCH  32  33
ENDBRANCH  31  32
ENDBRANCH   3  31
TORSDOF 23
ENDMDL
MODEL 5
REMARK VINA RESULT:    -7.038     18.256     23.414
REMARK INTER + INTRA:          -9.770
REMARK INTER:                 -14.434
REMARK INTRA:                   4.664
REMARK UNBOUND:                 5.292
REMARK  Name = cpd126.pdb
REMARK  29 active torsions:
REMARK  status: ('A' for Active; 'I' for Inactive)
REMARK    1  A    between atoms: C_1  and  C_2
REMARK    2  A    between atoms: C_2  and  N_3
REMARK    3  A    between atoms: N_3  and  C_4
REMARK    4  A    between atoms: N_3  and  C_6
REMARK    5  A    between atoms: N_3  and  C_8
REMARK    6  A    between atoms: C_4  and  C_5
REMARK    7  A    between atoms: C_6  and  C_7
REMARK    8  A    between atoms: C_8  and  C_9
REMARK    9  A    between atoms: C_9  and  O_10
REMARK   10  A    between atoms: O_10  and  C_11
REMARK   11  A    between atoms: C_13  and  O_14
REMARK   12  A    between atoms: O_14  and  C_15
REMARK   13  A    between atoms: C_15  and  C_16
REMARK   14  A    between atoms: C_16  and  N_17
REMARK   15  A    between atoms: N_17  and  C_18
REMARK   16  A    between atoms: N_17  and  C_20
REMARK   17  A    between atoms: N_17  and  C_22
REMARK   18  A    between atoms: C_18  and  C_19
REMARK   19  A    between atoms: C_20  and  C_21
REMARK   20  A    between atoms: C_22  and  C_23
REMARK   21  A    between atoms: C_25  and  C_26
REMARK   22  A    between atoms: N_28  and  C_29
REMARK   23  A    between atoms: C_29  and  C_30
REMARK   24  A    between atoms: C_30  and  C_31
REMARK   25  A    between atoms: C_31  and  C_32
REMARK   26  A    between atoms: C_32  and  C_33
REMARK   27  A    between atoms: C_33  and  C_34
REMARK   28  A    between atoms: N_36  and  N_37
REMARK   29  A    between atoms: N_37  and  C_38
REMARK                            x       y       z     vdW  Elec       q    Type
REMARK                         _______ _______ _______ _____ _____    ______ ____
ROOT
ATOM      1  C   UNL     1      44.449 -18.954 -33.931  0.00  0.00    +0.244 C 
ATOM      2  O   UNL     1      44.866 -18.386 -32.929  0.00  0.00    -0.270 OA
ATOM      3  N   UNL     1      43.220 -19.574 -34.017  0.00  0.00    -0.311 N 
ATOM      4  H   UNL     1      42.943 -19.998 -34.861  0.00  0.00    +0.000 HD
ENDROOT
BRANCH   1   9
ATOM      5  C   UNL     1      46.052 -20.059 -37.174  0.00  0.00    +0.125 A 
ATOM      6  C   UNL     1      46.596 -18.839 -37.600  0.00  0.00    +0.022 A 
ATOM      7  C   UNL     1      46.480 -17.679 -36.820  0.00  0.00    +0.125 A 
ATOM      8  C   UNL     1      45.803 -17.737 -35.606  0.00  0.00    -0.008 A 
ATOM      9  C   UNL     1      45.292 -18.956 -35.153  0.00  0.00    +0.044 A 
ATOM     10  C   UNL     1      45.458 -20.118 -35.914  0.00  0.00    -0.008 A 
BRANCH   7  11
ATOM     11  O   UNL     1      47.108 -16.558 -37.293  0.00  0.00    -0.494 OA
BRANCH  11  12
ATOM     12  C   UNL     1      46.682 -16.092 -38.581  0.00  0.00    +0.075 C 
BRANCH  12  13
ATOM     13  C   UNL     1      45.223 -15.613 -38.496  0.00  0.00    -0.053 C 
BRANCH  13  14
ATOM     14  N   UNL     1      44.306 -15.969 -39.735  0.00  0.00    +0.382 N 
BRANCH  14  15
ATOM     15  C   UNL     1      44.055 -14.679 -40.583  0.00  0.00    -0.091 C 
ATOM     16  C   UNL     1      45.195 -14.286 -41.509  0.00  0.00    -0.080 C 
ENDBRANCH  14  15
BRANCH  14  17
ATOM     17  C   UNL     1      45.182 -16.931 -40.615  0.00  0.00    -0.091 C 
ATOM     18  C   UNL     1      44.380 -17.926 -41.446  0.00  0.00    -0.080 C 
ENDBRANCH  14  17
BRANCH  14  19
ATOM     19  C   UNL     1      42.989 -16.658 -39.309  0.00  0.00    -0.091 C 
ATOM     20  C   UNL     1      43.082 -17.427 -38.000  0.00  0.00    -0.080 C 
ENDBRANCH  14  19
ENDBRANCH  13  14
ENDBRANCH  12  13
ENDBRANCH  11  12
ENDBRANCH   7  11
BRANCH   5  21
ATOM     21  O   UNL     1      46.105 -21.079 -38.089  0.00  0.00    -0.494 OA
BRANCH  21  22
ATOM     22  C   UNL     1      47.183 -21.149 -39.036  0.00  0.00    +0.075 C 
BRANCH  22  23
ATOM     23  C   UNL     1      46.621 -20.892 -40.684  0.00  0.00    -0.053 C 
BRANCH  23  24
ATOM     24  N   UNL     1      46.801 -21.568 -41.399  0.00  0.00    +0.382 N 
BRANCH  24  26
ATOM     25  C   UNL     1      44.312 -21.580 -42.170  0.00  0.00    -0.080 C 
ATOM     26  C   UNL     1      45.840 -21.847 -41.377  0.00  0.00    -0.091 C 
ENDBRANCH  24  26
BRANCH  24  27
ATOM     27  C   UNL     1      47.761 -21.289 -41.421  0.00  0.00    -0.091 C 
ATOM     28  C   UNL     1      48.210 -19.887 -42.297  0.00  0.00    -0.080 C 
ENDBRANCH  24  27
BRANCH  24  29
ATOM     29  C   UNL     1      46.981 -22.244 -42.113  0.00  0.00    -0.091 C 
ATOM     30  C   UNL     1      47.971 -23.598 -41.772  0.00  0.00    -0.080 C 
ENDBRANCH  24  29
ENDBRANCH  23  24
ENDBRANCH  22  23
ENDBRANCH  21  22
ENDBRANCH   5  21
ENDBRANCH   1   9
BRANCH   3  31
ATOM     31  C   UNL     1      42.329 -19.605 -32.865  0.00  0.00    +0.012 C 
BRANCH  31  32
ATOM     32  C   UNL     1      41.060 -18.800 -33.120  0.00  0.00    -0.037 C 
BRANCH  32  33
ATOM     33  C   UNL     1      40.937 -18.354 -34.579  0.00  0.00    -0.051 C 
BRANCH  33  34
ATOM     34  C   UNL     1      40.307 -16.966 -34.632  0.00  0.00    -0.045 C 
BRANCH  34  35
ATOM     35  C   UNL     1      38.783 -16.987 -34.738  0.00  0.00    +0.025 C 
BRANCH  35  36
ATOM     36  C   UNL     1      38.395 -17.625 -36.056  0.00  0.00    +0.229 C 
ATOM     37  O   UNL     1      38.812 -17.217 -37.137  0.00  0.00    -0.274 OA
ATOM     38  N   UNL     1      37.602 -18.753 -35.905  0.00  0.00    -0.236 N 
ATOM     39  H   UNL     1      36.980 -18.861 -35.150  0.00  0.00    +0.000 HD
BRANCH  38  40
ATOM     40  N   UNL     1      37.747 -19.741 -36.910  0.00  0.00    -0.264 N 
ATOM     41  H   UNL     1      37.174 -19.816 -37.708  0.00  0.00    +0.000 HD
BRANCH  40  42
ATOM     42  C   UNL     1      38.835 -20.612 -36.610  0.00  0.00    +0.058 A 
ATOM     43  C   UNL     1      39.852 -20.775 -37.576  0.00  0.00    -0.003 A 
ATOM     44  C   UNL     1      40.933 -21.591 -37.249  0.00  0.00    +0.047 A 
ATOM     45  N   UNL     1      41.061 -22.193 -36.047  0.00  0.00    -0.251 NA
ATOM     46  C   UNL     1      40.102 -22.028 -35.123  0.00  0.00    +0.073 A 
ATOM     47  C   UNL     1      40.259 -22.671 -33.901  0.00  0.00    -0.036 A 
ATOM     48  C   UNL     1      39.322 -22.546 -32.874  0.00  0.00    -0.060 A 
ATOM     49  C   UNL     1      38.201 -21.752 -33.063  0.00  0.00    -0.061 A 
ATOM     50  C   UNL     1      38.020 -21.098 -34.281  0.00  0.00    -0.051 A 
ATOM     51  C   UNL     1      38.959 -21.231 -35.336  0.00  0.00    +0.023 A 
ATOM     52  C   UNL     1      42.085 -21.803 -38.196  0.00  0.00    -0.010 C 
ATOM     53  C   UNL     1      41.750 -21.480 -39.648  0.00  0.00    -0.047 C 
ATOM     54  C   UNL     1      41.037 -20.139 -39.734  0.00  0.00    -0.049 C 
ATOM     55  C   UNL     1      39.719 -20.190 -38.963  0.00  0.00    -0.024 C 
ENDBRANCH  40  42
ENDBRANCH  38  40
ENDBRANCH  35  36
ENDBRANCH  34  35
ENDBRANCH  33  34
ENDBRANCH  32  33
ENDBRANCH  31  32
ENDBRANCH   3  31
TORSDOF 23
ENDMDL
MODEL 6
REMARK VINA RESULT:    -7.031     19.077     24.044
REMARK INTER + INTRA:          -9.755
REMARK INTER:                 -14.919
REMARK INTRA:                   5.164
REMARK UNBOUND:                 5.292
REMARK  Name = cpd126.pdb
REMARK  29 active torsions:
REMARK  status: ('A' for Active; 'I' for Inactive)
REMARK    1  A    between atoms: C_1  and  C_2
REMARK    2  A    between atoms: C_2  and  N_3
REMARK    3  A    between atoms: N_3  and  C_4
REMARK    4  A    between atoms: N_3  and  C_6
REMARK    5  A    between atoms: N_3  and  C_8
REMARK    6  A    between atoms: C_4  and  C_5
REMARK    7  A    between atoms: C_6  and  C_7
REMARK    8  A    between atoms: C_8  and  C_9
REMARK    9  A    between atoms: C_9  and  O_10
REMARK   10  A    between atoms: O_10  and  C_11
REMARK   11  A    between atoms: C_13  and  O_14
REMARK   12  A    between atoms: O_14  and  C_15
REMARK   13  A    between atoms: C_15  and  C_16
REMARK   14  A    between atoms: C_16  and  N_17
REMARK   15  A    between atoms: N_17  and  C_18
REMARK   16  A    between atoms: N_17  and  C_20
REMARK   17  A    between atoms: N_17  and  C_22
REMARK   18  A    between atoms: C_18  and  C_19
REMARK   19  A    between atoms: C_20  and  C_21
REMARK   20  A    between atoms: C_22  and  C_23
REMARK   21  A    between atoms: C_25  and  C_26
REMARK   22  A    between atoms: N_28  and  C_29
REMARK   23  A    between atoms: C_29  and  C_30
REMARK   24  A    between atoms: C_30  and  C_31
REMARK   25  A    between atoms: C_31  and  C_32
REMARK   26  A    between atoms: C_32  and  C_33
REMARK   27  A    between atoms: C_33  and  C_34
REMARK   28  A    between atoms: N_36  and  N_37
REMARK   29  A    between atoms: N_37  and  C_38
REMARK                            x       y       z     vdW  Elec       q    Type
REMARK                         _______ _______ _______ _____ _____    ______ ____
ROOT
ATOM      1  C   UNL     1      45.336 -18.182 -33.784  0.00  0.00    +0.244 C 
ATOM      2  O   UNL     1      44.622 -19.070 -33.334  0.00  0.00    -0.270 OA
ATOM      3  N   UNL     1      45.636 -17.014 -33.115  0.00  0.00    -0.311 N 
ATOM      4  H   UNL     1      46.231 -16.349 -33.532  0.00  0.00    +0.000 HD
ENDROOT
BRANCH   1   9
ATOM      5  C   UNL     1      46.402 -19.780 -37.042  0.00  0.00    +0.125 A 
ATOM      6  C   UNL     1      46.813 -18.639 -37.745  0.00  0.00    +0.022 A 
ATOM      7  C   UNL     1      46.784 -17.369 -37.151  0.00  0.00    +0.125 A 
ATOM      8  C   UNL     1      46.329 -17.237 -35.843  0.00  0.00    -0.008 A 
ATOM      9  C   UNL     1      45.956 -18.372 -35.120  0.00  0.00    +0.044 A 
ATOM     10  C   UNL     1      46.037 -19.641 -35.704  0.00  0.00    -0.008 A 
BRANCH   7  11
ATOM     11  O   UNL     1      47.274 -16.331 -37.899  0.00  0.00    -0.494 OA
BRANCH  11  12
ATOM     12  C   UNL     1      46.318 -15.341 -38.304  0.00  0.00    +0.075 C 
BRANCH  12  13
ATOM     13  C   UNL     1      45.207 -16.008 -39.131  0.00  0.00    -0.053 C 
BRANCH  13  14
ATOM     14  N   UNL     1      44.370 -15.046 -40.066  0.00  0.00    +0.382 N 
BRANCH  14  15
ATOM     15  C   UNL     1      43.092 -14.563 -39.304  0.00  0.00    -0.091 C 
ATOM     16  C   UNL     1      42.214 -13.590 -40.075  0.00  0.00    -0.080 C 
ENDBRANCH  14  15
BRANCH  14  17
ATOM     17  C   UNL     1      45.287 -13.787 -40.264  0.00  0.00    -0.091 C 
ATOM     18  C   UNL     1      45.787 -13.592 -41.691  0.00  0.00    -0.080 C 
ENDBRANCH  14  17
BRANCH  14  19
ATOM     19  C   UNL     1      44.031 -15.701 -41.426  0.00  0.00    -0.091 C 
ATOM     20  C   UNL     1      43.825 -17.206 -41.360  0.00  0.00    -0.080 C 
ENDBRANCH  14  19
ENDBRANCH  13  14
ENDBRANCH  12  13
ENDBRANCH  11  12
ENDBRANCH   7  11
BRANCH   5  21
ATOM     21  O   UNL     1      46.340 -20.936 -37.780  0.00  0.00    -0.494 OA
BRANCH  21  22
ATOM     22  C   UNL     1      45.447 -21.035 -38.900  0.00  0.00    +0.075 C 
BRANCH  22  23
ATOM     23  C   UNL     1      46.291 -21.522 -40.366  0.00  0.00    -0.053 C 
BRANCH  23  24
ATOM     24  N   UNL     1      46.538 -20.849 -41.063  0.00  0.00    +0.382 N 
BRANCH  24  26
ATOM     25  C   UNL     1      44.357 -20.744 -42.485  0.00  0.00    -0.080 C 
ATOM     26  C   UNL     1      45.569 -20.671 -41.234  0.00  0.00    -0.091 C 
ENDBRANCH  24  26
BRANCH  24  27
ATOM     27  C   UNL     1      47.507 -21.026 -40.891  0.00  0.00    -0.091 C 
ATOM     28  C   UNL     1      48.278 -22.332 -41.690  0.00  0.00    -0.080 C 
ENDBRANCH  24  27
BRANCH  24  29
ATOM     29  C   UNL     1      46.785 -20.175 -41.760  0.00  0.00    -0.091 C 
ATOM     30  C   UNL     1      47.166 -18.573 -41.297  0.00  0.00    -0.080 C 
ENDBRANCH  24  29
ENDBRANCH  23  24
ENDBRANCH  22  23
ENDBRANCH  21  22
ENDBRANCH   5  21
ENDBRANCH   1   9
BRANCH   3  31
ATOM     31  C   UNL     1      45.078 -16.758 -31.794  0.00  0.00    +0.012 C 
BRANCH  31  32
ATOM     32  C   UNL     1      44.392 -15.399 -31.732  0.00  0.00    -0.037 C 
BRANCH  32  33
ATOM     33  C   UNL     1      43.530 -15.125 -32.966  0.00  0.00    -0.051 C 
BRANCH  33  34
ATOM     34  C   UNL     1      42.354 -16.097 -32.987  0.00  0.00    -0.045 C 
BRANCH  34  35
ATOM     35  C   UNL     1      41.546 -16.056 -34.282  0.00  0.00    +0.025 C 
BRANCH  35  36
ATOM     36  C   UNL     1      42.083 -17.114 -35.225  0.00  0.00    +0.229 C 
ATOM     37  O   UNL     1      42.914 -16.866 -36.094  0.00  0.00    -0.274 OA
ATOM     38  N   UNL     1      41.607 -18.387 -34.946  0.00  0.00    -0.236 N 
ATOM     39  H   UNL     1      40.718 -18.540 -34.552  0.00  0.00    +0.000 HD
BRANCH  38  40
ATOM     40  N   UNL     1      42.485 -19.452 -35.266  0.00  0.00    -0.264 N 
ATOM     41  H   UNL     1      43.467 -19.403 -35.209  0.00  0.00    +0.000 HD
BRANCH  40  42
ATOM     42  C   UNL     1      41.754 -20.602 -35.682  0.00  0.00    +0.058 A 
ATOM     43  C   UNL     1      41.166 -21.419 -34.691  0.00  0.00    -0.003 A 
ATOM     44  C   UNL     1      40.414 -22.512 -35.114  0.00  0.00    +0.047 A 
ATOM     45  N   UNL     1      40.197 -22.795 -36.417  0.00  0.00    -0.251 NA
ATOM     46  C   UNL     1      40.743 -22.012 -37.360  0.00  0.00    +0.073 A 
ATOM     47  C   UNL     1      40.511 -22.337 -38.690  0.00  0.00    -0.036 A 
ATOM     48  C   UNL     1      41.024 -21.572 -39.739  0.00  0.00    -0.060 A 
ATOM     49  C   UNL     1      41.783 -20.447 -39.457  0.00  0.00    -0.061 A 
ATOM     50  C   UNL     1      42.032 -20.100 -38.130  0.00  0.00    -0.051 A 
ATOM     51  C   UNL     1      41.527 -20.880 -37.057  0.00  0.00    +0.023 A 
ATOM     52  C   UNL     1      39.719 -23.426 -34.137  0.00  0.00    -0.010 C 
ATOM     53  C   UNL     1      40.289 -23.359 -32.725  0.00  0.00    -0.047 C 
ATOM     54  C   UNL     1      40.458 -21.908 -32.298  0.00  0.00    -0.049 C 
ATOM     55  C   UNL     1      41.443 -21.196 -33.222  0.00  0.00    -0.024 C 
ENDBRANCH  40  42
ENDBRANCH  38  40
ENDBRANCH  35  36
ENDBRANCH  34  35
ENDBRANCH  33  34
ENDBRANCH  32  33
ENDBRANCH  31  32
ENDBRANCH   3  31
TORSDOF 23
ENDMDL
MODEL 7
REMARK VINA RESULT:    -7.031     18.450     23.595
REMARK INTER + INTRA:          -9.754
REMARK INTER:                 -13.847
REMARK INTRA:                   4.093
REMARK UNBOUND:                 5.292
REMARK  Name = cpd126.pdb
REMARK  29 active torsions:
REMARK  status: ('A' for Active; 'I' for Inactive)
REMARK    1  A    between atoms: C_1  and  C_2
REMARK    2  A    between atoms: C_2  and  N_3
REMARK    3  A    between atoms: N_3  and  C_4
REMARK    4  A    between atoms: N_3  and  C_6
REMARK    5  A    between atoms: N_3  and  C_8
REMARK    6  A    between atoms: C_4  and  C_5
REMARK    7  A    between atoms: C_6  and  C_7
REMARK    8  A    between atoms: C_8  and  C_9
REMARK    9  A    between atoms: C_9  and  O_10
REMARK   10  A    between atoms: O_10  and  C_11
REMARK   11  A    between atoms: C_13  and  O_14
REMARK   12  A    between atoms: O_14  and  C_15
REMARK   13  A    between atoms: C_15  and  C_16
REMARK   14  A    between atoms: C_16  and  N_17
REMARK   15  A    between atoms: N_17  and  C_18
REMARK   16  A    between atoms: N_17  and  C_20
REMARK   17  A    between atoms: N_17  and  C_22
REMARK   18  A    between atoms: C_18  and  C_19
REMARK   19  A    between atoms: C_20  and  C_21
REMARK   20  A    between atoms: C_22  and  C_23
REMARK   21  A    between atoms: C_25  and  C_26
REMARK   22  A    between atoms: N_28  and  C_29
REMARK   23  A    between atoms: C_29  and  C_30
REMARK   24  A    between atoms: C_30  and  C_31
REMARK   25  A    between atoms: C_31  and  C_32
REMARK   26  A    between atoms: C_32  and  C_33
REMARK   27  A    between atoms: C_33  and  C_34
REMARK   28  A    between atoms: N_36  and  N_37
REMARK   29  A    between atoms: N_37  and  C_38
REMARK                            x       y       z     vdW  Elec       q    Type
REMARK                         _______ _______ _______ _____ _____    ______ ____
ROOT
ATOM      1  C   UNL     1      41.325 -17.244 -36.668  0.00  0.00    +0.244 C 
ATOM      2  O   UNL     1      40.415 -16.573 -37.138  0.00  0.00    -0.270 OA
ATOM      3  N   UNL     1      41.409 -17.618 -35.342  0.00  0.00    -0.311 N 
ATOM      4  H   UNL     1      42.163 -18.172 -35.037  0.00  0.00    +0.000 HD
ENDROOT
BRANCH   1   9
ATOM      5  C   UNL     1      43.950 -19.461 -38.249  0.00  0.00    +0.125 A 
ATOM      6  C   UNL     1      44.160 -18.766 -39.447  0.00  0.00    +0.022 A 
ATOM      7  C   UNL     1      43.488 -17.566 -39.720  0.00  0.00    +0.125 A 
ATOM      8  C   UNL     1      42.586 -17.061 -38.788  0.00  0.00    -0.008 A 
ATOM      9  C   UNL     1      42.399 -17.725 -37.573  0.00  0.00    +0.044 A 
ATOM     10  C   UNL     1      43.114 -18.894 -37.289  0.00  0.00    -0.008 A 
BRANCH   7  11
ATOM     11  O   UNL     1      43.818 -16.929 -40.887  0.00  0.00    -0.494 OA
BRANCH  11  12
ATOM     12  C   UNL     1      44.229 -15.559 -40.762  0.00  0.00    +0.075 C 
BRANCH  12  13
ATOM     13  C   UNL     1      45.758 -15.468 -40.890  0.00  0.00    -0.053 C 
BRANCH  13  14
ATOM     14  N   UNL     1      46.498 -14.651 -39.757  0.00  0.00    +0.382 N 
BRANCH  14  15
ATOM     15  C   UNL     1      46.661 -15.551 -38.488  0.00  0.00    -0.091 C 
ATOM     16  C   UNL     1      47.187 -16.951 -38.757  0.00  0.00    -0.080 C 
ENDBRANCH  14  15
BRANCH  14  17
ATOM     17  C   UNL     1      47.940 -14.398 -40.326  0.00  0.00    -0.091 C 
ATOM     18  C   UNL     1      48.193 -15.018 -41.695  0.00  0.00    -0.080 C 
ENDBRANCH  14  17
BRANCH  14  19
ATOM     19  C   UNL     1      45.789 -13.313 -39.441  0.00  0.00    -0.091 C 
ATOM     20  C   UNL     1      45.952 -12.252 -40.519  0.00  0.00    -0.080 C 
ENDBRANCH  14  19
ENDBRANCH  13  14
ENDBRANCH  12  13
ENDBRANCH  11  12
ENDBRANCH   7  11
BRANCH   5  21
ATOM     21  O   UNL     1      44.554 -20.690 -38.167  0.00  0.00    -0.494 OA
BRANCH  21  22
ATOM     22  C   UNL     1      45.926 -20.852 -38.560  0.00  0.00    +0.075 C 
BRANCH  22  23
ATOM     23  C   UNL     1      46.072 -21.740 -40.073  0.00  0.00    -0.053 C 
BRANCH  23  24
ATOM     24  N   UNL     1      46.615 -21.377 -40.830  0.00  0.00    +0.382 N 
BRANCH  24  26
ATOM     25  C   UNL     1      48.868 -22.582 -40.319  0.00  0.00    -0.080 C 
ATOM     26  C   UNL     1      47.453 -21.564 -40.318  0.00  0.00    -0.091 C 
ENDBRANCH  24  26
BRANCH  24  27
ATOM     27  C   UNL     1      45.777 -21.190 -41.342  0.00  0.00    -0.091 C 
ATOM     28  C   UNL     1      45.321 -22.234 -42.622  0.00  0.00    -0.080 C 
ENDBRANCH  24  27
BRANCH  24  29
ATOM     29  C   UNL     1      47.158 -21.014 -41.587  0.00  0.00    -0.091 C 
ATOM     30  C   UNL     1      47.539 -19.346 -41.637  0.00  0.00    -0.080 C 
ENDBRANCH  24  29
ENDBRANCH  23  24
ENDBRANCH  22  23
ENDBRANCH  21  22
ENDBRANCH   5  21
ENDBRANCH   1   9
BRANCH   3  31
ATOM     31  C   UNL     1      40.388 -17.197 -34.393  0.00  0.00    +0.012 C 
BRANCH  31  32
ATOM     32  C   UNL     1      40.231 -18.204 -33.260  0.00  0.00    -0.037 C 
BRANCH  32  33
ATOM     33  C   UNL     1      41.092 -19.452 -33.467  0.00  0.00    -0.051 C 
BRANCH  33  34
ATOM     34  C   UNL     1      40.804 -20.454 -32.354  0.00  0.00    -0.045 C 
BRANCH  34  35
ATOM     35  C   UNL     1      41.557 -21.774 -32.508  0.00  0.00    +0.025 C 
BRANCH  35  36
ATOM     36  C   UNL     1      40.696 -22.737 -33.300  0.00  0.00    +0.229 C 
ATOM     37  O   UNL     1      39.828 -23.431 -32.779  0.00  0.00    -0.274 OA
ATOM     38  N   UNL     1      40.932 -22.685 -34.666  0.00  0.00    -0.236 N 
ATOM     39  H   UNL     1      41.814 -22.455 -35.038  0.00  0.00    +0.000 HD
BRANCH  38  40
ATOM     40  N   UNL     1      39.819 -22.984 -35.491  0.00  0.00    -0.264 N 
ATOM     41  H   UNL     1      39.341 -23.844 -35.494  0.00  0.00    +0.000 HD
BRANCH  40  42
ATOM     42  C   UNL     1      39.487 -21.869 -36.315  0.00  0.00    +0.058 A 
ATOM     43  C   UNL     1      38.553 -20.928 -35.829  0.00  0.00    -0.003 A 
ATOM     44  C   UNL     1      38.275 -19.819 -36.624  0.00  0.00    +0.047 A 
ATOM     45  N   UNL     1      38.885 -19.593 -37.808  0.00  0.00    -0.251 NA
ATOM     46  C   UNL     1      39.783 -20.479 -38.265  0.00  0.00    +0.073 A 
ATOM     47  C   UNL     1      40.383 -20.223 -39.492  0.00  0.00    -0.036 A 
ATOM     48  C   UNL     1      41.340 -21.078 -40.040  0.00  0.00    -0.060 A 
ATOM     49  C   UNL     1      41.718 -22.217 -39.345  0.00  0.00    -0.061 A 
ATOM     50  C   UNL     1      41.130 -22.496 -38.113  0.00  0.00    -0.051 A 
ATOM     51  C   UNL     1      40.145 -21.641 -37.554  0.00  0.00    +0.023 A 
ATOM     52  C   UNL     1      37.318 -18.742 -36.182  0.00  0.00    -0.010 C 
ATOM     53  C   UNL     1      36.355 -19.191 -35.089  0.00  0.00    -0.047 C 
ATOM     54  C   UNL     1      37.114 -19.920 -33.990  0.00  0.00    -0.049 C 
ATOM     55  C   UNL     1      37.784 -21.173 -34.551  0.00  0.00    -0.024 C 
ENDBRANCH  40  42
ENDBRANCH  38  40
ENDBRANCH  35  36
ENDBRANCH  34  35
ENDBRANCH  33  34
ENDBRANCH  32  33
ENDBRANCH  31  32
ENDBRANCH   3  31
TORSDOF 23
ENDMDL
MODEL 8
REMARK VINA RESULT:    -6.995     18.076     23.152
REMARK INTER + INTRA:          -9.677
REMARK INTER:                 -14.446
REMARK INTRA:                   4.769
REMARK UNBOUND:                 5.292
REMARK  Name = cpd126.pdb
REMARK  29 active torsions:
REMARK  status: ('A' for Active; 'I' for Inactive)
REMARK    1  A    between atoms: C_1  and  C_2
REMARK    2  A    between atoms: C_2  and  N_3
REMARK    3  A    between atoms: N_3  and  C_4
REMARK    4  A    between atoms: N_3  and  C_6
REMARK    5  A    between atoms: N_3  and  C_8
REMARK    6  A    between atoms: C_4  and  C_5
REMARK    7  A    between atoms: C_6  and  C_7
REMARK    8  A    between atoms: C_8  and  C_9
REMARK    9  A    between atoms: C_9  and  O_10
REMARK   10  A    between atoms: O_10  and  C_11
REMARK   11  A    between atoms: C_13  and  O_14
REMARK   12  A    between atoms: O_14  and  C_15
REMARK   13  A    between atoms: C_15  and  C_16
REMARK   14  A    between atoms: C_16  and  N_17
REMARK   15  A    between atoms: N_17  and  C_18
REMARK   16  A    between atoms: N_17  and  C_20
REMARK   17  A    between atoms: N_17  and  C_22
REMARK   18  A    between atoms: C_18  and  C_19
REMARK   19  A    between atoms: C_20  and  C_21
REMARK   20  A    between atoms: C_22  and  C_23
REMARK   21  A    between atoms: C_25  and  C_26
REMARK   22  A    between atoms: N_28  and  C_29
REMARK   23  A    between atoms: C_29  and  C_30
REMARK   24  A    between atoms: C_30  and  C_31
REMARK   25  A    between atoms: C_31  and  C_32
REMARK   26  A    between atoms: C_32  and  C_33
REMARK   27  A    between atoms: C_33  and  C_34
REMARK   28  A    between atoms: N_36  and  N_37
REMARK   29  A    between atoms: N_37  and  C_38
REMARK                            x       y       z     vdW  Elec       q    Type
REMARK                         _______ _______ _______ _____ _____    ______ ____
ROOT
ATOM      1  C   UNL     1      42.956 -17.924 -34.606  0.00  0.00    +0.244 C 
ATOM      2  O   UNL     1      43.713 -17.606 -33.698  0.00  0.00    -0.270 OA
ATOM      3  N   UNL     1      41.585 -18.017 -34.478  0.00  0.00    -0.311 N 
ATOM      4  H   UNL     1      41.036 -18.264 -35.257  0.00  0.00    +0.000 HD
ENDROOT
BRANCH   1   9
ATOM      5  C   UNL     1      44.539 -19.743 -37.520  0.00  0.00    +0.125 A 
ATOM      6  C   UNL     1      44.288 -18.820 -38.544  0.00  0.00    +0.022 A 
ATOM      7  C   UNL     1      43.649 -17.599 -38.282  0.00  0.00    +0.125 A 
ATOM      8  C   UNL     1      43.247 -17.304 -36.983  0.00  0.00    -0.008 A 
ATOM      9  C   UNL     1      43.528 -18.199 -35.949  0.00  0.00    +0.044 A 
ATOM     10  C   UNL     1      44.212 -19.391 -36.212  0.00  0.00    -0.008 A 
BRANCH   7  11
ATOM     11  O   UNL     1      43.517 -16.737 -39.338  0.00  0.00    -0.494 OA
BRANCH  11  12
ATOM     12  C   UNL     1      44.709 -16.480 -40.095  0.00  0.00    +0.075 C 
BRANCH  12  13
ATOM     13  C   UNL     1      45.420 -15.240 -39.527  0.00  0.00    -0.053 C 
BRANCH  13  14
ATOM     14  N   UNL     1      46.946 -15.428 -39.160  0.00  0.00    +0.382 N 
BRANCH  14  15
ATOM     15  C   UNL     1      47.820 -15.190 -40.436  0.00  0.00    -0.091 C 
ATOM     16  C   UNL     1      47.187 -14.297 -41.491  0.00  0.00    -0.080 C 
ENDBRANCH  14  15
BRANCH  14  17
ATOM     17  C   UNL     1      47.263 -14.255 -38.164  0.00  0.00    -0.091 C 
ATOM     18  C   UNL     1      48.691 -13.728 -38.248  0.00  0.00    -0.080 C 
ENDBRANCH  14  17
BRANCH  14  19
ATOM     19  C   UNL     1      47.227 -16.799 -38.503  0.00  0.00    -0.091 C 
ATOM     20  C   UNL     1      47.039 -16.818 -36.994  0.00  0.00    -0.080 C 
ENDBRANCH  14  19
ENDBRANCH  13  14
ENDBRANCH  12  13
ENDBRANCH  11  12
ENDBRANCH   7  11
BRANCH   5  21
ATOM     21  O   UNL     1      45.035 -20.955 -37.929  0.00  0.00    -0.494 OA
BRANCH  21  22
ATOM     22  C   UNL     1      46.353 -21.047 -38.493  0.00  0.00    +0.075 C 
BRANCH  22  23
ATOM     23  C   UNL     1      46.335 -21.822 -40.073  0.00  0.00    -0.053 C 
BRANCH  23  24
ATOM     24  N   UNL     1      46.706 -21.357 -40.876  0.00  0.00    +0.382 N 
BRANCH  24  26
ATOM     25  C   UNL     1      44.373 -21.532 -42.023  0.00  0.00    -0.080 C 
ATOM     26  C   UNL     1      45.787 -21.051 -41.124  0.00  0.00    -0.091 C 
ENDBRANCH  24  26
BRANCH  24  27
ATOM     27  C   UNL     1      47.625 -21.663 -40.628  0.00  0.00    -0.091 C 
ATOM     28  C   UNL     1      48.219 -23.143 -41.256  0.00  0.00    -0.080 C 
ENDBRANCH  24  27
BRANCH  24  29
ATOM     29  C   UNL     1      47.078 -20.892 -41.679  0.00  0.00    -0.091 C 
ATOM     30  C   UNL     1      47.332 -19.200 -41.640  0.00  0.00    -0.080 C 
ENDBRANCH  24  29
ENDBRANCH  23  24
ENDBRANCH  22  23
ENDBRANCH  21  22
ENDBRANCH   5  21
ENDBRANCH   1   9
BRANCH   3  31
ATOM     31  C   UNL     1      40.946 -17.751 -33.197  0.00  0.00    +0.012 C 
BRANCH  31  32
ATOM     32  C   UNL     1      40.288 -19.003 -32.631  0.00  0.00    -0.037 C 
BRANCH  32  33
ATOM     33  C   UNL     1      41.165 -20.246 -32.794  0.00  0.00    -0.051 C 
BRANCH  33  34
ATOM     34  C   UNL     1      40.683 -21.332 -31.838  0.00  0.00    -0.045 C 
BRANCH  34  35
ATOM     35  C   UNL     1      41.255 -22.716 -32.142  0.00  0.00    +0.025 C 
BRANCH  35  36
ATOM     36  C   UNL     1      40.329 -23.423 -33.112  0.00  0.00    +0.229 C 
ATOM     37  O   UNL     1      39.388 -24.118 -32.740  0.00  0.00    -0.274 OA
ATOM     38  N   UNL     1      40.604 -23.133 -34.440  0.00  0.00    -0.236 N 
ATOM     39  H   UNL     1      41.513 -22.921 -34.755  0.00  0.00    +0.000 HD
BRANCH  38  40
ATOM     40  N   UNL     1      39.490 -23.162 -35.315  0.00  0.00    -0.264 N 
ATOM     41  H   UNL     1      38.988 -23.975 -35.555  0.00  0.00    +0.000 HD
BRANCH  40  42
ATOM     42  C   UNL     1      39.194 -21.855 -35.800  0.00  0.00    +0.058 A 
ATOM     43  C   UNL     1      39.747 -21.456 -37.038  0.00  0.00    -0.003 A 
ATOM     44  C   UNL     1      39.409 -20.195 -37.522  0.00  0.00    +0.047 A 
ATOM     45  N   UNL     1      38.557 -19.365 -36.881  0.00  0.00    -0.251 NA
ATOM     46  C   UNL     1      38.021 -19.748 -35.713  0.00  0.00    +0.073 A 
ATOM     47  C   UNL     1      37.158 -18.867 -35.073  0.00  0.00    -0.036 A 
ATOM     48  C   UNL     1      36.540 -19.184 -33.863  0.00  0.00    -0.060 A 
ATOM     49  C   UNL     1      36.780 -20.416 -33.274  0.00  0.00    -0.061 A 
ATOM     50  C   UNL     1      37.643 -21.317 -33.895  0.00  0.00    -0.051 A 
ATOM     51  C   UNL     1      38.288 -20.998 -35.118  0.00  0.00    +0.023 A 
ATOM     52  C   UNL     1      39.919 -19.688 -38.847  0.00  0.00    -0.010 C 
ATOM     53  C   UNL     1      41.162 -20.419 -39.343  0.00  0.00    -0.047 C 
ATOM     54  C   UNL     1      40.969 -21.923 -39.218  0.00  0.00    -0.049 C 
ATOM     55  C   UNL     1      40.766 -22.310 -37.754  0.00  0.00    -0.024 C 
ENDBRANCH  40  42
ENDBRANCH  38  40
ENDBRANCH  35  36
ENDBRANCH  34  35
ENDBRANCH  33  34
ENDBRANCH  32  33
ENDBRANCH  31  32
ENDBRANCH   3  31
TORSDOF 23
ENDMDL
MODEL 9
REMARK VINA RESULT:    -6.942     18.849     23.843
REMARK INTER + INTRA:          -9.563
REMARK INTER:                 -15.516
REMARK INTRA:                   5.953
REMARK UNBOUND:                 5.292
REMARK  Name = cpd126.pdb
REMARK  29 active torsions:
REMARK  status: ('A' for Active; 'I' for Inactive)
REMARK    1  A    between atoms: C_1  and  C_2
REMARK    2  A    between atoms: C_2  and  N_3
REMARK    3  A    between atoms: N_3  and  C_4
REMARK    4  A    between atoms: N_3  and  C_6
REMARK    5  A    between atoms: N_3  and  C_8
REMARK    6  A    between atoms: C_4  and  C_5
REMARK    7  A    between atoms: C_6  and  C_7
REMARK    8  A    between atoms: C_8  and  C_9
REMARK    9  A    between atoms: C_9  and  O_10
REMARK   10  A    between atoms: O_10  and  C_11
REMARK   11  A    between atoms: C_13  and  O_14
REMARK   12  A    between atoms: O_14  and  C_15
REMARK   13  A    between atoms: C_15  and  C_16
REMARK   14  A    between atoms: C_16  and  N_17
REMARK   15  A    between atoms: N_17  and  C_18
REMARK   16  A    between atoms: N_17  and  C_20
REMARK   17  A    between atoms: N_17  and  C_22
REMARK   18  A    between atoms: C_18  and  C_19
REMARK   19  A    between atoms: C_20  and  C_21
REMARK   20  A    between atoms: C_22  and  C_23
REMARK   21  A    between atoms: C_25  and  C_26
REMARK   22  A    between atoms: N_28  and  C_29
REMARK   23  A    between atoms: C_29  and  C_30
REMARK   24  A    between atoms: C_30  and  C_31
REMARK   25  A    between atoms: C_31  and  C_32
REMARK   26  A    between atoms: C_32  and  C_33
REMARK   27  A    between atoms: C_33  and  C_34
REMARK   28  A    between atoms: N_36  and  N_37
REMARK   29  A    between atoms: N_37  and  C_38
REMARK                            x       y       z     vdW  Elec       q    Type
REMARK                         _______ _______ _______ _____ _____    ______ ____
ROOT
ATOM      1  C   UNL     1      45.189 -18.056 -33.691  0.00  0.00    +0.244 C 
ATOM      2  O   UNL     1      44.653 -19.005 -33.134  0.00  0.00    -0.270 OA
ATOM      3  N   UNL     1      45.270 -16.786 -33.157  0.00  0.00    -0.311 N 
ATOM      4  H   UNL     1      45.730 -16.073 -33.656  0.00  0.00    +0.000 HD
ENDROOT
BRANCH   1   9
ATOM      5  C   UNL     1      46.408 -19.753 -36.844  0.00  0.00    +0.125 A 
ATOM      6  C   UNL     1      46.720 -18.627 -37.617  0.00  0.00    +0.022 A 
ATOM      7  C   UNL     1      46.576 -17.330 -37.104  0.00  0.00    +0.125 A 
ATOM      8  C   UNL     1      46.105 -17.157 -35.807  0.00  0.00    -0.008 A 
ATOM      9  C   UNL     1      45.829 -18.273 -35.014  0.00  0.00    +0.044 A 
ATOM     10  C   UNL     1      46.025 -19.564 -35.517  0.00  0.00    -0.008 A 
BRANCH   7  11
ATOM     11  O   UNL     1      46.976 -16.301 -37.915  0.00  0.00    -0.494 OA
BRANCH  11  12
ATOM     12  C   UNL     1      45.960 -15.354 -38.279  0.00  0.00    +0.075 C 
BRANCH  12  13
ATOM     13  C   UNL     1      44.669 -16.102 -38.648  0.00  0.00    -0.053 C 
BRANCH  13  14
ATOM     14  N   UNL     1      44.340 -16.190 -40.193  0.00  0.00    +0.382 N 
BRANCH  14  15
ATOM     15  C   UNL     1      45.136 -15.081 -40.957  0.00  0.00    -0.091 C 
ATOM     16  C   UNL     1      44.299 -14.211 -41.881  0.00  0.00    -0.080 C 
ENDBRANCH  14  15
BRANCH  14  17
ATOM     17  C   UNL     1      44.930 -17.572 -40.648  0.00  0.00    -0.091 C 
ATOM     18  C   UNL     1      44.188 -18.220 -41.811  0.00  0.00    -0.080 C 
ENDBRANCH  14  17
BRANCH  14  19
ATOM     19  C   UNL     1      42.821 -16.120 -40.472  0.00  0.00    -0.091 C 
ATOM     20  C   UNL     1      41.950 -16.518 -39.290  0.00  0.00    -0.080 C 
ENDBRANCH  14  19
ENDBRANCH  13  14
ENDBRANCH  12  13
ENDBRANCH  11  12
ENDBRANCH   7  11
BRANCH   5  21
ATOM     21  O   UNL     1      46.452 -20.953 -37.508  0.00  0.00    -0.494 OA
BRANCH  21  22
ATOM     22  C   UNL     1      45.930 -21.065 -38.841  0.00  0.00    +0.075 C 
BRANCH  22  23
ATOM     23  C   UNL     1      47.081 -21.831 -39.930  0.00  0.00    -0.053 C 
BRANCH  23  24
ATOM     24  N   UNL     1      46.953 -21.792 -40.921  0.00  0.00    +0.382 N 
BRANCH  24  26
ATOM     25  C   UNL     1      47.695 -19.521 -41.961  0.00  0.00    -0.080 C 
ATOM     26  C   UNL     1      47.195 -20.822 -40.914  0.00  0.00    -0.091 C 
ENDBRANCH  24  26
BRANCH  24  27
ATOM     27  C   UNL     1      46.711 -22.763 -40.928  0.00  0.00    -0.091 C 
ATOM     28  C   UNL     1      47.824 -23.904 -41.556  0.00  0.00    -0.080 C 
ENDBRANCH  24  27
BRANCH  24  29
ATOM     29  C   UNL     1      46.825 -21.753 -41.912  0.00  0.00    -0.091 C 
ATOM     30  C   UNL     1      45.247 -21.833 -42.569  0.00  0.00    -0.080 C 
ENDBRANCH  24  29
ENDBRANCH  23  24
ENDBRANCH  22  23
ENDBRANCH  21  22
ENDBRANCH   5  21
ENDBRANCH   1   9
BRANCH   3  31
ATOM     31  C   UNL     1      44.678 -16.495 -31.859  0.00  0.00    +0.012 C 
BRANCH  31  32
ATOM     32  C   UNL     1      44.180 -15.057 -31.783  0.00  0.00    -0.037 C 
BRANCH  32  33
ATOM     33  C   UNL     1      42.987 -14.805 -32.708  0.00  0.00    -0.051 C 
BRANCH  33  34
ATOM     34  C   UNL     1      42.117 -16.056 -32.763  0.00  0.00    -0.045 C 
BRANCH  34  35
ATOM     35  C   UNL     1      41.178 -16.098 -33.967  0.00  0.00    +0.025 C 
BRANCH  35  36
ATOM     36  C   UNL     1      41.879 -16.808 -35.108  0.00  0.00    +0.229 C 
ATOM     37  O   UNL     1      42.819 -16.309 -35.719  0.00  0.00    -0.274 OA
ATOM     38  N   UNL     1      41.407 -18.095 -35.323  0.00  0.00    -0.236 N 
ATOM     39  H   UNL     1      40.476 -18.351 -35.135  0.00  0.00    +0.000 HD
BRANCH  38  40
ATOM     40  N   UNL     1      42.356 -19.016 -35.833  0.00  0.00    -0.264 N 
ATOM     41  H   UNL     1      43.296 -18.799 -36.030  0.00  0.00    +0.000 HD
BRANCH  40  42
ATOM     42  C   UNL     1      41.765 -20.299 -36.020  0.00  0.00    +0.058 A 
ATOM     43  C   UNL     1      41.690 -20.820 -37.331  0.00  0.00    -0.003 A 
ATOM     44  C   UNL     1      41.154 -22.095 -37.492  0.00  0.00    +0.047 A 
ATOM     45  N   UNL     1      40.744 -22.856 -36.455  0.00  0.00    -0.251 NA
ATOM     46  C   UNL     1      40.827 -22.369 -35.208  0.00  0.00    +0.073 A 
ATOM     47  C   UNL     1      40.385 -23.173 -34.164  0.00  0.00    -0.036 A 
ATOM     48  C   UNL     1      40.447 -22.757 -32.834  0.00  0.00    -0.060 A 
ATOM     49  C   UNL     1      40.971 -21.510 -32.530  0.00  0.00    -0.061 A 
ATOM     50  C   UNL     1      41.420 -20.684 -33.559  0.00  0.00    -0.051 A 
ATOM     51  C   UNL     1      41.347 -21.091 -34.916  0.00  0.00    +0.023 A 
ATOM     52  C   UNL     1      41.061 -22.753 -38.845  0.00  0.00    -0.010 C 
ATOM     53  C   UNL     1      41.127 -21.771 -40.009  0.00  0.00    -0.047 C 
ATOM     54  C   UNL     1      42.277 -20.796 -39.805  0.00  0.00    -0.049 C 
ATOM     55  C   UNL     1      42.059 -19.981 -38.532  0.00  0.00    -0.024 C 
ENDBRANCH  40  42
ENDBRANCH  38  40
ENDBRANCH  35  36
ENDBRANCH  34  35
ENDBRANCH  33  34
ENDBRANCH  32  33
ENDBRANCH  31  32
ENDBRANCH   3  31
TORSDOF 23
ENDMDL
MODEL 10
REMARK VINA RESULT:    -6.847     18.912     24.178
REMARK INTER + INTRA:          -9.361
REMARK INTER:                 -13.419
REMARK INTRA:                   4.059
REMARK UNBOUND:                 5.292
REMARK  Name = cpd126.pdb
REMARK  29 active torsions:
REMARK  status: ('A' for Active; 'I' for Inactive)
REMARK    1  A    between atoms: C_1  and  C_2
REMARK    2  A    between atoms: C_2  and  N_3
REMARK    3  A    between atoms: N_3  and  C_4
REMARK    4  A    between atoms: N_3  and  C_6
REMARK    5  A    between atoms: N_3  and  C_8
REMARK    6  A    between atoms: C_4  and  C_5
REMARK    7  A    between atoms: C_6  and  C_7
REMARK    8  A    between atoms: C_8  and  C_9
REMARK    9  A    between atoms: C_9  and  O_10
REMARK   10  A    between atoms: O_10  and  C_11
REMARK   11  A    between atoms: C_13  and  O_14
REMARK   12  A    between atoms: O_14  and  C_15
REMARK   13  A    between atoms: C_15  and  C_16
REMARK   14  A    between atoms: C_16  and  N_17
REMARK   15  A    between atoms: N_17  and  C_18
REMARK   16  A    between atoms: N_17  and  C_20
REMARK   17  A    between atoms: N_17  and  C_22
REMARK   18  A    between atoms: C_18  and  C_19
REMARK   19  A    between atoms: C_20  and  C_21
REMARK   20  A    between atoms: C_22  and  C_23
REMARK   21  A    between atoms: C_25  and  C_26
REMARK   22  A    between atoms: N_28  and  C_29
REMARK   23  A    between atoms: C_29  and  C_30
REMARK   24  A    between atoms: C_30  and  C_31
REMARK   25  A    between atoms: C_31  and  C_32
REMARK   26  A    between atoms: C_32  and  C_33
REMARK   27  A    between atoms: C_33  and  C_34
REMARK   28  A    between atoms: N_36  and  N_37
REMARK   29  A    between atoms: N_37  and  C_38
REMARK                            x       y       z     vdW  Elec       q    Type
REMARK                         _______ _______ _______ _____ _____    ______ ____
ROOT
ATOM      1  C   UNL     1      43.323 -18.728 -33.964  0.00  0.00    +0.244 C 
ATOM      2  O   UNL     1      43.797 -18.625 -32.840  0.00  0.00    -0.270 OA
ATOM      3  N   UNL     1      41.991 -18.977 -34.225  0.00  0.00    -0.311 N 
ATOM      4  H   UNL     1      41.676 -19.032 -35.156  0.00  0.00    +0.000 HD
ENDROOT
BRANCH   1   9
ATOM      5  C   UNL     1      45.551 -17.092 -36.546  0.00  0.00    +0.125 A 
ATOM      6  C   UNL     1      46.142 -18.232 -37.109  0.00  0.00    +0.022 A 
ATOM      7  C   UNL     1      45.788 -19.520 -36.683  0.00  0.00    +0.125 A 
ATOM      8  C   UNL     1      44.840 -19.670 -35.676  0.00  0.00    -0.008 A 
ATOM      9  C   UNL     1      44.216 -18.544 -35.136  0.00  0.00    +0.044 A 
ATOM     10  C   UNL     1      44.538 -17.265 -35.604  0.00  0.00    -0.008 A 
BRANCH   7  11
ATOM     11  O   UNL     1      46.371 -20.567 -37.347  0.00  0.00    -0.494 OA
BRANCH  11  12
ATOM     12  C   UNL     1      46.987 -20.251 -38.604  0.00  0.00    +0.075 C 
BRANCH  12  13
ATOM     13  C   UNL     1      47.145 -21.535 -39.434  0.00  0.00    -0.053 C 
BRANCH  13  14
ATOM     14  N   UNL     1      46.985 -21.369 -40.999  0.00  0.00    +0.382 N 
BRANCH  14  15
ATOM     15  C   UNL     1      46.343 -19.977 -41.311  0.00  0.00    -0.091 C 
ATOM     16  C   UNL     1      45.116 -20.021 -42.207  0.00  0.00    -0.080 C 
ENDBRANCH  14  15
BRANCH  14  17
ATOM     17  C   UNL     1      48.455 -21.328 -41.548  0.00  0.00    -0.091 C 
ATOM     18  C   UNL     1      48.777 -20.100 -42.391  0.00  0.00    -0.080 C 
ENDBRANCH  14  17
BRANCH  14  19
ATOM     19  C   UNL     1      46.192 -22.536 -41.633  0.00  0.00    -0.091 C 
ATOM     20  C   UNL     1      47.041 -23.492 -42.456  0.00  0.00    -0.080 C 
ENDBRANCH  14  19
ENDBRANCH  13  14
ENDBRANCH  12  13
ENDBRANCH  11  12
ENDBRANCH   7  11
BRANCH   5  21
ATOM     21  O   UNL     1      46.086 -15.893 -36.944  0.00  0.00    -0.494 OA
BRANCH  21  22
ATOM     22  C   UNL     1      46.830 -15.801 -38.169  0.00  0.00    +0.075 C 
BRANCH  22  23
ATOM     23  C   UNL     1      46.126 -14.625 -39.273  0.00  0.00    -0.053 C 
BRANCH  23  24
ATOM     24  N   UNL     1      46.438 -14.561 -40.221  0.00  0.00    +0.382 N 
BRANCH  24  26
ATOM     25  C   UNL     1      47.138 -12.089 -39.786  0.00  0.00    -0.080 C 
ATOM     26  C   UNL     1      47.060 -13.821 -39.966  0.00  0.00    -0.091 C 
ENDBRANCH  24  26
BRANCH  24  27
ATOM     27  C   UNL     1      45.816 -15.301 -40.476  0.00  0.00    -0.091 C 
ATOM     28  C   UNL     1      44.296 -14.922 -41.170  0.00  0.00    -0.080 C 
ENDBRANCH  24  27
BRANCH  24  29
ATOM     29  C   UNL     1      46.751 -14.497 -41.169  0.00  0.00    -0.091 C 
ATOM     30  C   UNL     1      48.150 -15.349 -41.662  0.00  0.00    -0.080 C 
ENDBRANCH  24  29
ENDBRANCH  23  24
ENDBRANCH  22  23
ENDBRANCH  21  22
ENDBRANCH   5  21
ENDBRANCH   1   9
BRANCH   3  31
ATOM     31  C   UNL     1      41.048 -19.157 -33.129  0.00  0.00    +0.012 C 
BRANCH  31  32
ATOM     32  C   UNL     1      40.924 -20.624 -32.736  0.00  0.00    -0.037 C 
BRANCH  32  33
ATOM     33  C   UNL     1      39.481 -21.021 -32.416  0.00  0.00    -0.051 C 
BRANCH  33  34
ATOM     34  C   UNL     1      39.176 -22.372 -33.054  0.00  0.00    -0.045 C 
BRANCH  34  35
ATOM     35  C   UNL     1      40.372 -22.998 -33.769  0.00  0.00    +0.025 C 
BRANCH  35  36
ATOM     36  C   UNL     1      40.089 -23.029 -35.257  0.00  0.00    +0.229 C 
ATOM     37  O   UNL     1      39.299 -23.819 -35.765  0.00  0.00    -0.274 OA
ATOM     38  N   UNL     1      40.743 -22.026 -35.958  0.00  0.00    -0.236 N 
ATOM     39  H   UNL     1      41.612 -21.664 -35.670  0.00  0.00    +0.000 HD
BRANCH  38  40
ATOM     40  N   UNL     1      40.077 -21.557 -37.118  0.00  0.00    -0.264 N 
ATOM     41  H   UNL     1      39.621 -22.134 -37.773  0.00  0.00    +0.000 HD
BRANCH  40  42
ATOM     42  C   UNL     1      40.157 -20.137 -37.206  0.00  0.00    +0.058 A 
ATOM     43  C   UNL     1      39.191 -19.365 -36.523  0.00  0.00    -0.003 A 
ATOM     44  C   UNL     1      39.310 -17.979 -36.578  0.00  0.00    +0.047 A 
ATOM     45  N   UNL     1      40.321 -17.354 -37.220  0.00  0.00    -0.251 NA
ATOM     46  C   UNL     1      41.247 -18.085 -37.859  0.00  0.00    +0.073 A 
ATOM     47  C   UNL     1      42.266 -17.411 -38.519  0.00  0.00    -0.036 A 
ATOM     48  C   UNL     1      43.282 -18.086 -39.197  0.00  0.00    -0.060 A 
ATOM     49  C   UNL     1      43.290 -19.473 -39.211  0.00  0.00    -0.061 A 
ATOM     50  C   UNL     1      42.278 -20.173 -38.557  0.00  0.00    -0.051 A 
ATOM     51  C   UNL     1      41.232 -19.494 -37.878  0.00  0.00    +0.023 A 
ATOM     52  C   UNL     1      38.351 -17.068 -35.856  0.00  0.00    -0.010 C 
ATOM     53  C   UNL     1      37.026 -17.733 -35.501  0.00  0.00    -0.047 C 
ATOM     54  C   UNL     1      37.277 -19.095 -34.871  0.00  0.00    -0.049 C 
ATOM     55  C   UNL     1      37.997 -20.011 -35.858  0.00  0.00    -0.024 C 
ENDBRANCH  40  42
ENDBRANCH  38  40
ENDBRANCH  35  36
ENDBRANCH  34  35
ENDBRANCH  33  34
ENDBRANCH  32  33
ENDBRANCH  31  32
ENDBRANCH   3  31
TORSDOF 23
ENDMDL
MODEL 11
REMARK VINA RESULT:    -6.815     18.404     22.779
REMARK INTER + INTRA:          -9.292
REMARK INTER:                 -14.094
REMARK INTRA:                   4.802
REMARK UNBOUND:                 5.292
REMARK  Name = cpd126.pdb
REMARK  29 active torsions:
REMARK  status: ('A' for Active; 'I' for Inactive)
REMARK    1  A    between atoms: C_1  and  C_2
REMARK    2  A    between atoms: C_2  and  N_3
REMARK    3  A    between atoms: N_3  and  C_4
REMARK    4  A    between atoms: N_3  and  C_6
REMARK    5  A    between atoms: N_3  and  C_8
REMARK    6  A    between atoms: C_4  and  C_5
REMARK    7  A    between atoms: C_6  and  C_7
REMARK    8  A    between atoms: C_8  and  C_9
REMARK    9  A    between atoms: C_9  and  O_10
REMARK   10  A    between atoms: O_10  and  C_11
REMARK   11  A    between atoms: C_13  and  O_14
REMARK   12  A    between atoms: O_14  and  C_15
REMARK   13  A    between atoms: C_15  and  C_16
REMARK   14  A    between atoms: C_16  and  N_17
REMARK   15  A    between atoms: N_17  and  C_18
REMARK   16  A    between atoms: N_17  and  C_20
REMARK   17  A    between atoms: N_17  and  C_22
REMARK   18  A    between atoms: C_18  and  C_19
REMARK   19  A    between atoms: C_20  and  C_21
REMARK   20  A    between atoms: C_22  and  C_23
REMARK   21  A    between atoms: C_25  and  C_26
REMARK   22  A    between atoms: N_28  and  C_29
REMARK   23  A    between atoms: C_29  and  C_30
REMARK   24  A    between atoms: C_30  and  C_31
REMARK   25  A    between atoms: C_31  and  C_32
REMARK   26  A    between atoms: C_32  and  C_33
REMARK   27  A    between atoms: C_33  and  C_34
REMARK   28  A    between atoms: N_36  and  N_37
REMARK   29  A    between atoms: N_37  and  C_38
REMARK                            x       y       z     vdW  Elec       q    Type
REMARK                         _______ _______ _______ _____ _____    ______ ____
ROOT
ATOM      1  C   UNL     1      46.370 -19.139 -35.636  0.00  0.00    +0.244 C 
ATOM      2  O   UNL     1      47.415 -18.514 -35.505  0.00  0.00    -0.270 OA
ATOM      3  N   UNL     1      46.071 -19.932 -36.725  0.00  0.00    -0.311 N 
ATOM      4  H   UNL     1      45.216 -20.419 -36.756  0.00  0.00    +0.000 HD
ENDROOT
BRANCH   1   9
ATOM      5  C   UNL     1      44.285 -17.858 -32.753  0.00  0.00    +0.125 A 
ATOM      6  C   UNL     1      43.271 -18.826 -32.741  0.00  0.00    +0.022 A 
ATOM      7  C   UNL     1      43.288 -19.907 -33.634  0.00  0.00    +0.125 A 
ATOM      8  C   UNL     1      44.325 -20.016 -34.555  0.00  0.00    -0.008 A 
ATOM      9  C   UNL     1      45.361 -19.080 -34.548  0.00  0.00    +0.044 A 
ATOM     10  C   UNL     1      45.362 -18.033 -33.619  0.00  0.00    -0.008 A 
BRANCH   7  11
ATOM     11  O   UNL     1      42.290 -20.835 -33.493  0.00  0.00    -0.494 OA
BRANCH  11  12
ATOM     12  C   UNL     1      41.095 -20.380 -32.842  0.00  0.00    +0.075 C 
BRANCH  12  13
ATOM     13  C   UNL     1      40.058 -21.515 -32.823  0.00  0.00    -0.053 C 
BRANCH  13  14
ATOM     14  N   UNL     1      39.277 -21.760 -34.177  0.00  0.00    +0.382 N 
BRANCH  14  15
ATOM     15  C   UNL     1      37.757 -21.963 -33.871  0.00  0.00    -0.091 C 
ATOM     16  C   UNL     1      37.278 -21.355 -32.562  0.00  0.00    -0.080 C 
ENDBRANCH  14  15
BRANCH  14  17
ATOM     17  C   UNL     1      39.409 -20.407 -34.963  0.00  0.00    -0.091 C 
ATOM     18  C   UNL     1      38.141 -19.978 -35.692  0.00  0.00    -0.080 C 
ENDBRANCH  14  17
BRANCH  14  19
ATOM     19  C   UNL     1      39.874 -22.931 -34.992  0.00  0.00    -0.091 C 
ATOM     20  C   UNL     1      39.093 -23.276 -36.251  0.00  0.00    -0.080 C 
ENDBRANCH  14  19
ENDBRANCH  13  14
ENDBRANCH  12  13
ENDBRANCH  11  12
ENDBRANCH   7  11
BRANCH   5  21
ATOM     21  O   UNL     1      44.076 -16.778 -31.933  0.00  0.00    -0.494 OA
BRANCH  21  22
ATOM     22  C   UNL     1      44.111 -15.445 -32.466  0.00  0.00    +0.075 C 
BRANCH  22  23
ATOM     23  C   UNL     1      42.493 -14.790 -32.694  0.00  0.00    -0.053 C 
BRANCH  23  24
ATOM     24  N   UNL     1      41.942 -15.052 -33.486  0.00  0.00    +0.382 N 
BRANCH  24  26
ATOM     25  C   UNL     1      42.674 -12.802 -34.578  0.00  0.00    -0.080 C 
ATOM     26  C   UNL     1      42.498 -14.460 -34.069  0.00  0.00    -0.091 C 
ENDBRANCH  24  26
BRANCH  24  27
ATOM     27  C   UNL     1      41.385 -15.644 -32.903  0.00  0.00    -0.091 C 
ATOM     28  C   UNL     1      39.957 -15.021 -32.189  0.00  0.00    -0.080 C 
ENDBRANCH  24  27
BRANCH  24  29
ATOM     29  C   UNL     1      41.390 -15.314 -34.278  0.00  0.00    -0.091 C 
ATOM     30  C   UNL     1      41.955 -16.527 -35.344  0.00  0.00    -0.080 C 
ENDBRANCH  24  29
ENDBRANCH  23  24
ENDBRANCH  22  23
ENDBRANCH  21  22
ENDBRANCH   5  21
ENDBRANCH   1   9
BRANCH   3  31
ATOM     31  C   UNL     1      47.014 -20.053 -37.828  0.00  0.00    +0.012 C 
BRANCH  31  32
ATOM     32  C   UNL     1      46.548 -21.083 -38.850  0.00  0.00    -0.037 C 
BRANCH  32  33
ATOM     33  C   UNL     1      47.710 -21.679 -39.647  0.00  0.00    -0.051 C 
BRANCH  33  34
ATOM     34  C   UNL     1      47.466 -21.460 -41.137  0.00  0.00    -0.045 C 
BRANCH  34  35
ATOM     35  C   UNL     1      46.435 -22.413 -41.737  0.00  0.00    +0.025 C 
BRANCH  35  36
ATOM     36  C   UNL     1      45.282 -21.600 -42.289  0.00  0.00    +0.229 C 
ATOM     37  O   UNL     1      44.257 -22.115 -42.724  0.00  0.00    -0.274 OA
ATOM     38  N   UNL     1      45.473 -20.230 -42.170  0.00  0.00    -0.236 N 
ATOM     39  H   UNL     1      46.367 -19.821 -42.192  0.00  0.00    +0.000 HD
BRANCH  38  40
ATOM     40  N   UNL     1      44.293 -19.460 -42.014  0.00  0.00    -0.264 N 
ATOM     41  H   UNL     1      43.683 -19.216 -42.747  0.00  0.00    +0.000 HD
BRANCH  40  42
ATOM     42  C   UNL     1      44.111 -19.087 -40.650  0.00  0.00    +0.058 A 
ATOM     43  C   UNL     1      44.839 -17.984 -40.152  0.00  0.00    -0.003 A 
ATOM     44  C   UNL     1      44.613 -17.601 -38.832  0.00  0.00    +0.047 A 
ATOM     45  N   UNL     1      43.711 -18.212 -38.034  0.00  0.00    -0.251 NA
ATOM     46  C   UNL     1      43.008 -19.250 -38.510  0.00  0.00    +0.073 A 
ATOM     47  C   UNL     1      42.097 -19.863 -37.659  0.00  0.00    -0.036 A 
ATOM     48  C   UNL     1      41.310 -20.940 -38.071  0.00  0.00    -0.060 A 
ATOM     49  C   UNL     1      41.426 -21.417 -39.368  0.00  0.00    -0.061 A 
ATOM     50  C   UNL     1      42.334 -20.819 -40.240  0.00  0.00    -0.051 A 
ATOM     51  C   UNL     1      43.150 -19.734 -39.826  0.00  0.00    +0.023 A 
ATOM     52  C   UNL     1      45.315 -16.418 -38.216  0.00  0.00    -0.010 C 
ATOM     53  C   UNL     1      46.589 -16.012 -38.949  0.00  0.00    -0.047 C 
ATOM     54  C   UNL     1      46.330 -15.945 -40.447  0.00  0.00    -0.049 C 
ATOM     55  C   UNL     1      45.917 -17.318 -40.975  0.00  0.00    -0.024 C 
ENDBRANCH  40  42
ENDBRANCH  38  40
ENDBRANCH  35  36
ENDBRANCH  34  35
ENDBRANCH  33  34
ENDBRANCH  32  33
ENDBRANCH  31  32
ENDBRANCH   3  31
TORSDOF 23
ENDMDL
MODEL 12
REMARK VINA RESULT:    -6.740     18.881     22.777
REMARK INTER + INTRA:          -9.131
REMARK INTER:                 -13.480
REMARK INTRA:                   4.349
REMARK UNBOUND:                 5.292
REMARK  Name = cpd126.pdb
REMARK  29 active torsions:
REMARK  status: ('A' for Active; 'I' for Inactive)
REMARK    1  A    between atoms: C_1  and  C_2
REMARK    2  A    between atoms: C_2  and  N_3
REMARK    3  A    between atoms: N_3  and  C_4
REMARK    4  A    between atoms: N_3  and  C_6
REMARK    5  A    between atoms: N_3  and  C_8
REMARK    6  A    between atoms: C_4  and  C_5
REMARK    7  A    between atoms: C_6  and  C_7
REMARK    8  A    between atoms: C_8  and  C_9
REMARK    9  A    between atoms: C_9  and  O_10
REMARK   10  A    between atoms: O_10  and  C_11
REMARK   11  A    between atoms: C_13  and  O_14
REMARK   12  A    between atoms: O_14  and  C_15
REMARK   13  A    between atoms: C_15  and  C_16
REMARK   14  A    between atoms: C_16  and  N_17
REMARK   15  A    between atoms: N_17  and  C_18
REMARK   16  A    between atoms: N_17  and  C_20
REMARK   17  A    between atoms: N_17  and  C_22
REMARK   18  A    between atoms: C_18  and  C_19
REMARK   19  A    between atoms: C_20  and  C_21
REMARK   20  A    between atoms: C_22  and  C_23
REMARK   21  A    between atoms: C_25  and  C_26
REMARK   22  A    between atoms: N_28  and  C_29
REMARK   23  A    between atoms: C_29  and  C_30
REMARK   24  A    between atoms: C_30  and  C_31
REMARK   25  A    between atoms: C_31  and  C_32
REMARK   26  A    between atoms: C_32  and  C_33
REMARK   27  A    between atoms: C_33  and  C_34
REMARK   28  A    between atoms: N_36  and  N_37
REMARK   29  A    between atoms: N_37  and  C_38
REMARK                            x       y       z     vdW  Elec       q    Type
REMARK                         _______ _______ _______ _____ _____    ______ ____
ROOT
ATOM      1  C   UNL     1      43.222 -19.797 -39.199  0.00  0.00    +0.244 C 
ATOM      2  O   UNL     1      43.948 -20.740 -38.911  0.00  0.00    -0.270 OA
ATOM      3  N   UNL     1      43.341 -19.049 -40.353  0.00  0.00    -0.311 N 
ATOM      4  H   UNL     1      42.711 -18.313 -40.527  0.00  0.00    +0.000 HD
ENDROOT
BRANCH   1   9
ATOM      5  C   UNL     1      41.216 -19.323 -36.029  0.00  0.00    +0.125 A 
ATOM      6  C   UNL     1      40.205 -18.479 -36.508  0.00  0.00    +0.022 A 
ATOM      7  C   UNL     1      40.153 -18.101 -37.858  0.00  0.00    +0.125 A 
ATOM      8  C   UNL     1      41.127 -18.565 -38.735  0.00  0.00    -0.008 A 
ATOM      9  C   UNL     1      42.115 -19.440 -38.276  0.00  0.00    +0.044 A 
ATOM     10  C   UNL     1      42.129 -19.851 -36.939  0.00  0.00    -0.008 A 
BRANCH   7  11
ATOM     11  O   UNL     1      39.085 -17.332 -38.238  0.00  0.00    -0.494 OA
BRANCH  11  12
ATOM     12  C   UNL     1      39.366 -16.289 -39.184  0.00  0.00    +0.075 C 
BRANCH  12  13
ATOM     13  C   UNL     1      39.317 -14.926 -38.473  0.00  0.00    -0.053 C 
BRANCH  13  14
ATOM     14  N   UNL     1      40.609 -14.027 -38.616  0.00  0.00    +0.382 N 
BRANCH  14  15
ATOM     15  C   UNL     1      40.579 -13.287 -39.994  0.00  0.00    -0.091 C 
ATOM     16  C   UNL     1      41.375 -13.960 -41.101  0.00  0.00    -0.080 C 
ENDBRANCH  14  15
BRANCH  14  17
ATOM     17  C   UNL     1      40.454 -12.928 -37.505  0.00  0.00    -0.091 C 
ATOM     18  C   UNL     1      41.117 -11.597 -37.840  0.00  0.00    -0.080 C 
ENDBRANCH  14  17
BRANCH  14  19
ATOM     19  C   UNL     1      41.911 -14.836 -38.412  0.00  0.00    -0.091 C 
ATOM     20  C   UNL     1      42.200 -15.198 -36.963  0.00  0.00    -0.080 C 
ENDBRANCH  14  19
ENDBRANCH  13  14
ENDBRANCH  12  13
ENDBRANCH  11  12
ENDBRANCH   7  11
BRANCH   5  21
ATOM     21  O   UNL     1      41.240 -19.498 -34.668  0.00  0.00    -0.494 OA
BRANCH  21  22
ATOM     22  C   UNL     1      41.615 -20.765 -34.105  0.00  0.00    +0.075 C 
BRANCH  22  23
ATOM     23  C   UNL     1      40.242 -21.585 -33.371  0.00  0.00    -0.053 C 
BRANCH  23  24
ATOM     24  N   UNL     1      39.696 -22.240 -33.894  0.00  0.00    +0.382 N 
BRANCH  24  26
ATOM     25  C   UNL     1      37.842 -20.763 -32.811  0.00  0.00    -0.080 C 
ATOM     26  C   UNL     1      38.925 -21.603 -33.888  0.00  0.00    -0.091 C 
ENDBRANCH  24  26
BRANCH  24  27
ATOM     27  C   UNL     1      40.467 -22.877 -33.901  0.00  0.00    -0.091 C 
ATOM     28  C   UNL     1      40.651 -23.989 -32.610  0.00  0.00    -0.080 C 
ENDBRANCH  24  27
BRANCH  24  29
ATOM     29  C   UNL     1      39.151 -22.894 -34.418  0.00  0.00    -0.091 C 
ATOM     30  C   UNL     1      39.317 -22.971 -36.119  0.00  0.00    -0.080 C 
ENDBRANCH  24  29
ENDBRANCH  23  24
ENDBRANCH  22  23
ENDBRANCH  21  22
ENDBRANCH   5  21
ENDBRANCH   1   9
BRANCH   3  31
ATOM     31  C   UNL     1      44.394 -19.345 -41.315  0.00  0.00    +0.012 C 
BRANCH  31  32
ATOM     32  C   UNL     1      43.900 -20.280 -42.412  0.00  0.00    -0.037 C 
BRANCH  32  33
ATOM     33  C   UNL     1      44.932 -21.351 -42.773  0.00  0.00    -0.051 C 
BRANCH  33  34
ATOM     34  C   UNL     1      46.208 -21.113 -41.971  0.00  0.00    -0.045 C 
BRANCH  34  35
ATOM     35  C   UNL     1      46.630 -22.308 -41.119  0.00  0.00    +0.025 C 
BRANCH  35  36
ATOM     36  C   UNL     1      47.574 -21.826 -40.036  0.00  0.00    +0.229 C 
ATOM     37  O   UNL     1      48.786 -22.009 -40.086  0.00  0.00    -0.274 OA
ATOM     38  N   UNL     1      46.939 -21.091 -39.045  0.00  0.00    -0.236 N 
ATOM     39  H   UNL     1      46.002 -21.253 -38.790  0.00  0.00    +0.000 HD
BRANCH  38  40
ATOM     40  N   UNL     1      47.729 -20.092 -38.424  0.00  0.00    -0.264 N 
ATOM     41  H   UNL     1      48.711 -20.116 -38.358  0.00  0.00    +0.000 HD
BRANCH  40  42
ATOM     42  C   UNL     1      46.908 -19.046 -37.910  0.00  0.00    +0.058 A 
ATOM     43  C   UNL     1      46.663 -17.920 -38.727  0.00  0.00    -0.003 A 
ATOM     44  C   UNL     1      45.820 -16.930 -38.230  0.00  0.00    +0.047 A 
ATOM     45  N   UNL     1      45.207 -17.021 -37.030  0.00  0.00    -0.251 NA
ATOM     46  C   UNL     1      45.427 -18.096 -36.258  0.00  0.00    +0.073 A 
ATOM     47  C   UNL     1      44.791 -18.154 -35.025  0.00  0.00    -0.036 A 
ATOM     48  C   UNL     1      44.947 -19.239 -34.162  0.00  0.00    -0.060 A 
ATOM     49  C   UNL     1      45.753 -20.303 -34.539  0.00  0.00    -0.061 A 
ATOM     50  C   UNL     1      46.403 -20.269 -35.771  0.00  0.00    -0.051 A 
ATOM     51  C   UNL     1      46.263 -19.162 -36.649  0.00  0.00    +0.023 A 
ATOM     52  C   UNL     1      45.469 -15.705 -39.035  0.00  0.00    -0.010 C 
ATOM     53  C   UNL     1      46.453 -15.412 -40.163  0.00  0.00    -0.047 C 
ATOM     54  C   UNL     1      46.742 -16.684 -40.947  0.00  0.00    -0.049 C 
ATOM     55  C   UNL     1      47.386 -17.731 -40.040  0.00  0.00    -0.024 C 
ENDBRANCH  40  42
ENDBRANCH  38  40
ENDBRANCH  35  36
ENDBRANCH  34  35
ENDBRANCH  33  34
ENDBRANCH  32  33
ENDBRANCH  31  32
ENDBRANCH   3  31
TORSDOF 23
ENDMDL
MODEL 13
REMARK VINA RESULT:    -6.669     18.435     22.494
REMARK INTER + INTRA:          -8.979
REMARK INTER:                 -13.453
REMARK INTRA:                   4.474
REMARK UNBOUND:                 5.292
REMARK  Name = cpd126.pdb
REMARK  29 active torsions:
REMARK  status: ('A' for Active; 'I' for Inactive)
REMARK    1  A    between atoms: C_1  and  C_2
REMARK    2  A    between atoms: C_2  and  N_3
REMARK    3  A    between atoms: N_3  and  C_4
REMARK    4  A    between atoms: N_3  and  C_6
REMARK    5  A    between atoms: N_3  and  C_8
REMARK    6  A    between atoms: C_4  and  C_5
REMARK    7  A    between atoms: C_6  and  C_7
REMARK    8  A    between atoms: C_8  and  C_9
REMARK    9  A    between atoms: C_9  and  O_10
REMARK   10  A    between atoms: O_10  and  C_11
REMARK   11  A    between atoms: C_13  and  O_14
REMARK   12  A    between atoms: O_14  and  C_15
REMARK   13  A    between atoms: C_15  and  C_16
REMARK   14  A    between atoms: C_16  and  N_17
REMARK   15  A    between atoms: N_17  and  C_18
REMARK   16  A    between atoms: N_17  and  C_20
REMARK   17  A    between atoms: N_17  and  C_22
REMARK   18  A    between atoms: C_18  and  C_19
REMARK   19  A    between atoms: C_20  and  C_21
REMARK   20  A    between atoms: C_22  and  C_23
REMARK   21  A    between atoms: C_25  and  C_26
REMARK   22  A    between atoms: N_28  and  C_29
REMARK   23  A    between atoms: C_29  and  C_30
REMARK   24  A    between atoms: C_30  and  C_31
REMARK   25  A    between atoms: C_31  and  C_32
REMARK   26  A    between atoms: C_32  and  C_33
REMARK   27  A    between atoms: C_33  and  C_34
REMARK   28  A    between atoms: N_36  and  N_37
REMARK   29  A    between atoms: N_37  and  C_38
REMARK                            x       y       z     vdW  Elec       q    Type
REMARK                         _______ _______ _______ _____ _____    ______ ____
ROOT
ATOM      1  C   UNL     1      43.038 -17.760 -39.985  0.00  0.00    +0.244 C 
ATOM      2  O   UNL     1      43.075 -16.605 -40.390  0.00  0.00    -0.270 OA
ATOM      3  N   UNL     1      43.673 -18.819 -40.600  0.00  0.00    -0.311 N 
ATOM      4  H   UNL     1      43.612 -19.720 -40.209  0.00  0.00    +0.000 HD
ENDROOT
BRANCH   1   9
ATOM      5  C   UNL     1      41.756 -19.574 -36.923  0.00  0.00    +0.125 A 
ATOM      6  C   UNL     1      41.183 -18.499 -36.230  0.00  0.00    +0.022 A 
ATOM      7  C   UNL     1      41.176 -17.205 -36.772  0.00  0.00    +0.125 A 
ATOM      8  C   UNL     1      41.757 -16.982 -38.016  0.00  0.00    -0.008 A 
ATOM      9  C   UNL     1      42.295 -18.054 -38.733  0.00  0.00    +0.044 A 
ATOM     10  C   UNL     1      42.251 -19.349 -38.207  0.00  0.00    -0.008 A 
BRANCH   7  11
ATOM     11  O   UNL     1      40.528 -16.240 -36.047  0.00  0.00    -0.494 OA
BRANCH  11  12
ATOM     12  C   UNL     1      39.397 -16.681 -35.280  0.00  0.00    +0.075 C 
BRANCH  12  13
ATOM     13  C   UNL     1      38.927 -15.543 -34.360  0.00  0.00    -0.053 C 
BRANCH  13  14
ATOM     14  N   UNL     1      39.181 -15.756 -32.814  0.00  0.00    +0.382 N 
BRANCH  14  15
ATOM     15  C   UNL     1      38.675 -17.176 -32.394  0.00  0.00    -0.091 C 
ATOM     16  C   UNL     1      39.760 -18.131 -31.924  0.00  0.00    -0.080 C 
ENDBRANCH  14  15
BRANCH  14  17
ATOM     17  C   UNL     1      40.744 -15.766 -32.665  0.00  0.00    -0.091 C 
ATOM     18  C   UNL     1      41.415 -14.436 -32.988  0.00  0.00    -0.080 C 
ENDBRANCH  14  17
BRANCH  14  19
ATOM     19  C   UNL     1      38.553 -14.632 -31.957  0.00  0.00    -0.091 C 
ATOM     20  C   UNL     1      38.118 -15.075 -30.568  0.00  0.00    -0.080 C 
ENDBRANCH  14  19
ENDBRANCH  13  14
ENDBRANCH  12  13
ENDBRANCH  11  12
ENDBRANCH   7  11
BRANCH   5  21
ATOM     21  O   UNL     1      41.829 -20.753 -36.225  0.00  0.00    -0.494 OA
BRANCH  21  22
ATOM     22  C   UNL     1      41.281 -20.847 -34.901  0.00  0.00    +0.075 C 
BRANCH  22  23
ATOM     23  C   UNL     1      40.576 -22.432 -34.598  0.00  0.00    -0.053 C 
BRANCH  23  24
ATOM     24  N   UNL     1      39.783 -22.534 -33.998  0.00  0.00    +0.382 N 
BRANCH  24  26
ATOM     25  C   UNL     1      41.355 -23.371 -32.095  0.00  0.00    -0.080 C 
ATOM     26  C   UNL     1      40.377 -22.441 -33.198  0.00  0.00    -0.091 C 
ENDBRANCH  24  26
BRANCH  24  27
ATOM     27  C   UNL     1      39.190 -22.626 -34.797  0.00  0.00    -0.091 C 
ATOM     28  C   UNL     1      38.409 -24.122 -35.097  0.00  0.00    -0.080 C 
ENDBRANCH  24  27
BRANCH  24  29
ATOM     29  C   UNL     1      38.991 -22.636 -33.397  0.00  0.00    -0.091 C 
ATOM     30  C   UNL     1      38.162 -21.246 -32.840  0.00  0.00    -0.080 C 
ENDBRANCH  24  29
ENDBRANCH  23  24
ENDBRANCH  22  23
ENDBRANCH  21  22
ENDBRANCH   5  21
ENDBRANCH   1   9
BRANCH   3  31
ATOM     31  C   UNL     1      44.432 -18.610 -41.825  0.00  0.00    +0.012 C 
BRANCH  31  32
ATOM     32  C   UNL     1      44.681 -19.923 -42.557  0.00  0.00    -0.037 C 
BRANCH  32  33
ATOM     33  C   UNL     1      43.915 -21.092 -41.932  0.00  0.00    -0.051 C 
BRANCH  33  34
ATOM     34  C   UNL     1      44.864 -21.909 -41.061  0.00  0.00    -0.045 C 
BRANCH  34  35
ATOM     35  C   UNL     1      46.333 -21.769 -41.455  0.00  0.00    +0.025 C 
BRANCH  35  36
ATOM     36  C   UNL     1      47.141 -21.446 -40.214  0.00  0.00    +0.229 C 
ATOM     37  O   UNL     1      48.272 -21.884 -40.029  0.00  0.00    -0.274 OA
ATOM     38  N   UNL     1      46.508 -20.547 -39.369  0.00  0.00    -0.236 N 
ATOM     39  H   UNL     1      45.527 -20.494 -39.296  0.00  0.00    +0.000 HD
BRANCH  38  40
ATOM     40  N   UNL     1      47.366 -19.709 -38.615  0.00  0.00    -0.264 N 
ATOM     41  H   UNL     1      48.344 -19.811 -38.563  0.00  0.00    +0.000 HD
BRANCH  40  42
ATOM     42  C   UNL     1      46.621 -18.697 -37.941  0.00  0.00    +0.058 A 
ATOM     43  C   UNL     1      46.461 -17.445 -38.575  0.00  0.00    -0.003 A 
ATOM     44  C   UNL     1      45.690 -16.484 -37.927  0.00  0.00    +0.047 A 
ATOM     45  N   UNL     1      45.067 -16.713 -36.750  0.00  0.00    -0.251 NA
ATOM     46  C   UNL     1      45.207 -17.906 -36.153  0.00  0.00    +0.073 A 
ATOM     47  C   UNL     1      44.563 -18.104 -34.938  0.00  0.00    -0.036 A 
ATOM     48  C   UNL     1      44.638 -19.317 -34.251  0.00  0.00    -0.060 A 
ATOM     49  C   UNL     1      45.366 -20.366 -34.792  0.00  0.00    -0.061 A 
ATOM     50  C   UNL     1      46.021 -20.192 -36.009  0.00  0.00    -0.051 A 
ATOM     51  C   UNL     1      45.965 -18.957 -36.707  0.00  0.00    +0.023 A 
ATOM     52  C   UNL     1      45.431 -15.129 -38.534  0.00  0.00    -0.010 C 
ATOM     53  C   UNL     1      46.438 -14.740 -39.611  0.00  0.00    -0.047 C 
ATOM     54  C   UNL     1      46.637 -15.894 -40.582  0.00  0.00    -0.049 C 
ATOM     55  C   UNL     1      47.200 -17.110 -39.850  0.00  0.00    -0.024 C 
ENDBRANCH  40  42
ENDBRANCH  38  40
ENDBRANCH  35  36
ENDBRANCH  34  35
ENDBRANCH  33  34
ENDBRANCH  32  33
ENDBRANCH  31  32
ENDBRANCH   3  31
TORSDOF 23
ENDMDL
MODEL 14
REMARK VINA RESULT:    -6.595     18.438     23.444
REMARK INTER + INTRA:          -8.821
REMARK INTER:                 -13.333
REMARK INTRA:                   4.512
REMARK UNBOUND:                 5.292
REMARK  Name = cpd126.pdb
REMARK  29 active torsions:
REMARK  status: ('A' for Active; 'I' for Inactive)
REMARK    1  A    between atoms: C_1  and  C_2
REMARK    2  A    between atoms: C_2  and  N_3
REMARK    3  A    between atoms: N_3  and  C_4
REMARK    4  A    between atoms: N_3  and  C_6
REMARK    5  A    between atoms: N_3  and  C_8
REMARK    6  A    between atoms: C_4  and  C_5
REMARK    7  A    between atoms: C_6  and  C_7
REMARK    8  A    between atoms: C_8  and  C_9
REMARK    9  A    between atoms: C_9  and  O_10
REMARK   10  A    between atoms: O_10  and  C_11
REMARK   11  A    between atoms: C_13  and  O_14
REMARK   12  A    between atoms: O_14  and  C_15
REMARK   13  A    between atoms: C_15  and  C_16
REMARK   14  A    between atoms: C_16  and  N_17
REMARK   15  A    between atoms: N_17  and  C_18
REMARK   16  A    between atoms: N_17  and  C_20
REMARK   17  A    between atoms: N_17  and  C_22
REMARK   18  A    between atoms: C_18  and  C_19
REMARK   19  A    between atoms: C_20  and  C_21
REMARK   20  A    between atoms: C_22  and  C_23
REMARK   21  A    between atoms: C_25  and  C_26
REMARK   22  A    between atoms: N_28  and  C_29
REMARK   23  A    between atoms: C_29  and  C_30
REMARK   24  A    between atoms: C_30  and  C_31
REMARK   25  A    between atoms: C_31  and  C_32
REMARK   26  A    between atoms: C_32  and  C_33
REMARK   27  A    between atoms: C_33  and  C_34
REMARK   28  A    between atoms: N_36  and  N_37
REMARK   29  A    between atoms: N_37  and  C_38
REMARK                            x       y       z     vdW  Elec       q    Type
REMARK                         _______ _______ _______ _____ _____    ______ ____
ROOT
ATOM      1  C   UNL     1      41.652 -18.627 -37.104  0.00  0.00    +0.244 C 
ATOM      2  O   UNL     1      40.919 -18.082 -36.289  0.00  0.00    -0.270 OA
ATOM      3  N   UNL     1      41.205 -19.287 -38.230  0.00  0.00    -0.311 N 
ATOM      4  H   UNL     1      41.854 -19.690 -38.852  0.00  0.00    +0.000 HD
ENDROOT
BRANCH   1   9
ATOM      5  C   UNL     1      45.315 -19.571 -37.089  0.00  0.00    +0.125 A 
ATOM      6  C   UNL     1      45.885 -18.313 -36.850  0.00  0.00    +0.022 A 
ATOM      7  C   UNL     1      45.086 -17.178 -36.653  0.00  0.00    +0.125 A 
ATOM      8  C   UNL     1      43.701 -17.300 -36.707  0.00  0.00    -0.008 A 
ATOM      9  C   UNL     1      43.122 -18.555 -36.904  0.00  0.00    +0.044 A 
ATOM     10  C   UNL     1      43.927 -19.691 -37.048  0.00  0.00    -0.008 A 
BRANCH   7  11
ATOM     11  O   UNL     1      45.740 -16.012 -36.356  0.00  0.00    -0.494 OA
BRANCH  11  12
ATOM     12  C   UNL     1      45.586 -14.944 -37.302  0.00  0.00    +0.075 C 
BRANCH  12  13
ATOM     13  C   UNL     1      46.451 -15.227 -38.541  0.00  0.00    -0.053 C 
BRANCH  13  14
ATOM     14  N   UNL     1      45.665 -15.546 -39.875  0.00  0.00    +0.382 N 
BRANCH  14  15
ATOM     15  C   UNL     1      44.184 -15.060 -39.734  0.00  0.00    -0.091 C 
ATOM     16  C   UNL     1      43.132 -16.086 -40.123  0.00  0.00    -0.080 C 
ENDBRANCH  14  15
BRANCH  14  17
ATOM     17  C   UNL     1      46.342 -14.639 -40.963  0.00  0.00    -0.091 C 
ATOM     18  C   UNL     1      47.455 -13.743 -40.432  0.00  0.00    -0.080 C 
ENDBRANCH  14  17
BRANCH  14  19
ATOM     19  C   UNL     1      45.758 -17.039 -40.267  0.00  0.00    -0.091 C 
ATOM     20  C   UNL     1      47.123 -17.463 -40.787  0.00  0.00    -0.080 C 
ENDBRANCH  14  19
ENDBRANCH  13  14
ENDBRANCH  12  13
ENDBRANCH  11  12
ENDBRANCH   7  11
BRANCH   5  21
ATOM     21  O   UNL     1      46.201 -20.569 -37.409  0.00  0.00    -0.494 OA
BRANCH  21  22
ATOM     22  C   UNL     1      46.915 -20.533 -38.654  0.00  0.00    +0.075 C 
BRANCH  22  23
ATOM     23  C   UNL     1      46.242 -21.661 -39.825  0.00  0.00    -0.053 C 
BRANCH  23  24
ATOM     24  N   UNL     1      46.128 -21.398 -40.783  0.00  0.00    +0.382 N 
BRANCH  24  26
ATOM     25  C   UNL     1      43.888 -20.078 -40.612  0.00  0.00    -0.080 C 
ATOM     26  C   UNL     1      45.145 -21.285 -40.635  0.00  0.00    -0.091 C 
ENDBRANCH  24  26
BRANCH  24  27
ATOM     27  C   UNL     1      47.110 -21.512 -40.931  0.00  0.00    -0.091 C 
ATOM     28  C   UNL     1      47.788 -23.085 -40.912  0.00  0.00    -0.080 C 
ENDBRANCH  24  27
BRANCH  24  29
ATOM     29  C   UNL     1      46.014 -21.135 -41.741  0.00  0.00    -0.091 C 
ATOM     30  C   UNL     1      45.277 -22.222 -42.839  0.00  0.00    -0.080 C 
ENDBRANCH  24  29
ENDBRANCH  23  24
ENDBRANCH  22  23
ENDBRANCH  21  22
ENDBRANCH   5  21
ENDBRANCH   1   9
BRANCH   3  31
ATOM     31  C   UNL     1      39.779 -19.391 -38.505  0.00  0.00    +0.012 C 
BRANCH  31  32
ATOM     32  C   UNL     1      39.317 -20.843 -38.517  0.00  0.00    -0.037 C 
BRANCH  32  33
ATOM     33  C   UNL     1      40.490 -21.826 -38.518  0.00  0.00    -0.051 C 
BRANCH  33  34
ATOM     34  C   UNL     1      40.750 -22.303 -37.092  0.00  0.00    -0.045 C 
BRANCH  34  35
ATOM     35  C   UNL     1      39.542 -22.969 -36.437  0.00  0.00    +0.025 C 
BRANCH  35  36
ATOM     36  C   UNL     1      39.332 -22.359 -35.066  0.00  0.00    +0.229 C 
ATOM     37  O   UNL     1      38.595 -22.862 -34.224  0.00  0.00    -0.274 OA
ATOM     38  N   UNL     1      40.119 -21.238 -34.841  0.00  0.00    -0.236 N 
ATOM     39  H   UNL     1      40.393 -20.634 -35.568  0.00  0.00    +0.000 HD
BRANCH  38  40
ATOM     40  N   UNL     1      40.501 -21.021 -33.494  0.00  0.00    -0.264 N 
ATOM     41  H   UNL     1      40.600 -21.731 -32.819  0.00  0.00    +0.000 HD
BRANCH  40  42
ATOM     42  C   UNL     1      40.721 -19.634 -33.249  0.00  0.00    +0.058 A 
ATOM     43  C   UNL     1      39.606 -18.818 -32.955  0.00  0.00    -0.003 A 
ATOM     44  C   UNL     1      39.843 -17.475 -32.669  0.00  0.00    +0.047 A 
ATOM     45  N   UNL     1      41.082 -16.940 -32.627  0.00  0.00    -0.251 NA
ATOM     46  C   UNL     1      42.143 -17.717 -32.893  0.00  0.00    +0.073 A 
ATOM     47  C   UNL     1      43.403 -17.133 -32.853  0.00  0.00    -0.036 A 
ATOM     48  C   UNL     1      44.565 -17.865 -33.100  0.00  0.00    -0.060 A 
ATOM     49  C   UNL     1      44.474 -19.219 -33.386  0.00  0.00    -0.061 A 
ATOM     50  C   UNL     1      43.221 -19.828 -33.433  0.00  0.00    -0.051 A 
ATOM     51  C   UNL     1      42.033 -19.089 -33.199  0.00  0.00    +0.023 A 
ATOM     52  C   UNL     1      38.725 -16.529 -32.311  0.00  0.00    -0.010 C 
ATOM     53  C   UNL     1      37.349 -17.012 -32.755  0.00  0.00    -0.047 C 
ATOM     54  C   UNL     1      37.157 -18.470 -32.367  0.00  0.00    -0.049 C 
ATOM     55  C   UNL     1      38.195 -19.346 -33.067  0.00  0.00    -0.024 C 
ENDBRANCH  40  42
ENDBRANCH  38  40
ENDBRANCH  35  36
ENDBRANCH  34  35
ENDBRANCH  33  34
ENDBRANCH  32  33
ENDBRANCH  31  32
ENDBRANCH   3  31
TORSDOF 23
ENDMDL
MODEL 15
REMARK VINA RESULT:    -6.568     18.341     23.552
REMARK INTER + INTRA:          -8.764
REMARK INTER:                 -12.982
REMARK INTRA:                   4.218
REMARK UNBOUND:                 5.292
REMARK  Name = cpd126.pdb
REMARK  29 active torsions:
REMARK  status: ('A' for Active; 'I' for Inactive)
REMARK    1  A    between atoms: C_1  and  C_2
REMARK    2  A    between atoms: C_2  and  N_3
REMARK    3  A    between atoms: N_3  and  C_4
REMARK    4  A    between atoms: N_3  and  C_6
REMARK    5  A    between atoms: N_3  and  C_8
REMARK    6  A    between atoms: C_4  and  C_5
REMARK    7  A    between atoms: C_6  and  C_7
REMARK    8  A    between atoms: C_8  and  C_9
REMARK    9  A    between atoms: C_9  and  O_10
REMARK   10  A    between atoms: O_10  and  C_11
REMARK   11  A    between atoms: C_13  and  O_14
REMARK   12  A    between atoms: O_14  and  C_15
REMARK   13  A    between atoms: C_15  and  C_16
REMARK   14  A    between atoms: C_16  and  N_17
REMARK   15  A    between atoms: N_17  and  C_18
REMARK   16  A    between atoms: N_17  and  C_20
REMARK   17  A    between atoms: N_17  and  C_22
REMARK   18  A    between atoms: C_18  and  C_19
REMARK   19  A    between atoms: C_20  and  C_21
REMARK   20  A    between atoms: C_22  and  C_23
REMARK   21  A    between atoms: C_25  and  C_26
REMARK   22  A    between atoms: N_28  and  C_29
REMARK   23  A    between atoms: C_29  and  C_30
REMARK   24  A    between atoms: C_30  and  C_31
REMARK   25  A    between atoms: C_31  and  C_32
REMARK   26  A    between atoms: C_32  and  C_33
REMARK   27  A    between atoms: C_33  and  C_34
REMARK   28  A    between atoms: N_36  and  N_37
REMARK   29  A    between atoms: N_37  and  C_38
REMARK                            x       y       z     vdW  Elec       q    Type
REMARK                         _______ _______ _______ _____ _____    ______ ____
ROOT
ATOM      1  C   UNL     1      42.969 -18.963 -34.300  0.00  0.00    +0.244 C 
ATOM      2  O   UNL     1      42.847 -19.981 -33.630  0.00  0.00    -0.270 OA
ATOM      3  N   UNL     1      42.071 -17.916 -34.292  0.00  0.00    -0.311 N 
ATOM      4  H   UNL     1      42.242 -17.120 -34.845  0.00  0.00    +0.000 HD
ENDROOT
BRANCH   1   9
ATOM      5  C   UNL     1      45.739 -19.746 -36.754  0.00  0.00    +0.125 A 
ATOM      6  C   UNL     1      46.209 -18.450 -37.007  0.00  0.00    +0.022 A 
ATOM      7  C   UNL     1      45.660 -17.337 -36.354  0.00  0.00    +0.125 A 
ATOM      8  C   UNL     1      44.622 -17.522 -35.445  0.00  0.00    -0.008 A 
ATOM      9  C   UNL     1      44.173 -18.812 -35.157  0.00  0.00    +0.044 A 
ATOM     10  C   UNL     1      44.762 -19.920 -35.775  0.00  0.00    -0.008 A 
BRANCH   7  11
ATOM     11  O   UNL     1      46.239 -16.124 -36.617  0.00  0.00    -0.494 OA
BRANCH  11  12
ATOM     12  C   UNL     1      45.413 -15.167 -37.297  0.00  0.00    +0.075 C 
BRANCH  12  13
ATOM     13  C   UNL     1      45.118 -15.664 -38.721  0.00  0.00    -0.053 C 
BRANCH  13  14
ATOM     14  N   UNL     1      43.611 -15.560 -39.190  0.00  0.00    +0.382 N 
BRANCH  14  15
ATOM     15  C   UNL     1      43.508 -14.567 -40.394  0.00  0.00    -0.091 C 
ATOM     16  C   UNL     1      43.350 -15.224 -41.756  0.00  0.00    -0.080 C 
ENDBRANCH  14  15
BRANCH  14  17
ATOM     17  C   UNL     1      43.267 -16.988 -39.744  0.00  0.00    -0.091 C 
ATOM     18  C   UNL     1      42.845 -17.992 -38.677  0.00  0.00    -0.080 C 
ENDBRANCH  14  17
BRANCH  14  19
ATOM     19  C   UNL     1      42.662 -15.176 -38.030  0.00  0.00    -0.091 C 
ATOM     20  C   UNL     1      41.769 -13.981 -38.324  0.00  0.00    -0.080 C 
ENDBRANCH  14  19
ENDBRANCH  13  14
ENDBRANCH  12  13
ENDBRANCH  11  12
ENDBRANCH   7  11
BRANCH   5  21
ATOM     21  O   UNL     1      46.256 -20.728 -37.562  0.00  0.00    -0.494 OA
BRANCH  21  22
ATOM     22  C   UNL     1      45.728 -20.936 -38.881  0.00  0.00    +0.075 C 
BRANCH  22  23
ATOM     23  C   UNL     1      46.889 -20.490 -40.126  0.00  0.00    -0.053 C 
BRANCH  23  24
ATOM     24  N   UNL     1      46.608 -20.408 -41.083  0.00  0.00    +0.382 N 
BRANCH  24  26
ATOM     25  C   UNL     1      46.785 -22.975 -41.495  0.00  0.00    -0.080 C 
ATOM     26  C   UNL     1      47.074 -21.268 -41.293  0.00  0.00    -0.091 C 
ENDBRANCH  24  26
BRANCH  24  27
ATOM     27  C   UNL     1      46.143 -19.548 -40.873  0.00  0.00    -0.091 C 
ATOM     28  C   UNL     1      47.032 -18.083 -40.892  0.00  0.00    -0.080 C 
ENDBRANCH  24  27
BRANCH  24  29
ATOM     29  C   UNL     1      46.328 -20.326 -42.039  0.00  0.00    -0.091 C 
ATOM     30  C   UNL     1      44.670 -20.432 -42.451  0.00  0.00    -0.080 C 
ENDBRANCH  24  29
ENDBRANCH  23  24
ENDBRANCH  22  23
ENDBRANCH  21  22
ENDBRANCH   5  21
ENDBRANCH   1   9
BRANCH   3  31
ATOM     31  C   UNL     1      40.872 -17.981 -33.468  0.00  0.00    +0.012 C 
BRANCH  31  32
ATOM     32  C   UNL     1      39.685 -17.322 -34.159  0.00  0.00    -0.037 C 
BRANCH  32  33
ATOM     33  C   UNL     1      40.107 -16.478 -35.364  0.00  0.00    -0.051 C 
BRANCH  33  34
ATOM     34  C   UNL     1      38.875 -16.128 -36.192  0.00  0.00    -0.045 C 
BRANCH  34  35
ATOM     35  C   UNL     1      39.072 -16.316 -37.695  0.00  0.00    +0.025 C 
BRANCH  35  36
ATOM     36  C   UNL     1      38.287 -17.533 -38.141  0.00  0.00    +0.229 C 
ATOM     37  O   UNL     1      38.162 -17.843 -39.322  0.00  0.00    -0.274 OA
ATOM     38  N   UNL     1      37.809 -18.293 -37.084  0.00  0.00    -0.236 N 
ATOM     39  H   UNL     1      37.571 -17.894 -36.216  0.00  0.00    +0.000 HD
BRANCH  38  40
ATOM     40  N   UNL     1      37.686 -19.682 -37.336  0.00  0.00    -0.264 N 
ATOM     41  H   UNL     1      36.943 -20.097 -37.830  0.00  0.00    +0.000 HD
BRANCH  40  42
ATOM     42  C   UNL     1      38.786 -20.396 -36.777  0.00  0.00    +0.058 A 
ATOM     43  C   UNL     1      38.741 -20.733 -35.406  0.00  0.00    -0.003 A 
ATOM     44  C   UNL     1      39.800 -21.474 -34.886  0.00  0.00    +0.047 A 
ATOM     45  N   UNL     1      40.834 -21.907 -35.639  0.00  0.00    -0.251 NA
ATOM     46  C   UNL     1      40.871 -21.600 -36.944  0.00  0.00    +0.073 A 
ATOM     47  C   UNL     1      41.954 -22.051 -37.688  0.00  0.00    -0.036 A 
ATOM     48  C   UNL     1      42.071 -21.794 -39.055  0.00  0.00    -0.060 A 
ATOM     49  C   UNL     1      41.078 -21.075 -39.703  0.00  0.00    -0.061 A 
ATOM     50  C   UNL     1      39.982 -20.610 -38.979  0.00  0.00    -0.051 A 
ATOM     51  C   UNL     1      39.862 -20.853 -37.586  0.00  0.00    +0.023 A 
ATOM     52  C   UNL     1      39.831 -21.912 -33.444  0.00  0.00    -0.010 C 
ATOM     53  C   UNL     1      38.916 -21.097 -32.537  0.00  0.00    -0.047 C 
ATOM     54  C   UNL     1      37.543 -20.953 -33.174  0.00  0.00    -0.049 C 
ATOM     55  C   UNL     1      37.651 -20.206 -34.502  0.00  0.00    -0.024 C 
ENDBRANCH  40  42
ENDBRANCH  38  40
ENDBRANCH  35  36
ENDBRANCH  34  35
ENDBRANCH  33  34
ENDBRANCH  32  33
ENDBRANCH  31  32
ENDBRANCH   3  31
TORSDOF 23
ENDMDL
MODEL 16
REMARK VINA RESULT:    -6.466     19.667     24.534
REMARK INTER + INTRA:          -8.546
REMARK INTER:                 -12.726
REMARK INTRA:                   4.180
REMARK UNBOUND:                 5.292
REMARK  Name = cpd126.pdb
REMARK  29 active torsions:
REMARK  status: ('A' for Active; 'I' for Inactive)
REMARK    1  A    between atoms: C_1  and  C_2
REMARK    2  A    between atoms: C_2  and  N_3
REMARK    3  A    between atoms: N_3  and  C_4
REMARK    4  A    between atoms: N_3  and  C_6
REMARK    5  A    between atoms: N_3  and  C_8
REMARK    6  A    between atoms: C_4  and  C_5
REMARK    7  A    between atoms: C_6  and  C_7
REMARK    8  A    between atoms: C_8  and  C_9
REMARK    9  A    between atoms: C_9  and  O_10
REMARK   10  A    between atoms: O_10  and  C_11
REMARK   11  A    between atoms: C_13  and  O_14
REMARK   12  A    between atoms: O_14  and  C_15
REMARK   13  A    between atoms: C_15  and  C_16
REMARK   14  A    between atoms: C_16  and  N_17
REMARK   15  A    between atoms: N_17  and  C_18
REMARK   16  A    between atoms: N_17  and  C_20
REMARK   17  A    between atoms: N_17  and  C_22
REMARK   18  A    between atoms: C_18  and  C_19
REMARK   19  A    between atoms: C_20  and  C_21
REMARK   20  A    between atoms: C_22  and  C_23
REMARK   21  A    between atoms: C_25  and  C_26
REMARK   22  A    between atoms: N_28  and  C_29
REMARK   23  A    between atoms: C_29  and  C_30
REMARK   24  A    between atoms: C_30  and  C_31
REMARK   25  A    between atoms: C_31  and  C_32
REMARK   26  A    between atoms: C_32  and  C_33
REMARK   27  A    between atoms: C_33  and  C_34
REMARK   28  A    between atoms: N_36  and  N_37
REMARK   29  A    between atoms: N_37  and  C_38
REMARK                            x       y       z     vdW  Elec       q    Type
REMARK                         _______ _______ _______ _____ _____    ______ ____
ROOT
ATOM      1  C   UNL     1      46.979 -15.808 -37.585  0.00  0.00    +0.244 C 
ATOM      2  O   UNL     1      47.238 -14.807 -36.928  0.00  0.00    -0.270 OA
ATOM      3  N   UNL     1      47.037 -15.869 -38.962  0.00  0.00    -0.311 N 
ATOM      4  H   UNL     1      46.829 -16.713 -39.424  0.00  0.00    +0.000 HD
ENDROOT
BRANCH   1   9
ATOM      5  C   UNL     1      46.394 -19.470 -36.842  0.00  0.00    +0.125 A 
ATOM      6  C   UNL     1      46.245 -19.411 -35.449  0.00  0.00    +0.022 A 
ATOM      7  C   UNL     1      46.292 -18.188 -34.764  0.00  0.00    +0.125 A 
ATOM      8  C   UNL     1      46.500 -17.012 -35.478  0.00  0.00    -0.008 A 
ATOM      9  C   UNL     1      46.609 -17.056 -36.870  0.00  0.00    +0.044 A 
ATOM     10  C   UNL     1      46.510 -18.275 -37.549  0.00  0.00    -0.008 A 
BRANCH   7  11
ATOM     11  O   UNL     1      46.064 -18.232 -33.414  0.00  0.00    -0.494 OA
BRANCH  11  12
ATOM     12  C   UNL     1      45.272 -17.164 -32.874  0.00  0.00    +0.075 C 
BRANCH  12  13
ATOM     13  C   UNL     1      43.789 -17.572 -32.880  0.00  0.00    -0.053 C 
BRANCH  13  14
ATOM     14  N   UNL     1      42.807 -16.591 -33.637  0.00  0.00    +0.382 N 
BRANCH  14  15
ATOM     15  C   UNL     1      43.632 -15.442 -34.305  0.00  0.00    -0.091 C 
ATOM     16  C   UNL     1      42.958 -14.775 -35.494  0.00  0.00    -0.080 C 
ENDBRANCH  14  15
BRANCH  14  17
ATOM     17  C   UNL     1      42.200 -17.454 -34.801  0.00  0.00    -0.091 C 
ATOM     18  C   UNL     1      42.601 -18.924 -34.767  0.00  0.00    -0.080 C 
ENDBRANCH  14  17
BRANCH  14  19
ATOM     19  C   UNL     1      41.690 -16.051 -32.713  0.00  0.00    -0.091 C 
ATOM     20  C   UNL     1      40.282 -16.422 -33.153  0.00  0.00    -0.080 C 
ENDBRANCH  14  19
ENDBRANCH  13  14
ENDBRANCH  12  13
ENDBRANCH  11  12
ENDBRANCH   7  11
BRANCH   5  21
ATOM     21  O   UNL     1      46.476 -20.733 -37.372  0.00  0.00    -0.494 OA
BRANCH  21  22
ATOM     22  C   UNL     1      45.986 -20.997 -38.696  0.00  0.00    +0.075 C 
BRANCH  22  23
ATOM     23  C   UNL     1      47.300 -21.234 -39.842  0.00  0.00    -0.053 C 
BRANCH  23  24
ATOM     24  N   UNL     1      47.123 -21.260 -40.826  0.00  0.00    +0.382 N 
BRANCH  24  26
ATOM     25  C   UNL     1      47.353 -18.762 -41.533  0.00  0.00    -0.080 C 
ATOM     26  C   UNL     1      46.904 -20.284 -40.812  0.00  0.00    -0.091 C 
ENDBRANCH  24  26
BRANCH  24  27
ATOM     27  C   UNL     1      47.343 -22.235 -40.840  0.00  0.00    -0.091 C 
ATOM     28  C   UNL     1      48.980 -22.728 -40.957  0.00  0.00    -0.080 C 
ENDBRANCH  24  27
BRANCH  24  29
ATOM     29  C   UNL     1      46.947 -21.286 -41.810  0.00  0.00    -0.091 C 
ATOM     30  C   UNL     1      45.457 -21.895 -42.390  0.00  0.00    -0.080 C 
ENDBRANCH  24  29
ENDBRANCH  23  24
ENDBRANCH  22  23
ENDBRANCH  21  22
ENDBRANCH   5  21
ENDBRANCH   1   9
BRANCH   3  31
ATOM     31  C   UNL     1      47.404 -14.691 -39.736  0.00  0.00    +0.012 C 
BRANCH  31  32
ATOM     32  C   UNL     1      46.320 -14.325 -40.742  0.00  0.00    -0.037 C 
BRANCH  32  33
ATOM     33  C   UNL     1      45.346 -15.478 -40.995  0.00  0.00    -0.051 C 
BRANCH  33  34
ATOM     34  C   UNL     1      43.951 -15.073 -40.529  0.00  0.00    -0.045 C 
BRANCH  34  35
ATOM     35  C   UNL     1      43.485 -15.810 -39.275  0.00  0.00    +0.025 C 
BRANCH  35  36
ATOM     36  C   UNL     1      41.976 -15.946 -39.323  0.00  0.00    +0.229 C 
ATOM     37  O   UNL     1      41.295 -15.453 -40.217  0.00  0.00    -0.274 OA
ATOM     38  N   UNL     1      41.468 -16.749 -38.312  0.00  0.00    -0.236 N 
ATOM     39  H   UNL     1      41.902 -16.822 -37.431  0.00  0.00    +0.000 HD
BRANCH  38  40
ATOM     40  N   UNL     1      40.283 -17.457 -38.632  0.00  0.00    -0.264 N 
ATOM     41  H   UNL     1      39.577 -17.123 -39.231  0.00  0.00    +0.000 HD
BRANCH  40  42
ATOM     42  C   UNL     1      40.253 -18.718 -37.967  0.00  0.00    +0.058 A 
ATOM     43  C   UNL     1      39.408 -18.866 -36.844  0.00  0.00    -0.003 A 
ATOM     44  C   UNL     1      39.352 -20.117 -36.236  0.00  0.00    +0.047 A 
ATOM     45  N   UNL     1      40.036 -21.188 -36.693  0.00  0.00    -0.251 NA
ATOM     46  C   UNL     1      40.827 -21.053 -37.768  0.00  0.00    +0.073 A 
ATOM     47  C   UNL     1      41.526 -22.171 -38.206  0.00  0.00    -0.036 A 
ATOM     48  C   UNL     1      42.361 -22.131 -39.324  0.00  0.00    -0.060 A 
ATOM     49  C   UNL     1      42.499 -20.947 -40.032  0.00  0.00    -0.061 A 
ATOM     50  C   UNL     1      41.810 -19.810 -39.612  0.00  0.00    -0.051 A 
ATOM     51  C   UNL     1      40.971 -19.838 -38.468  0.00  0.00    +0.023 A 
ATOM     52  C   UNL     1      38.458 -20.387 -35.053  0.00  0.00    -0.010 C 
ATOM     53  C   UNL     1      38.031 -19.126 -34.309  0.00  0.00    -0.047 C 
ATOM     54  C   UNL     1      37.552 -18.073 -35.297  0.00  0.00    -0.049 C 
ATOM     55  C   UNL     1      38.685 -17.682 -36.244  0.00  0.00    -0.024 C 
ENDBRANCH  40  42
ENDBRANCH  38  40
ENDBRANCH  35  36
ENDBRANCH  34  35
ENDBRANCH  33  34
ENDBRANCH  32  33
ENDBRANCH  31  32
ENDBRANCH   3  31
TORSDOF 23
ENDMDL
MODEL 17
REMARK VINA RESULT:    -6.451     18.808     23.778
REMARK INTER + INTRA:          -8.514
REMARK INTER:                 -13.232
REMARK INTRA:                   4.718
REMARK UNBOUND:                 5.292
REMARK  Name = cpd126.pdb
REMARK  29 active torsions:
REMARK  status: ('A' for Active; 'I' for Inactive)
REMARK    1  A    between atoms: C_1  and  C_2
REMARK    2  A    between atoms: C_2  and  N_3
REMARK    3  A    between atoms: N_3  and  C_4
REMARK    4  A    between atoms: N_3  and  C_6
REMARK    5  A    between atoms: N_3  and  C_8
REMARK    6  A    between atoms: C_4  and  C_5
REMARK    7  A    between atoms: C_6  and  C_7
REMARK    8  A    between atoms: C_8  and  C_9
REMARK    9  A    between atoms: C_9  and  O_10
REMARK   10  A    between atoms: O_10  and  C_11
REMARK   11  A    between atoms: C_13  and  O_14
REMARK   12  A    between atoms: O_14  and  C_15
REMARK   13  A    between atoms: C_15  and  C_16
REMARK   14  A    between atoms: C_16  and  N_17
REMARK   15  A    between atoms: N_17  and  C_18
REMARK   16  A    between atoms: N_17  and  C_20
REMARK   17  A    between atoms: N_17  and  C_22
REMARK   18  A    between atoms: C_18  and  C_19
REMARK   19  A    between atoms: C_20  and  C_21
REMARK   20  A    between atoms: C_22  and  C_23
REMARK   21  A    between atoms: C_25  and  C_26
REMARK   22  A    between atoms: N_28  and  C_29
REMARK   23  A    between atoms: C_29  and  C_30
REMARK   24  A    between atoms: C_30  and  C_31
REMARK   25  A    between atoms: C_31  and  C_32
REMARK   26  A    between atoms: C_32  and  C_33
REMARK   27  A    between atoms: C_33  and  C_34
REMARK   28  A    between atoms: N_36  and  N_37
REMARK   29  A    between atoms: N_37  and  C_38
REMARK                            x       y       z     vdW  Elec       q    Type
REMARK                         _______ _______ _______ _____ _____    ______ ____
ROOT
ATOM      1  C   UNL     1      44.153 -19.052 -33.776  0.00  0.00    +0.244 C 
ATOM      2  O   UNL     1      44.584 -18.885 -32.643  0.00  0.00    -0.270 OA
ATOM      3  N   UNL     1      42.822 -19.255 -34.079  0.00  0.00    -0.311 N 
ATOM      4  H   UNL     1      42.545 -19.366 -35.017  0.00  0.00    +0.000 HD
ENDROOT
BRANCH   1   9
ATOM      5  C   UNL     1      46.089 -20.045 -36.870  0.00  0.00    +0.125 A 
ATOM      6  C   UNL     1      46.620 -18.799 -37.231  0.00  0.00    +0.022 A 
ATOM      7  C   UNL     1      46.386 -17.656 -36.453  0.00  0.00    +0.125 A 
ATOM      8  C   UNL     1      45.604 -17.758 -35.307  0.00  0.00    -0.008 A 
ATOM      9  C   UNL     1      45.104 -19.002 -34.916  0.00  0.00    +0.044 A 
ATOM     10  C   UNL     1      45.386 -20.146 -35.671  0.00  0.00    -0.008 A 
BRANCH   7  11
ATOM     11  O   UNL     1      47.009 -16.503 -36.853  0.00  0.00    -0.494 OA
BRANCH  11  12
ATOM     12  C   UNL     1      47.342 -16.419 -38.246  0.00  0.00    +0.075 C 
BRANCH  12  13
ATOM     13  C   UNL     1      47.683 -14.963 -38.605  0.00  0.00    -0.053 C 
BRANCH  13  14
ATOM     14  N   UNL     1      46.919 -14.361 -39.851  0.00  0.00    +0.382 N 
BRANCH  14  15
ATOM     15  C   UNL     1      47.945 -14.055 -40.992  0.00  0.00    -0.091 C 
ATOM     16  C   UNL     1      48.401 -15.266 -41.789  0.00  0.00    -0.080 C 
ENDBRANCH  14  15
BRANCH  14  17
ATOM     17  C   UNL     1      46.005 -15.533 -40.361  0.00  0.00    -0.091 C 
ATOM     18  C   UNL     1      44.604 -15.101 -40.778  0.00  0.00    -0.080 C 
ENDBRANCH  14  17
BRANCH  14  19
ATOM     19  C   UNL     1      46.070 -13.124 -39.476  0.00  0.00    -0.091 C 
ATOM     20  C   UNL     1      46.485 -11.844 -40.186  0.00  0.00    -0.080 C 
ENDBRANCH  14  19
ENDBRANCH  13  14
ENDBRANCH  12  13
ENDBRANCH  11  12
ENDBRANCH   7  11
BRANCH   5  21
ATOM     21  O   UNL     1      46.268 -21.049 -37.788  0.00  0.00    -0.494 OA
BRANCH  21  22
ATOM     22  C   UNL     1      46.506 -20.736 -39.169  0.00  0.00    +0.075 C 
BRANCH  22  23
ATOM     23  C   UNL     1      45.990 -22.039 -40.233  0.00  0.00    -0.053 C 
BRANCH  23  24
ATOM     24  N   UNL     1      45.721 -21.854 -41.178  0.00  0.00    +0.382 N 
BRANCH  24  26
ATOM     25  C   UNL     1      43.375 -21.203 -40.248  0.00  0.00    -0.080 C 
ATOM     26  C   UNL     1      44.762 -22.004 -40.935  0.00  0.00    -0.091 C 
ENDBRANCH  24  26
BRANCH  24  27
ATOM     27  C   UNL     1      46.679 -21.703 -41.421  0.00  0.00    -0.091 C 
ATOM     28  C   UNL     1      47.619 -23.018 -41.991  0.00  0.00    -0.080 C 
ENDBRANCH  24  27
BRANCH  24  29
ATOM     29  C   UNL     1      45.452 -21.668 -42.123  0.00  0.00    -0.091 C 
ATOM     30  C   UNL     1      45.338 -20.051 -42.673  0.00  0.00    -0.080 C 
ENDBRANCH  24  29
ENDBRANCH  23  24
ENDBRANCH  22  23
ENDBRANCH  21  22
ENDBRANCH   5  21
ENDBRANCH   1   9
BRANCH   3  31
ATOM     31  C   UNL     1      41.826 -19.303 -33.018  0.00  0.00    +0.012 C 
BRANCH  31  32
ATOM     32  C   UNL     1      41.521 -20.738 -32.605  0.00  0.00    -0.037 C 
BRANCH  32  33
ATOM     33  C   UNL     1      40.025 -21.055 -32.663  0.00  0.00    -0.051 C 
BRANCH  33  34
ATOM     34  C   UNL     1      39.831 -22.490 -33.141  0.00  0.00    -0.045 C 
BRANCH  34  35
ATOM     35  C   UNL     1      40.950 -22.990 -34.053  0.00  0.00    +0.025 C 
BRANCH  35  36
ATOM     36  C   UNL     1      40.529 -22.790 -35.495  0.00  0.00    +0.229 C 
ATOM     37  O   UNL     1      39.676 -23.486 -36.038  0.00  0.00    -0.274 OA
ATOM     38  N   UNL     1      41.140 -21.699 -36.096  0.00  0.00    -0.236 N 
ATOM     39  H   UNL     1      42.041 -21.395 -35.841  0.00  0.00    +0.000 HD
BRANCH  38  40
ATOM     40  N   UNL     1      40.381 -21.052 -37.102  0.00  0.00    -0.264 N 
ATOM     41  H   UNL     1      40.059 -21.485 -37.926  0.00  0.00    +0.000 HD
BRANCH  40  42
ATOM     42  C   UNL     1      40.148 -19.688 -36.760  0.00  0.00    +0.058 A 
ATOM     43  C   UNL     1      39.002 -19.373 -35.995  0.00  0.00    -0.003 A 
ATOM     44  C   UNL     1      38.814 -18.043 -35.627  0.00  0.00    +0.047 A 
ATOM     45  N   UNL     1      39.690 -17.064 -35.937  0.00  0.00    -0.251 NA
ATOM     46  C   UNL     1      40.786 -17.363 -36.652  0.00  0.00    +0.073 A 
ATOM     47  C   UNL     1      41.661 -16.331 -36.965  0.00  0.00    -0.036 A 
ATOM     48  C   UNL     1      42.833 -16.548 -37.690  0.00  0.00    -0.060 A 
ATOM     49  C   UNL     1      43.149 -17.832 -38.110  0.00  0.00    -0.061 A 
ATOM     50  C   UNL     1      42.287 -18.885 -37.810  0.00  0.00    -0.051 A 
ATOM     51  C   UNL     1      41.085 -18.670 -37.086  0.00  0.00    +0.023 A 
ATOM     52  C   UNL     1      37.642 -17.610 -34.784  0.00  0.00    -0.010 C 
ATOM     53  C   UNL     1      36.482 -18.599 -34.794  0.00  0.00    -0.047 C 
ATOM     54  C   UNL     1      36.998 -20.012 -34.567  0.00  0.00    -0.049 C 
ATOM     55  C   UNL     1      37.951 -20.415 -35.690  0.00  0.00    -0.024 C 
ENDBRANCH  40  42
ENDBRANCH  38  40
ENDBRANCH  35  36
ENDBRANCH  34  35
ENDBRANCH  33  34
ENDBRANCH  32  33
ENDBRANCH  31  32
ENDBRANCH   3  31
TORSDOF 23
ENDMDL
MODEL 18
REMARK VINA RESULT:    -6.450     19.153     23.281
REMARK INTER + INTRA:          -8.512
REMARK INTER:                 -13.921
REMARK INTRA:                   5.410
REMARK UNBOUND:                 5.292
REMARK  Name = cpd126.pdb
REMARK  29 active torsions:
REMARK  status: ('A' for Active; 'I' for Inactive)
REMARK    1  A    between atoms: C_1  and  C_2
REMARK    2  A    between atoms: C_2  and  N_3
REMARK    3  A    between atoms: N_3  and  C_4
REMARK    4  A    between atoms: N_3  and  C_6
REMARK    5  A    between atoms: N_3  and  C_8
REMARK    6  A    between atoms: C_4  and  C_5
REMARK    7  A    between atoms: C_6  and  C_7
REMARK    8  A    between atoms: C_8  and  C_9
REMARK    9  A    between atoms: C_9  and  O_10
REMARK   10  A    between atoms: O_10  and  C_11
REMARK   11  A    between atoms: C_13  and  O_14
REMARK   12  A    between atoms: O_14  and  C_15
REMARK   13  A    between atoms: C_15  and  C_16
REMARK   14  A    between atoms: C_16  and  N_17
REMARK   15  A    between atoms: N_17  and  C_18
REMARK   16  A    between atoms: N_17  and  C_20
REMARK   17  A    between atoms: N_17  and  C_22
REMARK   18  A    between atoms: C_18  and  C_19
REMARK   19  A    between atoms: C_20  and  C_21
REMARK   20  A    between atoms: C_22  and  C_23
REMARK   21  A    between atoms: C_25  and  C_26
REMARK   22  A    between atoms: N_28  and  C_29
REMARK   23  A    between atoms: C_29  and  C_30
REMARK   24  A    between atoms: C_30  and  C_31
REMARK   25  A    between atoms: C_31  and  C_32
REMARK   26  A    between atoms: C_32  and  C_33
REMARK   27  A    between atoms: C_33  and  C_34
REMARK   28  A    between atoms: N_36  and  N_37
REMARK   29  A    between atoms: N_37  and  C_38
REMARK                            x       y       z     vdW  Elec       q    Type
REMARK                         _______ _______ _______ _____ _____    ______ ____
ROOT
ATOM      1  C   UNL     1      45.454 -18.403 -34.858  0.00  0.00    +0.244 C 
ATOM      2  O   UNL     1      46.513 -18.203 -34.277  0.00  0.00    -0.270 OA
ATOM      3  N   UNL     1      45.296 -19.293 -35.900  0.00  0.00    -0.311 N 
ATOM      4  H   UNL     1      44.410 -19.414 -36.311  0.00  0.00    +0.000 HD
ENDROOT
BRANCH   1   9
ATOM      5  C   UNL     1      41.928 -17.701 -33.683  0.00  0.00    +0.125 A 
ATOM      6  C   UNL     1      42.081 -16.380 -33.240  0.00  0.00    +0.022 A 
ATOM      7  C   UNL     1      43.307 -15.710 -33.362  0.00  0.00    +0.125 A 
ATOM      8  C   UNL     1      44.395 -16.372 -33.923  0.00  0.00    -0.008 A 
ATOM      9  C   UNL     1      44.242 -17.674 -34.404  0.00  0.00    +0.044 A 
ATOM     10  C   UNL     1      43.001 -18.317 -34.325  0.00  0.00    -0.008 A 
BRANCH   7  11
ATOM     11  O   UNL     1      43.332 -14.399 -32.965  0.00  0.00    -0.494 OA
BRANCH  11  12
ATOM     12  C   UNL     1      44.281 -14.069 -31.941  0.00  0.00    +0.075 C 
BRANCH  12  13
ATOM     13  C   UNL     1      44.848 -12.663 -32.201  0.00  0.00    -0.053 C 
BRANCH  13  14
ATOM     14  N   UNL     1      44.423 -11.546 -31.166  0.00  0.00    +0.382 N 
BRANCH  14  15
ATOM     15  C   UNL     1      45.649 -11.175 -30.268  0.00  0.00    -0.091 C 
ATOM     16  C   UNL     1      46.983 -11.122 -30.993  0.00  0.00    -0.080 C 
ENDBRANCH  14  15
BRANCH  14  17
ATOM     17  C   UNL     1      44.105 -10.286 -32.048  0.00  0.00    -0.091 C 
ATOM     18  C   UNL     1      43.370  -9.172 -31.312  0.00  0.00    -0.080 C 
ENDBRANCH  14  17
BRANCH  14  19
ATOM     19  C   UNL     1      43.187 -11.959 -30.332  0.00  0.00    -0.091 C 
ATOM     20  C   UNL     1      43.435 -12.008 -28.832  0.00  0.00    -0.080 C 
ENDBRANCH  14  19
ENDBRANCH  13  14
ENDBRANCH  12  13
ENDBRANCH  11  12
ENDBRANCH   7  11
BRANCH   5  21
ATOM     21  O   UNL     1      40.727 -18.290 -33.375  0.00  0.00    -0.494 OA
BRANCH  21  22
ATOM     22  C   UNL     1      40.312 -19.488 -34.048  0.00  0.00    +0.075 C 
BRANCH  22  23
ATOM     23  C   UNL     1      39.976 -20.791 -32.914  0.00  0.00    -0.053 C 
BRANCH  23  24
ATOM     24  N   UNL     1      39.742 -21.707 -33.240  0.00  0.00    +0.382 N 
BRANCH  24  26
ATOM     25  C   UNL     1      37.174 -21.783 -32.803  0.00  0.00    -0.080 C 
ATOM     26  C   UNL     1      38.789 -21.424 -33.351  0.00  0.00    -0.091 C 
ENDBRANCH  24  26
BRANCH  24  27
ATOM     27  C   UNL     1      40.695 -21.990 -33.129  0.00  0.00    -0.091 C 
ATOM     28  C   UNL     1      41.140 -22.930 -31.767  0.00  0.00    -0.080 C 
ENDBRANCH  24  27
BRANCH  24  29
ATOM     29  C   UNL     1      39.508 -22.623 -33.567  0.00  0.00    -0.091 C 
ATOM     30  C   UNL     1      39.587 -22.975 -35.239  0.00  0.00    -0.080 C 
ENDBRANCH  24  29
ENDBRANCH  23  24
ENDBRANCH  22  23
ENDBRANCH  21  22
ENDBRANCH   5  21
ENDBRANCH   1   9
BRANCH   3  31
ATOM     31  C   UNL     1      46.434 -20.055 -36.395  0.00  0.00    +0.012 C 
BRANCH  31  32
ATOM     32  C   UNL     1      46.593 -19.903 -37.903  0.00  0.00    -0.037 C 
BRANCH  32  33
ATOM     33  C   UNL     1      46.425 -21.232 -38.643  0.00  0.00    -0.051 C 
BRANCH  33  34
ATOM     34  C   UNL     1      47.275 -21.217 -39.909  0.00  0.00    -0.045 C 
BRANCH  34  35
ATOM     35  C   UNL     1      46.830 -22.232 -40.960  0.00  0.00    +0.025 C 
BRANCH  35  36
ATOM     36  C   UNL     1      45.685 -21.638 -41.756  0.00  0.00    +0.229 C 
ATOM     37  O   UNL     1      44.873 -22.329 -42.362  0.00  0.00    -0.274 OA
ATOM     38  N   UNL     1      45.607 -20.256 -41.654  0.00  0.00    -0.236 N 
ATOM     39  H   UNL     1      46.403 -19.694 -41.518  0.00  0.00    +0.000 HD
BRANCH  38  40
ATOM     40  N   UNL     1      44.305 -19.709 -41.759  0.00  0.00    -0.264 N 
ATOM     41  H   UNL     1      43.763 -19.707 -42.581  0.00  0.00    +0.000 HD
BRANCH  40  42
ATOM     42  C   UNL     1      43.885 -19.161 -40.512  0.00  0.00    +0.058 A 
ATOM     43  C   UNL     1      43.053 -19.942 -39.680  0.00  0.00    -0.003 A 
ATOM     44  C   UNL     1      42.691 -19.413 -38.443  0.00  0.00    +0.047 A 
ATOM     45  N   UNL     1      43.130 -18.215 -38.000  0.00  0.00    -0.251 NA
ATOM     46  C   UNL     1      43.932 -17.478 -38.783  0.00  0.00    +0.073 A 
ATOM     47  C   UNL     1      44.355 -16.245 -38.302  0.00  0.00    -0.036 A 
ATOM     48  C   UNL     1      45.203 -15.416 -39.038  0.00  0.00    -0.060 A 
ATOM     49  C   UNL     1      45.650 -15.827 -40.285  0.00  0.00    -0.061 A 
ATOM     50  C   UNL     1      45.238 -17.059 -40.790  0.00  0.00    -0.051 A 
ATOM     51  C   UNL     1      44.364 -17.902 -40.056  0.00  0.00    +0.023 A 
ATOM     52  C   UNL     1      41.834 -20.181 -37.470  0.00  0.00    -0.010 C 
ATOM     53  C   UNL     1      41.026 -21.301 -38.116  0.00  0.00    -0.047 C 
ATOM     54  C   UNL     1      41.918 -22.124 -39.034  0.00  0.00    -0.049 C 
ATOM     55  C   UNL     1      42.469 -21.251 -40.160  0.00  0.00    -0.024 C 
ENDBRANCH  40  42
ENDBRANCH  38  40
ENDBRANCH  35  36
ENDBRANCH  34  35
ENDBRANCH  33  34
ENDBRANCH  32  33
ENDBRANCH  31  32
ENDBRANCH   3  31
TORSDOF 23
ENDMDL
MODEL 19
REMARK VINA RESULT:    -6.441     18.924     24.000
REMARK INTER + INTRA:          -8.493
REMARK INTER:                 -13.527
REMARK INTRA:                   5.035
REMARK UNBOUND:                 5.292
REMARK  Name = cpd126.pdb
REMARK  29 active torsions:
REMARK  status: ('A' for Active; 'I' for Inactive)
REMARK    1  A    between atoms: C_1  and  C_2
REMARK    2  A    between atoms: C_2  and  N_3
REMARK    3  A    between atoms: N_3  and  C_4
REMARK    4  A    between atoms: N_3  and  C_6
REMARK    5  A    between atoms: N_3  and  C_8
REMARK    6  A    between atoms: C_4  and  C_5
REMARK    7  A    between atoms: C_6  and  C_7
REMARK    8  A    between atoms: C_8  and  C_9
REMARK    9  A    between atoms: C_9  and  O_10
REMARK   10  A    between atoms: O_10  and  C_11
REMARK   11  A    between atoms: C_13  and  O_14
REMARK   12  A    between atoms: O_14  and  C_15
REMARK   13  A    between atoms: C_15  and  C_16
REMARK   14  A    between atoms: C_16  and  N_17
REMARK   15  A    between atoms: N_17  and  C_18
REMARK   16  A    between atoms: N_17  and  C_20
REMARK   17  A    between atoms: N_17  and  C_22
REMARK   18  A    between atoms: C_18  and  C_19
REMARK   19  A    between atoms: C_20  and  C_21
REMARK   20  A    between atoms: C_22  and  C_23
REMARK   21  A    between atoms: C_25  and  C_26
REMARK   22  A    between atoms: N_28  and  C_29
REMARK   23  A    between atoms: C_29  and  C_30
REMARK   24  A    between atoms: C_30  and  C_31
REMARK   25  A    between atoms: C_31  and  C_32
REMARK   26  A    between atoms: C_32  and  C_33
REMARK   27  A    between atoms: C_33  and  C_34
REMARK   28  A    between atoms: N_36  and  N_37
REMARK   29  A    between atoms: N_37  and  C_38
REMARK                            x       y       z     vdW  Elec       q    Type
REMARK                         _______ _______ _______ _____ _____    ______ ____
ROOT
ATOM      1  C   UNL     1      43.199 -18.881 -33.936  0.00  0.00    +0.244 C 
ATOM      2  O   UNL     1      43.607 -18.880 -32.782  0.00  0.00    -0.270 OA
ATOM      3  N   UNL     1      41.871 -19.007 -34.290  0.00  0.00    -0.311 N 
ATOM      4  H   UNL     1      41.613 -18.984 -35.240  0.00  0.00    +0.000 HD
ENDROOT
BRANCH   1   9
ATOM      5  C   UNL     1      45.641 -17.266 -36.330  0.00  0.00    +0.125 A 
ATOM      6  C   UNL     1      46.244 -18.411 -36.867  0.00  0.00    +0.022 A 
ATOM      7  C   UNL     1      45.832 -19.696 -36.486  0.00  0.00    +0.125 A 
ATOM      8  C   UNL     1      44.812 -19.837 -35.551  0.00  0.00    -0.008 A 
ATOM      9  C   UNL     1      44.177 -18.703 -35.040  0.00  0.00    +0.044 A 
ATOM     10  C   UNL     1      44.561 -17.426 -35.465  0.00  0.00    -0.008 A 
BRANCH   7  11
ATOM     11  O   UNL     1      46.435 -20.748 -37.123  0.00  0.00    -0.494 OA
BRANCH  11  12
ATOM     12  C   UNL     1      45.994 -21.011 -38.463  0.00  0.00    +0.075 C 
BRANCH  12  13
ATOM     13  C   UNL     1      47.193 -20.935 -39.422  0.00  0.00    -0.053 C 
BRANCH  13  14
ATOM     14  N   UNL     1      46.867 -21.155 -40.954  0.00  0.00    +0.382 N 
BRANCH  14  15
ATOM     15  C   UNL     1      45.625 -22.096 -41.091  0.00  0.00    -0.091 C 
ATOM     16  C   UNL     1      44.722 -21.798 -42.277  0.00  0.00    -0.080 C 
ENDBRANCH  14  15
BRANCH  14  17
ATOM     17  C   UNL     1      46.429 -19.740 -41.475  0.00  0.00    -0.091 C 
ATOM     18  C   UNL     1      47.157 -18.574 -40.815  0.00  0.00    -0.080 C 
ENDBRANCH  14  17
BRANCH  14  19
ATOM     19  C   UNL     1      48.090 -21.678 -41.743  0.00  0.00    -0.091 C 
ATOM     20  C   UNL     1      48.246 -23.191 -41.721  0.00  0.00    -0.080 C 
ENDBRANCH  14  19
ENDBRANCH  13  14
ENDBRANCH  12  13
ENDBRANCH  11  12
ENDBRANCH   7  11
BRANCH   5  21
ATOM     21  O   UNL     1      46.231 -16.075 -36.672  0.00  0.00    -0.494 OA
BRANCH  21  22
ATOM     22  C   UNL     1      47.297 -16.043 -37.634  0.00  0.00    +0.075 C 
BRANCH  22  23
ATOM     23  C   UNL     1      47.086 -14.741 -38.799  0.00  0.00    -0.053 C 
BRANCH  23  24
ATOM     24  N   UNL     1      47.391 -14.847 -39.746  0.00  0.00    +0.382 N 
BRANCH  24  26
ATOM     25  C   UNL     1      49.207 -13.259 -38.761  0.00  0.00    -0.080 C 
ATOM     26  C   UNL     1      48.315 -14.573 -39.479  0.00  0.00    -0.091 C 
ENDBRANCH  24  26
BRANCH  24  27
ATOM     27  C   UNL     1      46.467 -15.120 -40.013  0.00  0.00    -0.091 C 
ATOM     28  C   UNL     1      45.147 -14.086 -39.658  0.00  0.00    -0.080 C 
ENDBRANCH  24  27
BRANCH  24  29
ATOM     29  C   UNL     1      47.696 -14.952 -40.692  0.00  0.00    -0.091 C 
ATOM     30  C   UNL     1      47.618 -13.620 -41.763  0.00  0.00    -0.080 C 
ENDBRANCH  24  29
ENDBRANCH  23  24
ENDBRANCH  22  23
ENDBRANCH  21  22
ENDBRANCH   5  21
ENDBRANCH   1   9
BRANCH   3  31
ATOM     31  C   UNL     1      40.849 -19.173 -33.266  0.00  0.00    +0.012 C 
BRANCH  31  32
ATOM     32  C   UNL     1      40.727 -20.628 -32.830  0.00  0.00    -0.037 C 
BRANCH  32  33
ATOM     33  C   UNL     1      39.270 -21.074 -32.691  0.00  0.00    -0.051 C 
BRANCH  33  34
ATOM     34  C   UNL     1      39.094 -22.437 -33.351  0.00  0.00    -0.045 C 
BRANCH  34  35
ATOM     35  C   UNL     1      40.367 -22.974 -34.002  0.00  0.00    +0.025 C 
BRANCH  35  36
ATOM     36  C   UNL     1      40.174 -22.997 -35.505  0.00  0.00    +0.229 C 
ATOM     37  O   UNL     1      39.364 -23.736 -36.057  0.00  0.00    -0.274 OA
ATOM     38  N   UNL     1      40.937 -22.046 -36.168  0.00  0.00    -0.236 N 
ATOM     39  H   UNL     1      41.809 -21.742 -35.829  0.00  0.00    +0.000 HD
BRANCH  38  40
ATOM     40  N   UNL     1      40.376 -21.542 -37.368  0.00  0.00    -0.264 N 
ATOM     41  H   UNL     1      40.058 -22.100 -38.115  0.00  0.00    +0.000 HD
BRANCH  40  42
ATOM     42  C   UNL     1      40.335 -20.118 -37.347  0.00  0.00    +0.058 A 
ATOM     43  C   UNL     1      41.312 -19.406 -38.078  0.00  0.00    -0.003 A 
ATOM     44  C   UNL     1      41.230 -18.016 -38.088  0.00  0.00    +0.047 A 
ATOM     45  N   UNL     1      40.244 -17.334 -37.466  0.00  0.00    -0.251 NA
ATOM     46  C   UNL     1      39.307 -18.009 -36.783  0.00  0.00    +0.073 A 
ATOM     47  C   UNL     1      38.313 -17.277 -36.145  0.00  0.00    -0.036 A 
ATOM     48  C   UNL     1      37.288 -17.892 -35.425  0.00  0.00    -0.060 A 
ATOM     49  C   UNL     1      37.244 -19.276 -35.343  0.00  0.00    -0.061 A 
ATOM     50  C   UNL     1      38.230 -20.032 -35.974  0.00  0.00    -0.051 A 
ATOM     51  C   UNL     1      39.285 -19.415 -36.696  0.00  0.00    +0.023 A 
ATOM     52  C   UNL     1      42.204 -17.167 -38.864  0.00  0.00    -0.010 C 
ATOM     53  C   UNL     1      43.507 -17.883 -39.200  0.00  0.00    -0.047 C 
ATOM     54  C   UNL     1      43.212 -19.266 -39.762  0.00  0.00    -0.049 C 
ATOM     55  C   UNL     1      42.480 -20.114 -38.723  0.00  0.00    -0.024 C 
ENDBRANCH  40  42
ENDBRANCH  38  40
ENDBRANCH  35  36
ENDBRANCH  34  35
ENDBRANCH  33  34
ENDBRANCH  32  33
ENDBRANCH  31  32
ENDBRANCH   3  31
TORSDOF 23
ENDMDL
MODEL 20
REMARK VINA RESULT:    -6.418     19.768     24.437
REMARK INTER + INTRA:          -8.443
REMARK INTER:                 -13.023
REMARK INTRA:                   4.581
REMARK UNBOUND:                 5.292
REMARK  Name = cpd126.pdb
REMARK  29 active torsions:
REMARK  status: ('A' for Active; 'I' for Inactive)
REMARK    1  A    between atoms: C_1  and  C_2
REMARK    2  A    between atoms: C_2  and  N_3
REMARK    3  A    between atoms: N_3  and  C_4
REMARK    4  A    between atoms: N_3  and  C_6
REMARK    5  A    between atoms: N_3  and  C_8
REMARK    6  A    between atoms: C_4  and  C_5
REMARK    7  A    between atoms: C_6  and  C_7
REMARK    8  A    between atoms: C_8  and  C_9
REMARK    9  A    between atoms: C_9  and  O_10
REMARK   10  A    between atoms: O_10  and  C_11
REMARK   11  A    between atoms: C_13  and  O_14
REMARK   12  A    between atoms: O_14  and  C_15
REMARK   13  A    between atoms: C_15  and  C_16
REMARK   14  A    between atoms: C_16  and  N_17
REMARK   15  A    between atoms: N_17  and  C_18
REMARK   16  A    between atoms: N_17  and  C_20
REMARK   17  A    between atoms: N_17  and  C_22
REMARK   18  A    between atoms: C_18  and  C_19
REMARK   19  A    between atoms: C_20  and  C_21
REMARK   20  A    between atoms: C_22  and  C_23
REMARK   21  A    between atoms: C_25  and  C_26
REMARK   22  A    between atoms: N_28  and  C_29
REMARK   23  A    between atoms: C_29  and  C_30
REMARK   24  A    between atoms: C_30  and  C_31
REMARK   25  A    between atoms: C_31  and  C_32
REMARK   26  A    between atoms: C_32  and  C_33
REMARK   27  A    between atoms: C_33  and  C_34
REMARK   28  A    between atoms: N_36  and  N_37
REMARK   29  A    between atoms: N_37  and  C_38
REMARK                            x       y       z     vdW  Elec       q    Type
REMARK                         _______ _______ _______ _____ _____    ______ ____
ROOT
ATOM      1  C   UNL     1      41.043 -18.562 -36.487  0.00  0.00    +0.244 C 
ATOM      2  O   UNL     1      41.179 -17.798 -35.539  0.00  0.00    -0.270 OA
ATOM      3  N   UNL     1      39.974 -19.418 -36.647  0.00  0.00    -0.311 N 
ATOM      4  H   UNL     1      39.922 -19.993 -37.444  0.00  0.00    +0.000 HD
ENDROOT
BRANCH   1   9
ATOM      5  C   UNL     1      43.417 -19.756 -39.178  0.00  0.00    +0.125 A 
ATOM      6  C   UNL     1      43.727 -18.531 -39.785  0.00  0.00    +0.022 A 
ATOM      7  C   UNL     1      43.204 -17.325 -39.297  0.00  0.00    +0.125 A 
ATOM      8  C   UNL     1      42.353 -17.345 -38.197  0.00  0.00    -0.008 A 
ATOM      9  C   UNL     1      42.069 -18.555 -37.561  0.00  0.00    +0.044 A 
ATOM     10  C   UNL     1      42.637 -19.748 -38.023  0.00  0.00    -0.008 A 
BRANCH   7  11
ATOM     11  O   UNL     1      43.626 -16.178 -39.917  0.00  0.00    -0.494 OA
BRANCH  11  12
ATOM     12  C   UNL     1      44.435 -15.296 -39.125  0.00  0.00    +0.075 C 
BRANCH  12  13
ATOM     13  C   UNL     1      45.367 -14.491 -40.046  0.00  0.00    -0.053 C 
BRANCH  13  14
ATOM     14  N   UNL     1      46.248 -13.385 -39.339  0.00  0.00    +0.382 N 
BRANCH  14  15
ATOM     15  C   UNL     1      47.741 -13.853 -39.305  0.00  0.00    -0.091 C 
ATOM     16  C   UNL     1      47.992 -15.240 -39.873  0.00  0.00    -0.080 C 
ENDBRANCH  14  15
BRANCH  14  17
ATOM     17  C   UNL     1      46.180 -12.145 -40.301  0.00  0.00    -0.091 C 
ATOM     18  C   UNL     1      47.540 -11.588 -40.705  0.00  0.00    -0.080 C 
ENDBRANCH  14  17
BRANCH  14  19
ATOM     19  C   UNL     1      45.715 -13.021 -37.933  0.00  0.00    -0.091 C 
ATOM     20  C   UNL     1      46.763 -13.080 -36.833  0.00  0.00    -0.080 C 
ENDBRANCH  14  19
ENDBRANCH  13  14
ENDBRANCH  12  13
ENDBRANCH  11  12
ENDBRANCH   7  11
BRANCH   5  21
ATOM     21  O   UNL     1      43.872 -20.871 -39.836  0.00  0.00    -0.494 OA
BRANCH  21  22
ATOM     22  C   UNL     1      45.270 -21.199 -39.827  0.00  0.00    +0.075 C 
BRANCH  22  23
ATOM     23  C   UNL     1      45.996 -21.007 -41.418  0.00  0.00    -0.053 C 
BRANCH  23  24
ATOM     24  N   UNL     1      46.959 -21.229 -41.573  0.00  0.00    +0.382 N 
BRANCH  24  26
ATOM     25  C   UNL     1      47.142 -18.706 -40.944  0.00  0.00    -0.080 C 
ATOM     26  C   UNL     1      47.157 -20.261 -41.732  0.00  0.00    -0.091 C 
ENDBRANCH  24  26
BRANCH  24  27
ATOM     27  C   UNL     1      46.762 -22.196 -41.414  0.00  0.00    -0.091 C 
ATOM     28  C   UNL     1      46.372 -23.205 -42.743  0.00  0.00    -0.080 C 
ENDBRANCH  24  27
BRANCH  24  29
ATOM     29  C   UNL     1      47.922 -21.451 -41.727  0.00  0.00    -0.091 C 
ATOM     30  C   UNL     1      48.885 -22.007 -40.427  0.00  0.00    -0.080 C 
ENDBRANCH  24  29
ENDBRANCH  23  24
ENDBRANCH  22  23
ENDBRANCH  21  22
ENDBRANCH   5  21
ENDBRANCH   1   9
BRANCH   3  31
ATOM     31  C   UNL     1      38.919 -19.474 -35.644  0.00  0.00    +0.012 C 
BRANCH  31  32
ATOM     32  C   UNL     1      38.917 -20.810 -34.912  0.00  0.00    -0.037 C 
BRANCH  32  33
ATOM     33  C   UNL     1      40.058 -21.724 -35.364  0.00  0.00    -0.051 C 
BRANCH  33  34
ATOM     34  C   UNL     1      41.157 -21.721 -34.306  0.00  0.00    -0.045 C 
BRANCH  34  35
ATOM     35  C   UNL     1      40.749 -21.045 -32.999  0.00  0.00    +0.025 C 
BRANCH  35  36
ATOM     36  C   UNL     1      41.621 -19.824 -32.788  0.00  0.00    +0.229 C 
ATOM     37  O   UNL     1      41.368 -18.967 -31.946  0.00  0.00    -0.274 OA
ATOM     38  N   UNL     1      42.762 -19.824 -33.577  0.00  0.00    -0.236 N 
ATOM     39  H   UNL     1      42.787 -20.251 -34.464  0.00  0.00    +0.000 HD
BRANCH  38  40
ATOM     40  N   UNL     1      43.889 -19.168 -33.022  0.00  0.00    -0.264 N 
ATOM     41  H   UNL     1      44.283 -19.380 -32.145  0.00  0.00    +0.000 HD
BRANCH  40  42
ATOM     42  C   UNL     1      44.373 -18.160 -33.906  0.00  0.00    +0.058 A 
ATOM     43  C   UNL     1      45.177 -18.555 -34.999  0.00  0.00    -0.003 A 
ATOM     44  C   UNL     1      45.602 -17.565 -35.882  0.00  0.00    +0.047 A 
ATOM     45  N   UNL     1      45.249 -16.267 -35.756  0.00  0.00    -0.251 NA
ATOM     46  C   UNL     1      44.474 -15.893 -34.727  0.00  0.00    +0.073 A 
ATOM     47  C   UNL     1      44.139 -14.549 -34.620  0.00  0.00    -0.036 A 
ATOM     48  C   UNL     1      43.325 -14.070 -33.593  0.00  0.00    -0.060 A 
ATOM     49  C   UNL     1      42.822 -14.953 -32.649  0.00  0.00    -0.061 A 
ATOM     50  C   UNL     1      43.145 -16.306 -32.734  0.00  0.00    -0.051 A 
ATOM     51  C   UNL     1      43.984 -16.801 -33.766  0.00  0.00    +0.023 A 
ATOM     52  C   UNL     1      46.436 -17.886 -37.095  0.00  0.00    -0.010 C 
ATOM     53  C   UNL     1      47.157 -19.227 -37.005  0.00  0.00    -0.047 C 
ATOM     54  C   UNL     1      46.193 -20.307 -36.536  0.00  0.00    -0.049 C 
ATOM     55  C   UNL     1      45.667 -19.977 -35.141  0.00  0.00    -0.024 C 
ENDBRANCH  40  42
ENDBRANCH  38  40
ENDBRANCH  35  36
ENDBRANCH  34  35
ENDBRANCH  33  34
ENDBRANCH  32  33
ENDBRANCH  31  32
ENDBRANCH   3  31
TORSDOF 23
ENDMDL
