REMARK  Name = cpd69.pdb
REMARK  6 active torsions:
REMARK  status: ('A' for Active; 'I' for Inactive)
REMARK    1  A    between atoms: C_1  and  C_2
REMARK    2  A    between atoms: C_11  and  N_12
REMARK    3  A    between atoms: C_13  and  C_14
REMARK    4  A    between atoms: C_14  and  S_15
REMARK    5  A    between atoms: S_15  and  C_16
REMARK    6  A    between atoms: C_16  and  C_17
REMARK                            x       y       z     vdW  Elec       q    Type
REMARK                         _______ _______ _______ _____ _____    ______ ____
ROOT
ATOM      1  C   UNL A   1      -3.247  -3.711  -0.129  0.00  0.00    -0.022 C 
ATOM      2  C   UNL A   1      -4.250  -2.593  -0.048  0.00  0.00    +0.045 A 
ATOM      3  N   UNL A   1      -5.522  -2.992   0.193  0.00  0.00    -0.251 NA
ATOM      4  C   UNL A   1      -6.496  -2.078   0.265  0.00  0.00    +0.076 A 
ATOM      5  C   UNL A   1      -7.793  -2.530   0.483  0.00  0.00    -0.035 A 
ATOM      6  C   UNL A   1      -8.878  -1.656   0.577  0.00  0.00    -0.057 A 
ATOM      7  C   UNL A   1      -8.662  -0.294   0.456  0.00  0.00    -0.026 A 
ATOM      8  C   UNL A   1      -7.367   0.171   0.240  0.00  0.00    +0.134 A 
ATOM      9  F   UNL A   1      -7.194   1.501   0.154  0.00  0.00    -0.205 F 
ATOM     10  C   UNL A   1      -6.257  -0.699   0.132  0.00  0.00    +0.056 A 
ATOM     11  C   UNL A   1      -4.912  -0.285  -0.077  0.00  0.00    +0.042 A 
ATOM     12  C   UNL A   1      -3.896  -1.252  -0.235  0.00  0.00    +0.005 A 
ENDROOT
BRANCH  11  13
ATOM     13  N   UNL A   1      -4.606   1.083  -0.305  0.00  0.00    -0.357 N 
ATOM     14  H   UNL A   1      -5.305   1.768  -0.198  0.00  0.00    +0.000 HD
ATOM     15  H   UNL A   1      -3.695   1.346  -0.570  0.00  0.00    +0.000 HD
ENDBRANCH  11  13
BRANCH  12  16
ATOM     16  C   UNL A   1      -2.485  -0.855  -0.605  0.00  0.00    +0.025 C 
BRANCH  16  17
ATOM     17  S   UNL A   1      -1.565  -0.224   0.838  0.00  0.00    -0.113 S 
BRANCH  17  18
ATOM     18  C   UNL A   1       0.044   0.306   0.038  0.00  0.00    +0.210 C 
ATOM     19  C   UNL A   1      -0.140   1.652  -0.679  0.00  0.00    -0.004 C 
ATOM     20  C   UNL A   1       0.109   2.667   0.410  0.00  0.00    -0.026 C 
ATOM     21  C   UNL A   1       1.204   1.998   1.206  0.00  0.00    +0.050 C 
ATOM     22  O   UNL A   1       0.972   0.587   1.126  0.00  0.00    -0.354 OA
BRANCH  18  23
ATOM     23  C   UNL A   1       0.657  -0.746  -0.925  0.00  0.00    +0.428 C 
ATOM     24  F   UNL A   1       0.728  -1.979  -0.376  0.00  0.00    -0.167 F 
ATOM     25  F   UNL A   1       1.910  -0.398  -1.308  0.00  0.00    -0.167 F 
ATOM     26  F   UNL A   1      -0.074  -0.855  -2.064  0.00  0.00    -0.167 F 
ENDBRANCH  18  23
ENDBRANCH  17  18
ENDBRANCH  16  17
ENDBRANCH  12  16
TORSDOF 5
