MODEL 1
REMARK VINA RESULT:    -7.919      0.000      0.000
REMARK INTER + INTRA:         -10.902
REMARK INTER:                 -10.003
REMARK INTRA:                  -0.899
REMARK UNBOUND:                -0.899
REMARK  Name = cpd69.pdb
REMARK  6 active torsions:
REMARK  status: ('A' for Active; 'I' for Inactive)
REMARK    1  A    between atoms: C_1  and  C_2
REMARK    2  A    between atoms: C_11  and  N_12
REMARK    3  A    between atoms: C_13  and  C_14
REMARK    4  A    between atoms: C_14  and  S_15
REMARK    5  A    between atoms: S_15  and  C_16
REMARK    6  A    between atoms: C_16  and  C_17
REMARK                            x       y       z     vdW  Elec       q    Type
REMARK                         _______ _______ _______ _____ _____    ______ ____
ROOT
ATOM      1  C   UNL A   1      36.671 -34.775 -31.502  0.00  0.00    -0.022 C 
ATOM      2  C   UNL A   1      37.833 -35.653 -31.126  0.00  0.00    +0.045 A 
ATOM      3  N   UNL A   1      38.876 -35.609 -31.989  0.00  0.00    -0.251 NA
ATOM      4  C   UNL A   1      39.954 -36.368 -31.759  0.00  0.00    +0.076 A 
ATOM      5  C   UNL A   1      40.990 -36.318 -32.685  0.00  0.00    -0.035 A 
ATOM      6  C   UNL A   1      42.158 -37.069 -32.533  0.00  0.00    -0.057 A 
ATOM      7  C   UNL A   1      42.297 -37.887 -31.425  0.00  0.00    -0.026 A 
ATOM      8  C   UNL A   1      41.267 -37.943 -30.490  0.00  0.00    +0.134 A 
ATOM      9  F   UNL A   1      41.450 -38.728 -29.414  0.00  0.00    -0.205 F 
ATOM     10  C   UNL A   1      40.073 -37.198 -30.631  0.00  0.00    +0.056 A 
ATOM     11  C   UNL A   1      38.992 -37.205 -29.706  0.00  0.00    +0.042 A 
ATOM     12  C   UNL A   1      37.821 -36.469 -29.989  0.00  0.00    +0.005 A 
ENDROOT
BRANCH  11  13
ATOM     13  N   UNL A   1      39.004 -38.081 -28.589  0.00  0.00    -0.357 N 
ATOM     14  H   UNL A   1      39.091 -39.052 -28.726  0.00  0.00    +0.000 HD
ATOM     15  H   UNL A   1      38.927 -37.718 -27.677  0.00  0.00    +0.000 HD
ENDBRANCH  11  13
BRANCH  12  16
ATOM     16  C   UNL A   1      36.598 -36.569 -29.106  0.00  0.00    +0.025 C 
BRANCH  16  17
ATOM     17  S   UNL A   1      35.370 -37.732 -29.789  0.00  0.00    -0.113 S 
BRANCH  17  18
ATOM     18  C   UNL A   1      35.268 -39.000 -28.414  0.00  0.00    +0.210 C 
ATOM     19  C   UNL A   1      34.381 -40.178 -28.845  0.00  0.00    -0.004 C 
ATOM     20  C   UNL A   1      35.339 -41.093 -29.569  0.00  0.00    -0.026 C 
ATOM     21  C   UNL A   1      36.600 -40.919 -28.756  0.00  0.00    +0.050 C 
ATOM     22  O   UNL A   1      36.603 -39.569 -28.279  0.00  0.00    -0.354 OA
BRANCH  18  23
ATOM     23  C   UNL A   1      34.793 -38.430 -27.051  0.00  0.00    +0.428 C 
ATOM     24  F   UNL A   1      34.302 -39.383 -26.227  0.00  0.00    -0.167 F 
ATOM     25  F   UNL A   1      33.824 -37.495 -27.214  0.00  0.00    -0.167 F 
ATOM     26  F   UNL A   1      35.809 -37.815 -26.394  0.00  0.00    -0.167 F 
ENDBRANCH  18  23
ENDBRANCH  17  18
ENDBRANCH  16  17
ENDBRANCH  12  16
TORSDOF 5
ENDMDL
MODEL 2
REMARK VINA RESULT:    -7.401      3.010      4.552
REMARK INTER + INTRA:         -10.247
REMARK INTER:                  -9.336
REMARK INTRA:                  -0.912
REMARK UNBOUND:                -0.899
REMARK  Name = cpd69.pdb
REMARK  6 active torsions:
REMARK  status: ('A' for Active; 'I' for Inactive)
REMARK    1  A    between atoms: C_1  and  C_2
REMARK    2  A    between atoms: C_11  and  N_12
REMARK    3  A    between atoms: C_13  and  C_14
REMARK    4  A    between atoms: C_14  and  S_15
REMARK    5  A    between atoms: S_15  and  C_16
REMARK    6  A    between atoms: C_16  and  C_17
REMARK                            x       y       z     vdW  Elec       q    Type
REMARK                         _______ _______ _______ _____ _____    ______ ____
ROOT
ATOM      1  C   UNL A   1      37.185 -38.971 -28.694  0.00  0.00    -0.022 C 
ATOM      2  C   UNL A   1      37.842 -37.917 -29.542  0.00  0.00    +0.045 A 
ATOM      3  N   UNL A   1      39.196 -37.918 -29.495  0.00  0.00    -0.251 NA
ATOM      4  C   UNL A   1      39.880 -37.008 -30.197  0.00  0.00    +0.076 A 
ATOM      5  C   UNL A   1      41.267 -37.022 -30.098  0.00  0.00    -0.035 A 
ATOM      6  C   UNL A   1      42.071 -36.116 -30.794  0.00  0.00    -0.057 A 
ATOM      7  C   UNL A   1      41.474 -35.175 -31.615  0.00  0.00    -0.026 A 
ATOM      8  C   UNL A   1      40.086 -35.152 -31.724  0.00  0.00    +0.134 A 
ATOM      9  F   UNL A   1      39.546 -34.241 -32.551  0.00  0.00    -0.205 F 
ATOM     10  C   UNL A   1      39.255 -36.055 -31.020  0.00  0.00    +0.056 A 
ATOM     11  C   UNL A   1      37.835 -36.088 -31.098  0.00  0.00    +0.042 A 
ATOM     12  C   UNL A   1      37.108 -36.994 -30.295  0.00  0.00    +0.005 A 
ENDROOT
BRANCH  11  13
ATOM     13  N   UNL A   1      37.130 -35.104 -31.841  0.00  0.00    -0.357 N 
ATOM     14  H   UNL A   1      36.203 -34.876 -31.601  0.00  0.00    +0.000 HD
ATOM     15  H   UNL A   1      37.569 -34.650 -32.597  0.00  0.00    +0.000 HD
ENDBRANCH  11  13
BRANCH  12  16
ATOM     16  C   UNL A   1      35.598 -36.958 -30.241  0.00  0.00    +0.025 C 
BRANCH  16  17
ATOM     17  S   UNL A   1      35.000 -35.890 -28.889  0.00  0.00    -0.113 S 
BRANCH  17  18
ATOM     18  C   UNL A   1      33.661 -34.914 -29.764  0.00  0.00    +0.210 C 
ATOM     19  C   UNL A   1      33.411 -33.586 -29.033  0.00  0.00    -0.004 C 
ATOM     20  C   UNL A   1      34.434 -32.655 -29.636  0.00  0.00    -0.026 C 
ATOM     21  C   UNL A   1      34.459 -33.119 -31.073  0.00  0.00    +0.050 C 
ATOM     22  O   UNL A   1      34.210 -34.529 -31.058  0.00  0.00    -0.354 OA
BRANCH  18  23
ATOM     23  C   UNL A   1      32.330 -35.688 -29.960  0.00  0.00    +0.428 C 
ATOM     24  F   UNL A   1      32.364 -36.527 -31.019  0.00  0.00    -0.167 F 
ATOM     25  F   UNL A   1      31.286 -34.842 -30.144  0.00  0.00    -0.167 F 
ATOM     26  F   UNL A   1      32.028 -36.434 -28.866  0.00  0.00    -0.167 F 
ENDBRANCH  18  23
ENDBRANCH  17  18
ENDBRANCH  16  17
ENDBRANCH  12  16
TORSDOF 5
ENDMDL
MODEL 3
REMARK VINA RESULT:    -7.333      1.807      2.327
REMARK INTER + INTRA:         -10.161
REMARK INTER:                  -9.497
REMARK INTRA:                  -0.664
REMARK UNBOUND:                -0.899
REMARK  Name = cpd69.pdb
REMARK  6 active torsions:
REMARK  status: ('A' for Active; 'I' for Inactive)
REMARK    1  A    between atoms: C_1  and  C_2
REMARK    2  A    between atoms: C_11  and  N_12
REMARK    3  A    between atoms: C_13  and  C_14
REMARK    4  A    between atoms: C_14  and  S_15
REMARK    5  A    between atoms: S_15  and  C_16
REMARK    6  A    between atoms: C_16  and  C_17
REMARK                            x       y       z     vdW  Elec       q    Type
REMARK                         _______ _______ _______ _____ _____    ______ ____
ROOT
ATOM      1  C   UNL A   1      36.679 -35.033 -31.572  0.00  0.00    -0.022 C 
ATOM      2  C   UNL A   1      37.833 -35.883 -31.116  0.00  0.00    +0.045 A 
ATOM      3  N   UNL A   1      38.978 -35.703 -31.816  0.00  0.00    -0.251 NA
ATOM      4  C   UNL A   1      40.061 -36.424 -31.504  0.00  0.00    +0.076 A 
ATOM      5  C   UNL A   1      41.208 -36.233 -32.266  0.00  0.00    -0.035 A 
ATOM      6  C   UNL A   1      42.390 -36.934 -32.018  0.00  0.00    -0.057 A 
ATOM      7  C   UNL A   1      42.429 -37.847 -30.978  0.00  0.00    -0.026 A 
ATOM      8  C   UNL A   1      41.287 -38.046 -30.206  0.00  0.00    +0.134 A 
ATOM      9  F   UNL A   1      41.372 -38.921 -29.190  0.00  0.00    -0.205 F 
ATOM     10  C   UNL A   1      40.078 -37.352 -30.448  0.00  0.00    +0.056 A 
ATOM     11  C   UNL A   1      38.884 -37.503 -29.689  0.00  0.00    +0.042 A 
ATOM     12  C   UNL A   1      37.718 -36.804 -30.068  0.00  0.00    +0.005 A 
ENDROOT
BRANCH  11  13
ATOM     13  N   UNL A   1      38.801 -38.482 -28.663  0.00  0.00    -0.357 N 
ATOM     14  H   UNL A   1      38.465 -39.384 -28.870  0.00  0.00    +0.000 HD
ATOM     15  H   UNL A   1      39.079 -38.258 -27.746  0.00  0.00    +0.000 HD
ENDBRANCH  11  13
BRANCH  12  16
ATOM     16  C   UNL A   1      36.395 -37.051 -29.379  0.00  0.00    +0.025 C 
BRANCH  16  17
ATOM     17  S   UNL A   1      35.330 -38.167 -30.352  0.00  0.00    -0.113 S 
BRANCH  17  18
ATOM     18  C   UNL A   1      35.097 -39.585 -29.150  0.00  0.00    +0.210 C 
ATOM     19  C   UNL A   1      35.489 -39.145 -27.731  0.00  0.00    -0.004 C 
ATOM     20  C   UNL A   1      34.221 -38.527 -27.192  0.00  0.00    -0.026 C 
ATOM     21  C   UNL A   1      33.165 -39.416 -27.804  0.00  0.00    +0.050 C 
ATOM     22  O   UNL A   1      33.663 -39.834 -29.080  0.00  0.00    -0.354 OA
BRANCH  18  23
ATOM     23  C   UNL A   1      35.844 -40.887 -29.543  0.00  0.00    +0.428 C 
ATOM     24  F   UNL A   1      35.114 -42.000 -29.310  0.00  0.00    -0.167 F 
ATOM     25  F   UNL A   1      37.010 -41.015 -28.864  0.00  0.00    -0.167 F 
ATOM     26  F   UNL A   1      36.169 -40.889 -30.862  0.00  0.00    -0.167 F 
ENDBRANCH  18  23
ENDBRANCH  17  18
ENDBRANCH  16  17
ENDBRANCH  12  16
TORSDOF 5
ENDMDL
MODEL 4
REMARK VINA RESULT:    -7.136      3.405      4.527
REMARK INTER + INTRA:          -9.912
REMARK INTER:                  -9.064
REMARK INTRA:                  -0.848
REMARK UNBOUND:                -0.899
REMARK  Name = cpd69.pdb
REMARK  6 active torsions:
REMARK  status: ('A' for Active; 'I' for Inactive)
REMARK    1  A    between atoms: C_1  and  C_2
REMARK    2  A    between atoms: C_11  and  N_12
REMARK    3  A    between atoms: C_13  and  C_14
REMARK    4  A    between atoms: C_14  and  S_15
REMARK    5  A    between atoms: S_15  and  C_16
REMARK    6  A    between atoms: C_16  and  C_17
REMARK                            x       y       z     vdW  Elec       q    Type
REMARK                         _______ _______ _______ _____ _____    ______ ____
ROOT
ATOM      1  C   UNL A   1      37.159 -38.990 -28.717  0.00  0.00    -0.022 C 
ATOM      2  C   UNL A   1      37.741 -37.888 -29.559  0.00  0.00    +0.045 A 
ATOM      3  N   UNL A   1      39.094 -37.848 -29.581  0.00  0.00    -0.251 NA
ATOM      4  C   UNL A   1      39.714 -36.894 -30.284  0.00  0.00    +0.076 A 
ATOM      5  C   UNL A   1      41.104 -36.869 -30.256  0.00  0.00    -0.035 A 
ATOM      6  C   UNL A   1      41.844 -35.915 -30.959  0.00  0.00    -0.057 A 
ATOM      7  C   UNL A   1      41.178 -34.965 -31.715  0.00  0.00    -0.026 A 
ATOM      8  C   UNL A   1      39.786 -34.982 -31.753  0.00  0.00    +0.134 A 
ATOM      9  F   UNL A   1      39.177 -34.060 -32.518  0.00  0.00    -0.205 F 
ATOM     10  C   UNL A   1      39.019 -35.933 -31.040  0.00  0.00    +0.056 A 
ATOM     11  C   UNL A   1      37.599 -36.009 -31.047  0.00  0.00    +0.042 A 
ATOM     12  C   UNL A   1      36.942 -36.963 -30.241  0.00  0.00    +0.005 A 
ENDROOT
BRANCH  11  13
ATOM     13  N   UNL A   1      36.828 -35.022 -31.718  0.00  0.00    -0.357 N 
ATOM     14  H   UNL A   1      36.976 -34.849 -32.676  0.00  0.00    +0.000 HD
ATOM     15  H   UNL A   1      36.146 -34.511 -31.225  0.00  0.00    +0.000 HD
ENDBRANCH  11  13
BRANCH  12  16
ATOM     16  C   UNL A   1      35.436 -36.976 -30.109  0.00  0.00    +0.025 C 
BRANCH  16  17
ATOM     17  S   UNL A   1      34.877 -35.970 -28.693  0.00  0.00    -0.113 S 
BRANCH  17  18
ATOM     18  C   UNL A   1      33.488 -34.985 -29.474  0.00  0.00    +0.210 C 
ATOM     19  C   UNL A   1      32.837 -35.795 -30.606  0.00  0.00    -0.004 C 
ATOM     20  C   UNL A   1      31.798 -36.624 -29.891  0.00  0.00    -0.026 C 
ATOM     21  C   UNL A   1      31.324 -35.666 -28.825  0.00  0.00    +0.050 C 
ATOM     22  O   UNL A   1      32.450 -34.861 -28.459  0.00  0.00    -0.354 OA
BRANCH  18  23
ATOM     23  C   UNL A   1      33.907 -33.579 -29.980  0.00  0.00    +0.428 C 
ATOM     24  F   UNL A   1      33.935 -33.495 -31.329  0.00  0.00    -0.167 F 
ATOM     25  F   UNL A   1      35.137 -33.233 -29.526  0.00  0.00    -0.167 F 
ATOM     26  F   UNL A   1      33.053 -32.621 -29.536  0.00  0.00    -0.167 F 
ENDBRANCH  18  23
ENDBRANCH  17  18
ENDBRANCH  16  17
ENDBRANCH  12  16
TORSDOF 5
ENDMDL
MODEL 5
REMARK VINA RESULT:    -7.056     20.901     21.674
REMARK INTER + INTRA:          -9.811
REMARK INTER:                  -8.768
REMARK INTRA:                  -1.043
REMARK UNBOUND:                -0.899
REMARK  Name = cpd69.pdb
REMARK  6 active torsions:
REMARK  status: ('A' for Active; 'I' for Inactive)
REMARK    1  A    between atoms: C_1  and  C_2
REMARK    2  A    between atoms: C_11  and  N_12
REMARK    3  A    between atoms: C_13  and  C_14
REMARK    4  A    between atoms: C_14  and  S_15
REMARK    5  A    between atoms: S_15  and  C_16
REMARK    6  A    between atoms: C_16  and  C_17
REMARK                            x       y       z     vdW  Elec       q    Type
REMARK                         _______ _______ _______ _____ _____    ______ ____
ROOT
ATOM      1  C   UNL A   1      42.525 -20.529 -40.063  0.00  0.00    -0.022 C 
ATOM      2  C   UNL A   1      43.954 -20.997 -40.074  0.00  0.00    +0.045 A 
ATOM      3  N   UNL A   1      44.342 -21.598 -41.225  0.00  0.00    -0.251 NA
ATOM      4  C   UNL A   1      45.589 -22.069 -41.334  0.00  0.00    +0.076 A 
ATOM      5  C   UNL A   1      45.940 -22.706 -42.519  0.00  0.00    -0.035 A 
ATOM      6  C   UNL A   1      47.217 -23.229 -42.732  0.00  0.00    -0.057 A 
ATOM      7  C   UNL A   1      48.172 -23.108 -41.737  0.00  0.00    -0.026 A 
ATOM      8  C   UNL A   1      47.833 -22.469 -40.546  0.00  0.00    +0.134 A 
ATOM      9  F   UNL A   1      48.795 -22.348 -39.615  0.00  0.00    -0.205 F 
ATOM     10  C   UNL A   1      46.543 -21.942 -40.308  0.00  0.00    +0.056 A 
ATOM     11  C   UNL A   1      46.140 -21.271 -39.120  0.00  0.00    +0.042 A 
ATOM     12  C   UNL A   1      44.803 -20.846 -38.972  0.00  0.00    +0.005 A 
ENDROOT
BRANCH  11  13
ATOM     13  N   UNL A   1      47.022 -21.180 -38.010  0.00  0.00    -0.357 N 
ATOM     14  H   UNL A   1      46.873 -20.496 -37.318  0.00  0.00    +0.000 HD
ATOM     15  H   UNL A   1      47.781 -21.802 -37.932  0.00  0.00    +0.000 HD
ENDBRANCH  11  13
BRANCH  12  16
ATOM     16  C   UNL A   1      44.303 -20.265 -37.669  0.00  0.00    +0.025 C 
BRANCH  16  17
ATOM     17  S   UNL A   1      44.653 -18.479 -37.553  0.00  0.00    -0.113 S 
BRANCH  17  18
ATOM     18  C   UNL A   1      45.876 -18.440 -36.135  0.00  0.00    +0.210 C 
ATOM     19  C   UNL A   1      45.343 -17.552 -35.001  0.00  0.00    -0.004 C 
ATOM     20  C   UNL A   1      44.487 -18.494 -34.189  0.00  0.00    -0.026 C 
ATOM     21  C   UNL A   1      45.272 -19.780 -34.288  0.00  0.00    +0.050 C 
ATOM     22  O   UNL A   1      45.900 -19.785 -35.575  0.00  0.00    -0.354 OA
BRANCH  18  23
ATOM     23  C   UNL A   1      47.311 -18.007 -36.538  0.00  0.00    +0.428 C 
ATOM     24  F   UNL A   1      47.477 -17.931 -37.878  0.00  0.00    -0.167 F 
ATOM     25  F   UNL A   1      48.243 -18.868 -36.061  0.00  0.00    -0.167 F 
ATOM     26  F   UNL A   1      47.620 -16.788 -36.026  0.00  0.00    -0.167 F 
ENDBRANCH  18  23
ENDBRANCH  17  18
ENDBRANCH  16  17
ENDBRANCH  12  16
TORSDOF 5
ENDMDL
MODEL 6
REMARK VINA RESULT:    -6.932     21.605     22.167
REMARK INTER + INTRA:          -9.654
REMARK INTER:                  -9.011
REMARK INTRA:                  -0.643
REMARK UNBOUND:                -0.899
REMARK  Name = cpd69.pdb
REMARK  6 active torsions:
REMARK  status: ('A' for Active; 'I' for Inactive)
REMARK    1  A    between atoms: C_1  and  C_2
REMARK    2  A    between atoms: C_11  and  N_12
REMARK    3  A    between atoms: C_13  and  C_14
REMARK    4  A    between atoms: C_14  and  S_15
REMARK    5  A    between atoms: S_15  and  C_16
REMARK    6  A    between atoms: C_16  and  C_17
REMARK                            x       y       z     vdW  Elec       q    Type
REMARK                         _______ _______ _______ _____ _____    ______ ____
ROOT
ATOM      1  C   UNL A   1      43.292 -18.574 -39.740  0.00  0.00    -0.022 C 
ATOM      2  C   UNL A   1      44.493 -19.446 -39.985  0.00  0.00    +0.045 A 
ATOM      3  N   UNL A   1      44.372 -20.291 -41.036  0.00  0.00    -0.251 NA
ATOM      4  C   UNL A   1      45.377 -21.125 -41.329  0.00  0.00    +0.076 A 
ATOM      5  C   UNL A   1      45.202 -21.999 -42.396  0.00  0.00    -0.035 A 
ATOM      6  C   UNL A   1      46.191 -22.905 -42.784  0.00  0.00    -0.057 A 
ATOM      7  C   UNL A   1      47.389 -22.937 -42.090  0.00  0.00    -0.026 A 
ATOM      8  C   UNL A   1      47.577 -22.064 -41.021  0.00  0.00    +0.134 A 
ATOM      9  F   UNL A   1      48.762 -22.106 -40.389  0.00  0.00    -0.205 F 
ATOM     10  C   UNL A   1      46.583 -21.146 -40.607  0.00  0.00    +0.056 A 
ATOM     11  C   UNL A   1      46.719 -20.225 -39.532  0.00  0.00    +0.042 A 
ATOM     12  C   UNL A   1      45.631 -19.402 -39.171  0.00  0.00    +0.005 A 
ENDROOT
BRANCH  11  13
ATOM     13  N   UNL A   1      47.874 -20.246 -38.706  0.00  0.00    -0.357 N 
ATOM     14  H   UNL A   1      48.104 -19.459 -38.161  0.00  0.00    +0.000 HD
ATOM     15  H   UNL A   1      48.444 -21.048 -38.678  0.00  0.00    +0.000 HD
ENDBRANCH  11  13
BRANCH  12  16
ATOM     16  C   UNL A   1      45.687 -18.519 -37.945  0.00  0.00    +0.025 C 
BRANCH  16  17
ATOM     17  S   UNL A   1      45.315 -19.457 -36.425  0.00  0.00    -0.113 S 
BRANCH  17  18
ATOM     18  C   UNL A   1      46.041 -18.329 -35.117  0.00  0.00    +0.210 C 
ATOM     19  C   UNL A   1      45.371 -16.948 -35.177  0.00  0.00    -0.004 C 
ATOM     20  C   UNL A   1      44.150 -17.112 -34.306  0.00  0.00    -0.026 C 
ATOM     21  C   UNL A   1      44.670 -18.024 -33.220  0.00  0.00    +0.050 C 
ATOM     22  O   UNL A   1      45.642 -18.881 -33.829  0.00  0.00    -0.354 OA
BRANCH  18  23
ATOM     23  C   UNL A   1      47.586 -18.189 -35.179  0.00  0.00    +0.428 C 
ATOM     24  F   UNL A   1      48.141 -17.976 -33.965  0.00  0.00    -0.167 F 
ATOM     25  F   UNL A   1      47.960 -17.164 -35.983  0.00  0.00    -0.167 F 
ATOM     26  F   UNL A   1      48.161 -19.307 -35.693  0.00  0.00    -0.167 F 
ENDBRANCH  18  23
ENDBRANCH  17  18
ENDBRANCH  16  17
ENDBRANCH  12  16
TORSDOF 5
ENDMDL
MODEL 7
REMARK VINA RESULT:    -6.852      1.410      1.955
REMARK INTER + INTRA:          -9.553
REMARK INTER:                  -8.952
REMARK INTRA:                  -0.601
REMARK UNBOUND:                -0.899
REMARK  Name = cpd69.pdb
REMARK  6 active torsions:
REMARK  status: ('A' for Active; 'I' for Inactive)
REMARK    1  A    between atoms: C_1  and  C_2
REMARK    2  A    between atoms: C_11  and  N_12
REMARK    3  A    between atoms: C_13  and  C_14
REMARK    4  A    between atoms: C_14  and  S_15
REMARK    5  A    between atoms: S_15  and  C_16
REMARK    6  A    between atoms: C_16  and  C_17
REMARK                            x       y       z     vdW  Elec       q    Type
REMARK                         _______ _______ _______ _____ _____    ______ ____
ROOT
ATOM      1  C   UNL A   1      34.449 -35.466 -30.124  0.00  0.00    -0.022 C 
ATOM      2  C   UNL A   1      35.856 -35.991 -30.041  0.00  0.00    +0.045 A 
ATOM      3  N   UNL A   1      36.667 -35.595 -31.051  0.00  0.00    -0.251 NA
ATOM      4  C   UNL A   1      37.934 -36.021 -31.084  0.00  0.00    +0.076 A 
ATOM      5  C   UNL A   1      38.726 -35.617 -32.154  0.00  0.00    -0.035 A 
ATOM      6  C   UNL A   1      40.061 -36.005 -32.277  0.00  0.00    -0.057 A 
ATOM      7  C   UNL A   1      40.624 -36.813 -31.304  0.00  0.00    -0.026 A 
ATOM      8  C   UNL A   1      39.842 -37.222 -30.227  0.00  0.00    +0.134 A 
ATOM      9  F   UNL A   1      40.431 -37.984 -29.290  0.00  0.00    -0.205 F 
ATOM     10  C   UNL A   1      38.485 -36.848 -30.089  0.00  0.00    +0.056 A 
ATOM     11  C   UNL A   1      37.639 -37.224 -29.008  0.00  0.00    +0.042 A 
ATOM     12  C   UNL A   1      36.280 -36.843 -29.015  0.00  0.00    +0.005 A 
ENDROOT
BRANCH  11  13
ATOM     13  N   UNL A   1      38.100 -38.125 -28.012  0.00  0.00    -0.357 N 
ATOM     14  H   UNL A   1      37.456 -38.568 -27.414  0.00  0.00    +0.000 HD
ATOM     15  H   UNL A   1      39.064 -38.307 -27.921  0.00  0.00    +0.000 HD
ENDBRANCH  11  13
BRANCH  12  16
ATOM     16  C   UNL A   1      35.319 -37.347 -27.962  0.00  0.00    +0.025 C 
BRANCH  16  17
ATOM     17  S   UNL A   1      33.986 -38.352 -28.697  0.00  0.00    -0.113 S 
BRANCH  17  18
ATOM     18  C   UNL A   1      34.441 -40.062 -28.082  0.00  0.00    +0.210 C 
ATOM     19  C   UNL A   1      34.126 -41.112 -29.159  0.00  0.00    -0.004 C 
ATOM     20  C   UNL A   1      35.372 -41.126 -30.010  0.00  0.00    -0.026 C 
ATOM     21  C   UNL A   1      36.452 -40.917 -28.975  0.00  0.00    +0.050 C 
ATOM     22  O   UNL A   1      35.892 -40.081 -27.955  0.00  0.00    -0.354 OA
BRANCH  18  23
ATOM     23  C   UNL A   1      33.784 -40.452 -26.731  0.00  0.00    +0.428 C 
ATOM     24  F   UNL A   1      34.228 -41.637 -26.256  0.00  0.00    -0.167 F 
ATOM     25  F   UNL A   1      32.435 -40.537 -26.841  0.00  0.00    -0.167 F 
ATOM     26  F   UNL A   1      34.031 -39.519 -25.776  0.00  0.00    -0.167 F 
ENDBRANCH  18  23
ENDBRANCH  17  18
ENDBRANCH  16  17
ENDBRANCH  12  16
TORSDOF 5
ENDMDL
MODEL 8
REMARK VINA RESULT:    -6.846      3.373      5.300
REMARK INTER + INTRA:          -9.546
REMARK INTER:                  -8.604
REMARK INTRA:                  -0.942
REMARK UNBOUND:                -0.899
REMARK  Name = cpd69.pdb
REMARK  6 active torsions:
REMARK  status: ('A' for Active; 'I' for Inactive)
REMARK    1  A    between atoms: C_1  and  C_2
REMARK    2  A    between atoms: C_11  and  N_12
REMARK    3  A    between atoms: C_13  and  C_14
REMARK    4  A    between atoms: C_14  and  S_15
REMARK    5  A    between atoms: S_15  and  C_16
REMARK    6  A    between atoms: C_16  and  C_17
REMARK                            x       y       z     vdW  Elec       q    Type
REMARK                         _______ _______ _______ _____ _____    ______ ____
ROOT
ATOM      1  C   UNL A   1      35.158 -38.014 -27.182  0.00  0.00    -0.022 C 
ATOM      2  C   UNL A   1      36.122 -37.646 -28.277  0.00  0.00    +0.045 A 
ATOM      3  N   UNL A   1      37.407 -38.003 -28.041  0.00  0.00    -0.251 NA
ATOM      4  C   UNL A   1      38.349 -37.705 -28.943  0.00  0.00    +0.076 A 
ATOM      5  C   UNL A   1      39.661 -38.061 -28.650  0.00  0.00    -0.035 A 
ATOM      6  C   UNL A   1      40.715 -37.797 -29.528  0.00  0.00    -0.057 A 
ATOM      7  C   UNL A   1      40.452 -37.167 -30.732  0.00  0.00    -0.026 A 
ATOM      8  C   UNL A   1      39.141 -36.808 -31.037  0.00  0.00    +0.134 A 
ATOM      9  F   UNL A   1      38.922 -36.222 -32.227  0.00  0.00    -0.205 F 
ATOM     10  C   UNL A   1      38.062 -37.058 -30.158  0.00  0.00    +0.056 A 
ATOM     11  C   UNL A   1      36.703 -36.726 -30.417  0.00  0.00    +0.042 A 
ATOM     12  C   UNL A   1      35.721 -36.965 -29.432  0.00  0.00    +0.005 A 
ENDROOT
BRANCH  11  13
ATOM     13  N   UNL A   1      36.349 -35.996 -31.583  0.00  0.00    -0.357 N 
ATOM     14  H   UNL A   1      36.636 -36.315 -32.469  0.00  0.00    +0.000 HD
ATOM     15  H   UNL A   1      35.817 -35.171 -31.505  0.00  0.00    +0.000 HD
ENDBRANCH  11  13
BRANCH  12  16
ATOM     16  C   UNL A   1      34.297 -36.492 -29.612  0.00  0.00    +0.025 C 
BRANCH  16  17
ATOM     17  S   UNL A   1      34.030 -34.859 -28.844  0.00  0.00    -0.113 S 
BRANCH  17  18
ATOM     18  C   UNL A   1      33.065 -33.980 -30.188  0.00  0.00    +0.210 C 
ATOM     19  C   UNL A   1      33.014 -32.472 -29.903  0.00  0.00    -0.004 C 
ATOM     20  C   UNL A   1      34.286 -31.954 -30.528  0.00  0.00    -0.026 C 
ATOM     21  C   UNL A   1      34.401 -32.827 -31.755  0.00  0.00    +0.050 C 
ATOM     22  O   UNL A   1      33.852 -34.103 -31.408  0.00  0.00    -0.354 OA
BRANCH  18  23
ATOM     23  C   UNL A   1      31.635 -34.540 -30.420  0.00  0.00    +0.428 C 
ATOM     24  F   UNL A   1      30.767 -33.597 -30.848  0.00  0.00    -0.167 F 
ATOM     25  F   UNL A   1      31.123 -35.080 -29.286  0.00  0.00    -0.167 F 
ATOM     26  F   UNL A   1      31.640 -35.533 -31.346  0.00  0.00    -0.167 F 
ENDBRANCH  18  23
ENDBRANCH  17  18
ENDBRANCH  16  17
ENDBRANCH  12  16
TORSDOF 5
ENDMDL
MODEL 9
REMARK VINA RESULT:    -6.836      3.833      5.419
REMARK INTER + INTRA:          -9.533
REMARK INTER:                  -8.594
REMARK INTRA:                  -0.940
REMARK UNBOUND:                -0.899
REMARK  Name = cpd69.pdb
REMARK  6 active torsions:
REMARK  status: ('A' for Active; 'I' for Inactive)
REMARK    1  A    between atoms: C_1  and  C_2
REMARK    2  A    between atoms: C_11  and  N_12
REMARK    3  A    between atoms: C_13  and  C_14
REMARK    4  A    between atoms: C_14  and  S_15
REMARK    5  A    between atoms: S_15  and  C_16
REMARK    6  A    between atoms: C_16  and  C_17
REMARK                            x       y       z     vdW  Elec       q    Type
REMARK                         _______ _______ _______ _____ _____    ______ ____
ROOT
ATOM      1  C   UNL A   1      34.595 -38.278 -27.502  0.00  0.00    -0.022 C 
ATOM      2  C   UNL A   1      35.608 -37.813 -28.512  0.00  0.00    +0.045 A 
ATOM      3  N   UNL A   1      36.892 -38.116 -28.204  0.00  0.00    -0.251 NA
ATOM      4  C   UNL A   1      37.874 -37.730 -29.027  0.00  0.00    +0.076 A 
ATOM      5  C   UNL A   1      39.181 -38.033 -28.661  0.00  0.00    -0.035 A 
ATOM      6  C   UNL A   1      40.275 -37.677 -29.452  0.00  0.00    -0.057 A 
ATOM      7  C   UNL A   1      40.058 -37.006 -30.643  0.00  0.00    -0.026 A 
ATOM      8  C   UNL A   1      38.754 -36.699 -31.022  0.00  0.00    +0.134 A 
ATOM      9  F   UNL A   1      38.582 -36.071 -32.197  0.00  0.00    -0.205 F 
ATOM     10  C   UNL A   1      37.633 -37.043 -30.229  0.00  0.00    +0.056 A 
ATOM     11  C   UNL A   1      36.279 -36.767 -30.566  0.00  0.00    +0.042 A 
ATOM     12  C   UNL A   1      35.248 -37.100 -29.661  0.00  0.00    +0.005 A 
ENDROOT
BRANCH  11  13
ATOM     13  N   UNL A   1      35.965 -36.002 -31.721  0.00  0.00    -0.357 N 
ATOM     14  H   UNL A   1      36.126 -35.031 -31.727  0.00  0.00    +0.000 HD
ATOM     15  H   UNL A   1      35.586 -36.444 -32.516  0.00  0.00    +0.000 HD
ENDBRANCH  11  13
BRANCH  12  16
ATOM     16  C   UNL A   1      33.816 -36.690 -29.917  0.00  0.00    +0.025 C 
BRANCH  16  17
ATOM     17  S   UNL A   1      33.330 -35.268 -28.884  0.00  0.00    -0.113 S 
BRANCH  17  18
ATOM     18  C   UNL A   1      33.074 -33.945 -30.187  0.00  0.00    +0.210 C 
ATOM     19  C   UNL A   1      32.624 -34.585 -31.509  0.00  0.00    -0.004 C 
ATOM     20  C   UNL A   1      31.125 -34.679 -31.362  0.00  0.00    -0.026 C 
ATOM     21  C   UNL A   1      30.813 -33.410 -30.604  0.00  0.00    +0.050 C 
ATOM     22  O   UNL A   1      31.933 -33.152 -29.749  0.00  0.00    -0.354 OA
BRANCH  18  23
ATOM     23  C   UNL A   1      34.304 -33.026 -30.416  0.00  0.00    +0.428 C 
ATOM     24  F   UNL A   1      35.428 -33.501 -29.833  0.00  0.00    -0.167 F 
ATOM     25  F   UNL A   1      34.090 -31.779 -29.929  0.00  0.00    -0.167 F 
ATOM     26  F   UNL A   1      34.569 -32.880 -31.739  0.00  0.00    -0.167 F 
ENDBRANCH  18  23
ENDBRANCH  17  18
ENDBRANCH  16  17
ENDBRANCH  12  16
TORSDOF 5
ENDMDL
MODEL 10
REMARK VINA RESULT:    -6.804      1.891      2.456
REMARK INTER + INTRA:          -9.492
REMARK INTER:                  -8.858
REMARK INTRA:                  -0.634
REMARK UNBOUND:                -0.899
REMARK  Name = cpd69.pdb
REMARK  6 active torsions:
REMARK  status: ('A' for Active; 'I' for Inactive)
REMARK    1  A    between atoms: C_1  and  C_2
REMARK    2  A    between atoms: C_11  and  N_12
REMARK    3  A    between atoms: C_13  and  C_14
REMARK    4  A    between atoms: C_14  and  S_15
REMARK    5  A    between atoms: S_15  and  C_16
REMARK    6  A    between atoms: C_16  and  C_17
REMARK                            x       y       z     vdW  Elec       q    Type
REMARK                         _______ _______ _______ _____ _____    ______ ____
ROOT
ATOM      1  C   UNL A   1      35.471 -35.189 -31.105  0.00  0.00    -0.022 C 
ATOM      2  C   UNL A   1      36.819 -35.835 -30.934  0.00  0.00    +0.045 A 
ATOM      3  N   UNL A   1      37.771 -35.388 -31.789  0.00  0.00    -0.251 NA
ATOM      4  C   UNL A   1      39.001 -35.911 -31.735  0.00  0.00    +0.076 A 
ATOM      5  C   UNL A   1      39.941 -35.449 -32.649  0.00  0.00    -0.035 A 
ATOM      6  C   UNL A   1      41.252 -35.928 -32.672  0.00  0.00    -0.057 A 
ATOM      7  C   UNL A   1      41.637 -36.891 -31.755  0.00  0.00    -0.026 A 
ATOM      8  C   UNL A   1      40.705 -37.360 -30.833  0.00  0.00    +0.134 A 
ATOM      9  F   UNL A   1      41.123 -38.275 -29.942  0.00  0.00    -0.205 F 
ATOM     10  C   UNL A   1      39.370 -36.894 -30.800  0.00  0.00    +0.056 A 
ATOM     11  C   UNL A   1      38.376 -37.325 -29.877  0.00  0.00    +0.042 A 
ATOM     12  C   UNL A   1      37.057 -36.835 -29.986  0.00  0.00    +0.005 A 
ENDROOT
BRANCH  11  13
ATOM     13  N   UNL A   1      38.651 -38.375 -28.960  0.00  0.00    -0.357 N 
ATOM     14  H   UNL A   1      38.090 -39.183 -28.955  0.00  0.00    +0.000 HD
ATOM     15  H   UNL A   1      39.403 -38.293 -28.330  0.00  0.00    +0.000 HD
ENDBRANCH  11  13
BRANCH  12  16
ATOM     16  C   UNL A   1      35.944 -37.380 -29.120  0.00  0.00    +0.025 C 
BRANCH  16  17
ATOM     17  S   UNL A   1      34.806 -38.438 -30.077  0.00  0.00    -0.113 S 
BRANCH  17  18
ATOM     18  C   UNL A   1      34.557 -39.867 -28.891  0.00  0.00    +0.210 C 
ATOM     19  C   UNL A   1      34.641 -39.370 -27.440  0.00  0.00    -0.004 C 
ATOM     20  C   UNL A   1      33.231 -38.922 -27.140  0.00  0.00    -0.026 C 
ATOM     21  C   UNL A   1      32.418 -39.946 -27.895  0.00  0.00    +0.050 C 
ATOM     22  O   UNL A   1      33.176 -40.303 -29.057  0.00  0.00    -0.354 OA
BRANCH  18  23
ATOM     23  C   UNL A   1      35.522 -41.061 -29.116  0.00  0.00    +0.428 C 
ATOM     24  F   UNL A   1      36.637 -40.712 -29.796  0.00  0.00    -0.167 F 
ATOM     25  F   UNL A   1      34.921 -42.062 -29.805  0.00  0.00    -0.167 F 
ATOM     26  F   UNL A   1      35.924 -41.598 -27.935  0.00  0.00    -0.167 F 
ENDBRANCH  18  23
ENDBRANCH  17  18
ENDBRANCH  16  17
ENDBRANCH  12  16
TORSDOF 5
ENDMDL
MODEL 11
REMARK VINA RESULT:    -6.779      4.489      6.145
REMARK INTER + INTRA:          -9.462
REMARK INTER:                  -8.636
REMARK INTRA:                  -0.826
REMARK UNBOUND:                -0.899
REMARK  Name = cpd69.pdb
REMARK  6 active torsions:
REMARK  status: ('A' for Active; 'I' for Inactive)
REMARK    1  A    between atoms: C_1  and  C_2
REMARK    2  A    between atoms: C_11  and  N_12
REMARK    3  A    between atoms: C_13  and  C_14
REMARK    4  A    between atoms: C_14  and  S_15
REMARK    5  A    between atoms: S_15  and  C_16
REMARK    6  A    between atoms: C_16  and  C_17
REMARK                            x       y       z     vdW  Elec       q    Type
REMARK                         _______ _______ _______ _____ _____    ______ ____
ROOT
ATOM      1  C   UNL A   1      34.151 -36.037 -29.013  0.00  0.00    -0.022 C 
ATOM      2  C   UNL A   1      35.385 -35.600 -29.754  0.00  0.00    +0.045 A 
ATOM      3  N   UNL A   1      36.397 -36.500 -29.746  0.00  0.00    -0.251 NA
ATOM      4  C   UNL A   1      37.548 -36.202 -30.359  0.00  0.00    +0.076 A 
ATOM      5  C   UNL A   1      38.574 -37.140 -30.302  0.00  0.00    -0.035 A 
ATOM      6  C   UNL A   1      39.811 -36.925 -30.913  0.00  0.00    -0.057 A 
ATOM      7  C   UNL A   1      40.029 -35.745 -31.604  0.00  0.00    -0.026 A 
ATOM      8  C   UNL A   1      39.008 -34.800 -31.671  0.00  0.00    +0.134 A 
ATOM      9  F   UNL A   1      39.248 -33.679 -32.373  0.00  0.00    -0.205 F 
ATOM     10  C   UNL A   1      37.752 -34.995 -31.050  0.00  0.00    +0.056 A 
ATOM     11  C   UNL A   1      36.669 -34.074 -31.092  0.00  0.00    +0.042 A 
ATOM     12  C   UNL A   1      35.484 -34.350 -30.376  0.00  0.00    +0.005 A 
ENDROOT
BRANCH  11  13
ATOM     13  N   UNL A   1      36.829 -32.799 -31.698  0.00  0.00    -0.357 N 
ATOM     14  H   UNL A   1      37.365 -32.106 -31.250  0.00  0.00    +0.000 HD
ATOM     15  H   UNL A   1      36.403 -32.610 -32.565  0.00  0.00    +0.000 HD
ENDBRANCH  11  13
BRANCH  12  16
ATOM     16  C   UNL A   1      34.371 -33.331 -30.276  0.00  0.00    +0.025 C 
BRANCH  16  17
ATOM     17  S   UNL A   1      33.265 -33.400 -31.724  0.00  0.00    -0.113 S 
BRANCH  17  18
ATOM     18  C   UNL A   1      31.591 -33.187 -30.911  0.00  0.00    +0.210 C 
ATOM     19  C   UNL A   1      31.676 -32.139 -29.791  0.00  0.00    -0.004 C 
ATOM     20  C   UNL A   1      31.451 -30.833 -30.514  0.00  0.00    -0.026 C 
ATOM     21  C   UNL A   1      30.434 -31.232 -31.556  0.00  0.00    +0.050 C 
ATOM     22  O   UNL A   1      30.719 -32.589 -31.915  0.00  0.00    -0.354 OA
BRANCH  18  23
ATOM     23  C   UNL A   1      30.965 -34.504 -30.380  0.00  0.00    +0.428 C 
ATOM     24  F   UNL A   1      31.176 -34.688 -29.058  0.00  0.00    -0.167 F 
ATOM     25  F   UNL A   1      31.463 -35.587 -31.026  0.00  0.00    -0.167 F 
ATOM     26  F   UNL A   1      29.622 -34.525 -30.579  0.00  0.00    -0.167 F 
ENDBRANCH  18  23
ENDBRANCH  17  18
ENDBRANCH  16  17
ENDBRANCH  12  16
TORSDOF 5
ENDMDL
MODEL 12
REMARK VINA RESULT:    -6.692     18.572     20.312
REMARK INTER + INTRA:          -9.352
REMARK INTER:                  -8.360
REMARK INTRA:                  -0.991
REMARK UNBOUND:                -0.899
REMARK  Name = cpd69.pdb
REMARK  6 active torsions:
REMARK  status: ('A' for Active; 'I' for Inactive)
REMARK    1  A    between atoms: C_1  and  C_2
REMARK    2  A    between atoms: C_11  and  N_12
REMARK    3  A    between atoms: C_13  and  C_14
REMARK    4  A    between atoms: C_14  and  S_15
REMARK    5  A    between atoms: S_15  and  C_16
REMARK    6  A    between atoms: C_16  and  C_17
REMARK                            x       y       z     vdW  Elec       q    Type
REMARK                         _______ _______ _______ _____ _____    ______ ____
ROOT
ATOM      1  C   UNL A   1      46.250 -20.176 -36.902  0.00  0.00    -0.022 C 
ATOM      2  C   UNL A   1      45.972 -20.749 -38.265  0.00  0.00    +0.045 A 
ATOM      3  N   UNL A   1      47.017 -21.403 -38.826  0.00  0.00    -0.251 NA
ATOM      4  C   UNL A   1      46.883 -21.934 -40.046  0.00  0.00    +0.076 A 
ATOM      5  C   UNL A   1      47.988 -22.571 -40.600  0.00  0.00    -0.035 A 
ATOM      6  C   UNL A   1      47.949 -23.160 -41.866  0.00  0.00    -0.057 A 
ATOM      7  C   UNL A   1      46.773 -23.118 -42.595  0.00  0.00    -0.026 A 
ATOM      8  C   UNL A   1      45.658 -22.485 -42.049  0.00  0.00    +0.134 A 
ATOM      9  F   UNL A   1      44.528 -22.488 -42.777  0.00  0.00    -0.205 F 
ATOM     10  C   UNL A   1      45.681 -21.875 -40.774  0.00  0.00    +0.056 A 
ATOM     11  C   UNL A   1      44.575 -21.224 -40.159  0.00  0.00    +0.042 A 
ATOM     12  C   UNL A   1      44.739 -20.592 -38.908  0.00  0.00    +0.005 A 
ENDROOT
BRANCH  11  13
ATOM     13  N   UNL A   1      43.357 -21.051 -40.867  0.00  0.00    -0.357 N 
ATOM     14  H   UNL A   1      42.760 -21.820 -41.015  0.00  0.00    +0.000 HD
ATOM     15  H   UNL A   1      43.109 -20.162 -41.210  0.00  0.00    +0.000 HD
ENDBRANCH  11  13
BRANCH  12  16
ATOM     16  C   UNL A   1      43.631 -19.767 -38.294  0.00  0.00    +0.025 C 
BRANCH  16  17
ATOM     17  S   UNL A   1      42.677 -20.728 -37.072  0.00  0.00    -0.113 S 
BRANCH  17  18
ATOM     18  C   UNL A   1      40.989 -20.772 -37.884  0.00  0.00    +0.210 C 
ATOM     19  C   UNL A   1      39.956 -20.064 -36.994  0.00  0.00    -0.004 C 
ATOM     20  C   UNL A   1      40.074 -18.616 -37.402  0.00  0.00    -0.026 C 
ATOM     21  C   UNL A   1      40.334 -18.737 -38.885  0.00  0.00    +0.050 C 
ATOM     22  O   UNL A   1      41.084 -19.942 -39.078  0.00  0.00    -0.354 OA
BRANCH  18  23
ATOM     23  C   UNL A   1      40.499 -22.195 -38.264  0.00  0.00    +0.428 C 
ATOM     24  F   UNL A   1      40.137 -22.928 -37.188  0.00  0.00    -0.167 F 
ATOM     25  F   UNL A   1      41.456 -22.889 -38.927  0.00  0.00    -0.167 F 
ATOM     26  F   UNL A   1      39.424 -22.140 -39.092  0.00  0.00    -0.167 F 
ENDBRANCH  18  23
ENDBRANCH  17  18
ENDBRANCH  16  17
ENDBRANCH  12  16
TORSDOF 5
ENDMDL
MODEL 13
REMARK VINA RESULT:    -6.571     20.729     22.139
REMARK INTER + INTRA:          -9.198
REMARK INTER:                  -8.315
REMARK INTRA:                  -0.883
REMARK UNBOUND:                -0.899
REMARK  Name = cpd69.pdb
REMARK  6 active torsions:
REMARK  status: ('A' for Active; 'I' for Inactive)
REMARK    1  A    between atoms: C_1  and  C_2
REMARK    2  A    between atoms: C_11  and  N_12
REMARK    3  A    between atoms: C_13  and  C_14
REMARK    4  A    between atoms: C_14  and  S_15
REMARK    5  A    between atoms: S_15  and  C_16
REMARK    6  A    between atoms: C_16  and  C_17
REMARK                            x       y       z     vdW  Elec       q    Type
REMARK                         _______ _______ _______ _____ _____    ______ ____
ROOT
ATOM      1  C   UNL A   1      43.898 -17.711 -41.291  0.00  0.00    -0.022 C 
ATOM      2  C   UNL A   1      44.885 -18.829 -41.099  0.00  0.00    +0.045 A 
ATOM      3  N   UNL A   1      44.777 -19.839 -41.996  0.00  0.00    -0.251 NA
ATOM      4  C   UNL A   1      45.596 -20.892 -41.903  0.00  0.00    +0.076 A 
ATOM      5  C   UNL A   1      45.433 -21.922 -42.823  0.00  0.00    -0.035 A 
ATOM      6  C   UNL A   1      46.238 -23.062 -42.812  0.00  0.00    -0.057 A 
ATOM      7  C   UNL A   1      47.238 -23.176 -41.861  0.00  0.00    -0.026 A 
ATOM      8  C   UNL A   1      47.412 -22.150 -40.935  0.00  0.00    +0.134 A 
ATOM      9  F   UNL A   1      48.409 -22.284 -40.044  0.00  0.00    -0.205 F 
ATOM     10  C   UNL A   1      46.600 -20.992 -40.924  0.00  0.00    +0.056 A 
ATOM     11  C   UNL A   1      46.736 -19.907 -40.013  0.00  0.00    +0.042 A 
ATOM     12  C   UNL A   1      45.821 -18.834 -40.058  0.00  0.00    +0.005 A 
ENDROOT
BRANCH  11  13
ATOM     13  N   UNL A   1      47.671 -19.975 -38.946  0.00  0.00    -0.357 N 
ATOM     14  H   UNL A   1      47.427 -19.632 -38.056  0.00  0.00    +0.000 HD
ATOM     15  H   UNL A   1      48.562 -20.365 -39.097  0.00  0.00    +0.000 HD
ENDBRANCH  11  13
BRANCH  12  16
ATOM     16  C   UNL A   1      45.843 -17.739 -39.015  0.00  0.00    +0.025 C 
BRANCH  16  17
ATOM     17  S   UNL A   1      44.458 -17.905 -37.840  0.00  0.00    -0.113 S 
BRANCH  17  18
ATOM     18  C   UNL A   1      45.335 -18.619 -36.346  0.00  0.00    +0.210 C 
ATOM     19  C   UNL A   1      46.794 -18.139 -36.309  0.00  0.00    -0.004 C 
ATOM     20  C   UNL A   1      46.710 -16.818 -35.583  0.00  0.00    -0.026 C 
ATOM     21  C   UNL A   1      45.630 -17.097 -34.566  0.00  0.00    +0.050 C 
ATOM     22  O   UNL A   1      44.714 -18.014 -35.175  0.00  0.00    -0.354 OA
BRANCH  18  23
ATOM     23  C   UNL A   1      45.267 -20.167 -36.244  0.00  0.00    +0.428 C 
ATOM     24  F   UNL A   1      46.476 -20.730 -36.023  0.00  0.00    -0.167 F 
ATOM     25  F   UNL A   1      44.762 -20.718 -37.374  0.00  0.00    -0.167 F 
ATOM     26  F   UNL A   1      44.452 -20.558 -35.231  0.00  0.00    -0.167 F 
ENDBRANCH  18  23
ENDBRANCH  17  18
ENDBRANCH  16  17
ENDBRANCH  12  16
TORSDOF 5
ENDMDL
MODEL 14
REMARK VINA RESULT:    -6.527     21.492     22.167
REMARK INTER + INTRA:          -9.143
REMARK INTER:                  -8.440
REMARK INTRA:                  -0.703
REMARK UNBOUND:                -0.899
REMARK  Name = cpd69.pdb
REMARK  6 active torsions:
REMARK  status: ('A' for Active; 'I' for Inactive)
REMARK    1  A    between atoms: C_1  and  C_2
REMARK    2  A    between atoms: C_11  and  N_12
REMARK    3  A    between atoms: C_13  and  C_14
REMARK    4  A    between atoms: C_14  and  S_15
REMARK    5  A    between atoms: S_15  and  C_16
REMARK    6  A    between atoms: C_16  and  C_17
REMARK                            x       y       z     vdW  Elec       q    Type
REMARK                         _______ _______ _______ _____ _____    ______ ____
ROOT
ATOM      1  C   UNL A   1      43.895 -18.981 -41.151  0.00  0.00    -0.022 C 
ATOM      2  C   UNL A   1      45.085 -19.876 -40.941  0.00  0.00    +0.045 A 
ATOM      3  N   UNL A   1      45.202 -20.881 -41.842  0.00  0.00    -0.251 NA
ATOM      4  C   UNL A   1      46.215 -21.747 -41.735  0.00  0.00    +0.076 A 
ATOM      5  C   UNL A   1      46.283 -22.783 -42.661  0.00  0.00    -0.035 A 
ATOM      6  C   UNL A   1      47.303 -23.736 -42.636  0.00  0.00    -0.057 A 
ATOM      7  C   UNL A   1      48.285 -23.650 -41.664  0.00  0.00    -0.026 A 
ATOM      8  C   UNL A   1      48.230 -22.616 -40.733  0.00  0.00    +0.134 A 
ATOM      9  F   UNL A   1      49.216 -22.552 -39.822  0.00  0.00    -0.205 F 
ATOM     10  C   UNL A   1      47.199 -21.647 -40.736  0.00  0.00    +0.056 A 
ATOM     11  C   UNL A   1      47.094 -20.564 -39.820  0.00  0.00    +0.042 A 
ATOM     12  C   UNL A   1      45.982 -19.697 -39.881  0.00  0.00    +0.005 A 
ENDROOT
BRANCH  11  13
ATOM     13  N   UNL A   1      48.002 -20.447 -38.734  0.00  0.00    -0.357 N 
ATOM     14  H   UNL A   1      48.835 -20.973 -38.730  0.00  0.00    +0.000 HD
ATOM     15  H   UNL A   1      47.799 -19.841 -37.985  0.00  0.00    +0.000 HD
ENDBRANCH  11  13
BRANCH  12  16
ATOM     16  C   UNL A   1      45.761 -18.628 -38.836  0.00  0.00    +0.025 C 
BRANCH  16  17
ATOM     17  S   UNL A   1      44.918 -19.295 -37.362  0.00  0.00    -0.113 S 
BRANCH  17  18
ATOM     18  C   UNL A   1      45.716 -18.284 -36.001  0.00  0.00    +0.210 C 
ATOM     19  C   UNL A   1      45.998 -19.172 -34.779  0.00  0.00    -0.004 C 
ATOM     20  C   UNL A   1      47.352 -19.766 -35.082  0.00  0.00    -0.026 C 
ATOM     21  C   UNL A   1      48.042 -18.615 -35.775  0.00  0.00    +0.050 C 
ATOM     22  O   UNL A   1      47.032 -17.897 -36.493  0.00  0.00    -0.354 OA
BRANCH  18  23
ATOM     23  C   UNL A   1      44.912 -17.023 -35.585  0.00  0.00    +0.428 C 
ATOM     24  F   UNL A   1      45.243 -15.930 -36.308  0.00  0.00    -0.167 F 
ATOM     25  F   UNL A   1      45.104 -16.721 -34.278  0.00  0.00    -0.167 F 
ATOM     26  F   UNL A   1      43.577 -17.218 -35.740  0.00  0.00    -0.167 F 
ENDBRANCH  18  23
ENDBRANCH  17  18
ENDBRANCH  16  17
ENDBRANCH  12  16
TORSDOF 5
ENDMDL
MODEL 15
REMARK VINA RESULT:    -6.433     17.777     20.727
REMARK INTER + INTRA:          -9.025
REMARK INTER:                  -8.464
REMARK INTRA:                  -0.560
REMARK UNBOUND:                -0.899
REMARK  Name = cpd69.pdb
REMARK  6 active torsions:
REMARK  status: ('A' for Active; 'I' for Inactive)
REMARK    1  A    between atoms: C_1  and  C_2
REMARK    2  A    between atoms: C_11  and  N_12
REMARK    3  A    between atoms: C_13  and  C_14
REMARK    4  A    between atoms: C_14  and  S_15
REMARK    5  A    between atoms: S_15  and  C_16
REMARK    6  A    between atoms: C_16  and  C_17
REMARK                            x       y       z     vdW  Elec       q    Type
REMARK                         _______ _______ _______ _____ _____    ______ ____
ROOT
ATOM      1  C   UNL A   1      41.174 -22.272 -40.378  0.00  0.00    -0.022 C 
ATOM      2  C   UNL A   1      41.318 -22.050 -38.897  0.00  0.00    +0.045 A 
ATOM      3  N   UNL A   1      40.353 -22.628 -38.143  0.00  0.00    -0.251 NA
ATOM      4  C   UNL A   1      40.377 -22.476 -36.814  0.00  0.00    +0.076 A 
ATOM      5  C   UNL A   1      39.351 -23.059 -36.077  0.00  0.00    -0.035 A 
ATOM      6  C   UNL A   1      39.288 -22.960 -34.686  0.00  0.00    -0.057 A 
ATOM      7  C   UNL A   1      40.277 -22.266 -34.011  0.00  0.00    -0.026 A 
ATOM      8  C   UNL A   1      41.311 -21.680 -34.738  0.00  0.00    +0.134 A 
ATOM      9  F   UNL A   1      42.266 -21.037 -34.045  0.00  0.00    -0.205 F 
ATOM     10  C   UNL A   1      41.387 -21.760 -36.148  0.00  0.00    +0.056 A 
ATOM     11  C   UNL A   1      42.421 -21.193 -36.944  0.00  0.00    +0.042 A 
ATOM     12  C   UNL A   1      42.353 -21.283 -38.351  0.00  0.00    +0.005 A 
ENDROOT
BRANCH  11  13
ATOM     13  N   UNL A   1      43.427 -20.386 -36.350  0.00  0.00    -0.357 N 
ATOM     14  H   UNL A   1      43.438 -20.251 -35.375  0.00  0.00    +0.000 HD
ATOM     15  H   UNL A   1      44.115 -19.963 -36.913  0.00  0.00    +0.000 HD
ENDBRANCH  11  13
BRANCH  12  16
ATOM     16  C   UNL A   1      43.352 -20.568 -39.232  0.00  0.00    +0.025 C 
BRANCH  16  17
ATOM     17  S   UNL A   1      44.711 -21.673 -39.740  0.00  0.00    -0.113 S 
BRANCH  17  18
ATOM     18  C   UNL A   1      45.301 -20.826 -41.304  0.00  0.00    +0.210 C 
ATOM     19  C   UNL A   1      45.069 -19.311 -41.204  0.00  0.00    -0.004 C 
ATOM     20  C   UNL A   1      46.311 -18.810 -40.508  0.00  0.00    -0.026 C 
ATOM     21  C   UNL A   1      47.372 -19.713 -41.090  0.00  0.00    +0.050 C 
ATOM     22  O   UNL A   1      46.750 -20.980 -41.335  0.00  0.00    -0.354 OA
BRANCH  18  23
ATOM     23  C   UNL A   1      44.679 -21.389 -42.610  0.00  0.00    +0.428 C 
ATOM     24  F   UNL A   1      45.396 -22.408 -43.134  0.00  0.00    -0.167 F 
ATOM     25  F   UNL A   1      44.575 -20.431 -43.564  0.00  0.00    -0.167 F 
ATOM     26  F   UNL A   1      43.420 -21.851 -42.396  0.00  0.00    -0.167 F 
ENDBRANCH  18  23
ENDBRANCH  17  18
ENDBRANCH  16  17
ENDBRANCH  12  16
TORSDOF 5
ENDMDL
MODEL 16
REMARK VINA RESULT:    -6.324     21.090     22.181
REMARK INTER + INTRA:          -8.886
REMARK INTER:                  -8.226
REMARK INTRA:                  -0.660
REMARK UNBOUND:                -0.899
REMARK  Name = cpd69.pdb
REMARK  6 active torsions:
REMARK  status: ('A' for Active; 'I' for Inactive)
REMARK    1  A    between atoms: C_1  and  C_2
REMARK    2  A    between atoms: C_11  and  N_12
REMARK    3  A    between atoms: C_13  and  C_14
REMARK    4  A    between atoms: C_14  and  S_15
REMARK    5  A    between atoms: S_15  and  C_16
REMARK    6  A    between atoms: C_16  and  C_17
REMARK                            x       y       z     vdW  Elec       q    Type
REMARK                         _______ _______ _______ _____ _____    ______ ____
ROOT
ATOM      1  C   UNL A   1      42.530 -19.909 -38.902  0.00  0.00    -0.022 C 
ATOM      2  C   UNL A   1      43.617 -19.438 -37.975  0.00  0.00    +0.045 A 
ATOM      3  N   UNL A   1      43.175 -18.938 -36.796  0.00  0.00    -0.251 NA
ATOM      4  C   UNL A   1      44.059 -18.474 -35.905  0.00  0.00    +0.076 A 
ATOM      5  C   UNL A   1      43.565 -17.941 -34.720  0.00  0.00    -0.035 A 
ATOM      6  C   UNL A   1      44.405 -17.433 -33.727  0.00  0.00    -0.057 A 
ATOM      7  C   UNL A   1      45.776 -17.464 -33.919  0.00  0.00    -0.026 A 
ATOM      8  C   UNL A   1      46.283 -17.998 -35.101  0.00  0.00    +0.134 A 
ATOM      9  F   UNL A   1      47.619 -18.034 -35.240  0.00  0.00    -0.205 F 
ATOM     10  C   UNL A   1      45.448 -18.507 -36.123  0.00  0.00    +0.056 A 
ATOM     11  C   UNL A   1      45.905 -19.074 -37.345  0.00  0.00    +0.042 A 
ATOM     12  C   UNL A   1      44.972 -19.489 -38.319  0.00  0.00    +0.005 A 
ENDROOT
BRANCH  11  13
ATOM     13  N   UNL A   1      47.288 -19.065 -37.671  0.00  0.00    -0.357 N 
ATOM     14  H   UNL A   1      47.679 -19.813 -38.178  0.00  0.00    +0.000 HD
ATOM     15  H   UNL A   1      47.855 -18.310 -37.390  0.00  0.00    +0.000 HD
ENDBRANCH  11  13
BRANCH  12  16
ATOM     16  C   UNL A   1      45.420 -19.957 -39.686  0.00  0.00    +0.025 C 
BRANCH  16  17
ATOM     17  S   UNL A   1      45.691 -21.760 -39.722  0.00  0.00    -0.113 S 
BRANCH  17  18
ATOM     18  C   UNL A   1      46.228 -22.010 -41.499  0.00  0.00    +0.210 C 
ATOM     19  C   UNL A   1      47.515 -21.220 -41.779  0.00  0.00    -0.004 C 
ATOM     20  C   UNL A   1      48.609 -22.170 -41.353  0.00  0.00    -0.026 C 
ATOM     21  C   UNL A   1      48.036 -23.503 -41.772  0.00  0.00    +0.050 C 
ATOM     22  O   UNL A   1      46.615 -23.410 -41.620  0.00  0.00    -0.354 OA
BRANCH  18  23
ATOM     23  C   UNL A   1      45.138 -21.668 -42.551  0.00  0.00    +0.428 C 
ATOM     24  F   UNL A   1      43.883 -21.839 -42.079  0.00  0.00    -0.167 F 
ATOM     25  F   UNL A   1      45.263 -22.433 -43.663  0.00  0.00    -0.167 F 
ATOM     26  F   UNL A   1      45.240 -20.378 -42.962  0.00  0.00    -0.167 F 
ENDBRANCH  18  23
ENDBRANCH  17  18
ENDBRANCH  16  17
ENDBRANCH  12  16
TORSDOF 5
ENDMDL
MODEL 17
REMARK VINA RESULT:    -6.107     17.871     20.822
REMARK INTER + INTRA:          -8.613
REMARK INTER:                  -7.963
REMARK INTRA:                  -0.650
REMARK UNBOUND:                -0.899
REMARK  Name = cpd69.pdb
REMARK  6 active torsions:
REMARK  status: ('A' for Active; 'I' for Inactive)
REMARK    1  A    between atoms: C_1  and  C_2
REMARK    2  A    between atoms: C_11  and  N_12
REMARK    3  A    between atoms: C_13  and  C_14
REMARK    4  A    between atoms: C_14  and  S_15
REMARK    5  A    between atoms: S_15  and  C_16
REMARK    6  A    between atoms: C_16  and  C_17
REMARK                            x       y       z     vdW  Elec       q    Type
REMARK                         _______ _______ _______ _____ _____    ______ ____
ROOT
ATOM      1  C   UNL A   1      41.349 -22.099 -40.313  0.00  0.00    -0.022 C 
ATOM      2  C   UNL A   1      41.417 -21.929 -38.820  0.00  0.00    +0.045 A 
ATOM      3  N   UNL A   1      40.436 -22.563 -38.134  0.00  0.00    -0.251 NA
ATOM      4  C   UNL A   1      40.393 -22.461 -36.801  0.00  0.00    +0.076 A 
ATOM      5  C   UNL A   1      39.352 -23.100 -36.136  0.00  0.00    -0.035 A 
ATOM      6  C   UNL A   1      39.221 -23.057 -34.746  0.00  0.00    -0.057 A 
ATOM      7  C   UNL A   1      40.157 -22.361 -34.000  0.00  0.00    -0.026 A 
ATOM      8  C   UNL A   1      41.205 -21.719 -34.654  0.00  0.00    +0.134 A 
ATOM      9  F   UNL A   1      42.108 -21.077 -33.894  0.00  0.00    -0.205 F 
ATOM     10  C   UNL A   1      41.350 -21.744 -36.061  0.00  0.00    +0.056 A 
ATOM     11  C   UNL A   1      42.402 -21.118 -36.786  0.00  0.00    +0.042 A 
ATOM     12  C   UNL A   1      42.403 -21.155 -38.197  0.00  0.00    +0.005 A 
ENDROOT
BRANCH  11  13
ATOM     13  N   UNL A   1      43.355 -20.306 -36.115  0.00  0.00    -0.357 N 
ATOM     14  H   UNL A   1      43.818 -19.586 -36.602  0.00  0.00    +0.000 HD
ATOM     15  H   UNL A   1      43.553 -20.464 -35.164  0.00  0.00    +0.000 HD
ENDBRANCH  11  13
BRANCH  12  16
ATOM     16  C   UNL A   1      43.420 -20.379 -39.002  0.00  0.00    +0.025 C 
BRANCH  16  17
ATOM     17  S   UNL A   1      44.902 -21.381 -39.357  0.00  0.00    -0.113 S 
BRANCH  17  18
ATOM     18  C   UNL A   1      45.642 -20.436 -40.796  0.00  0.00    +0.210 C 
ATOM     19  C   UNL A   1      46.364 -21.402 -41.747  0.00  0.00    -0.004 C 
ATOM     20  C   UNL A   1      45.266 -21.874 -42.669  0.00  0.00    -0.026 C 
ATOM     21  C   UNL A   1      44.431 -20.624 -42.813  0.00  0.00    +0.050 C 
ATOM     22  O   UNL A   1      44.520 -19.919 -41.569  0.00  0.00    -0.354 OA
BRANCH  18  23
ATOM     23  C   UNL A   1      46.582 -19.273 -40.381  0.00  0.00    +0.428 C 
ATOM     24  F   UNL A   1      47.516 -18.996 -41.318  0.00  0.00    -0.167 F 
ATOM     25  F   UNL A   1      47.235 -19.550 -39.226  0.00  0.00    -0.167 F 
ATOM     26  F   UNL A   1      45.883 -18.130 -40.160  0.00  0.00    -0.167 F 
ENDBRANCH  18  23
ENDBRANCH  17  18
ENDBRANCH  16  17
ENDBRANCH  12  16
TORSDOF 5
ENDMDL
MODEL 18
REMARK VINA RESULT:    -6.067     25.334     27.212
REMARK INTER + INTRA:          -8.562
REMARK INTER:                  -7.700
REMARK INTRA:                  -0.862
REMARK UNBOUND:                -0.899
REMARK  Name = cpd69.pdb
REMARK  6 active torsions:
REMARK  status: ('A' for Active; 'I' for Inactive)
REMARK    1  A    between atoms: C_1  and  C_2
REMARK    2  A    between atoms: C_11  and  N_12
REMARK    3  A    between atoms: C_13  and  C_14
REMARK    4  A    between atoms: C_14  and  S_15
REMARK    5  A    between atoms: S_15  and  C_16
REMARK    6  A    between atoms: C_16  and  C_17
REMARK                            x       y       z     vdW  Elec       q    Type
REMARK                         _______ _______ _______ _____ _____    ______ ____
ROOT
ATOM      1  C   UNL A   1      47.116 -34.217 -52.687  0.00  0.00    -0.022 C 
ATOM      2  C   UNL A   1      47.136 -33.040 -53.623  0.00  0.00    +0.045 A 
ATOM      3  N   UNL A   1      47.171 -31.832 -53.011  0.00  0.00    -0.251 NA
ATOM      4  C   UNL A   1      47.171 -30.719 -53.752  0.00  0.00    +0.076 A 
ATOM      5  C   UNL A   1      47.177 -29.498 -53.086  0.00  0.00    -0.035 A 
ATOM      6  C   UNL A   1      47.181 -28.279 -53.768  0.00  0.00    -0.057 A 
ATOM      7  C   UNL A   1      47.185 -28.279 -55.152  0.00  0.00    -0.026 A 
ATOM      8  C   UNL A   1      47.183 -29.496 -55.831  0.00  0.00    +0.134 A 
ATOM      9  F   UNL A   1      47.214 -29.455 -57.174  0.00  0.00    -0.205 F 
ATOM     10  C   UNL A   1      47.168 -30.740 -55.157  0.00  0.00    +0.056 A 
ATOM     11  C   UNL A   1      47.176 -32.013 -55.793  0.00  0.00    +0.042 A 
ATOM     12  C   UNL A   1      47.093 -33.187 -55.014  0.00  0.00    +0.005 A 
ENDROOT
BRANCH  11  13
ATOM     13  N   UNL A   1      47.088 -32.113 -57.207  0.00  0.00    -0.357 N 
ATOM     14  H   UNL A   1      47.784 -32.593 -57.710  0.00  0.00    +0.000 HD
ATOM     15  H   UNL A   1      46.330 -31.703 -57.683  0.00  0.00    +0.000 HD
ENDBRANCH  11  13
BRANCH  12  16
ATOM     16  C   UNL A   1      46.949 -34.547 -55.658  0.00  0.00    +0.025 C 
BRANCH  16  17
ATOM     17  S   UNL A   1      45.205 -34.935 -56.026  0.00  0.00    -0.113 S 
BRANCH  17  18
ATOM     18  C   UNL A   1      45.021 -36.602 -55.191  0.00  0.00    +0.210 C 
ATOM     19  C   UNL A   1      44.373 -37.607 -56.155  0.00  0.00    -0.004 C 
ATOM     20  C   UNL A   1      45.547 -38.163 -56.924  0.00  0.00    -0.026 C 
ATOM     21  C   UNL A   1      46.615 -38.209 -55.858  0.00  0.00    +0.050 C 
ATOM     22  O   UNL A   1      46.371 -37.107 -54.977  0.00  0.00    -0.354 OA
BRANCH  18  23
ATOM     23  C   UNL A   1      44.249 -36.561 -53.845  0.00  0.00    +0.428 C 
ATOM     24  F   UNL A   1      44.877 -37.242 -52.861  0.00  0.00    -0.167 F 
ATOM     25  F   UNL A   1      43.004 -37.084 -53.971  0.00  0.00    -0.167 F 
ATOM     26  F   UNL A   1      44.085 -35.286 -53.410  0.00  0.00    -0.167 F 
ENDBRANCH  18  23
ENDBRANCH  17  18
ENDBRANCH  16  17
ENDBRANCH  12  16
TORSDOF 5
ENDMDL
MODEL 19
REMARK VINA RESULT:    -5.948     24.983     27.612
REMARK INTER + INTRA:          -8.411
REMARK INTER:                  -7.235
REMARK INTRA:                  -1.176
REMARK UNBOUND:                -0.899
REMARK  Name = cpd69.pdb
REMARK  6 active torsions:
REMARK  status: ('A' for Active; 'I' for Inactive)
REMARK    1  A    between atoms: C_1  and  C_2
REMARK    2  A    between atoms: C_11  and  N_12
REMARK    3  A    between atoms: C_13  and  C_14
REMARK    4  A    between atoms: C_14  and  S_15
REMARK    5  A    between atoms: S_15  and  C_16
REMARK    6  A    between atoms: C_16  and  C_17
REMARK                            x       y       z     vdW  Elec       q    Type
REMARK                         _______ _______ _______ _____ _____    ______ ____
ROOT
ATOM      1  C   UNL A   1      45.903 -34.418 -58.370  0.00  0.00    -0.022 C 
ATOM      2  C   UNL A   1      45.715 -34.837 -56.937  0.00  0.00    +0.045 A 
ATOM      3  N   UNL A   1      45.537 -36.168 -56.757  0.00  0.00    -0.251 NA
ATOM      4  C   UNL A   1      45.341 -36.644 -55.522  0.00  0.00    +0.076 A 
ATOM      5  C   UNL A   1      45.131 -38.012 -55.382  0.00  0.00    -0.035 A 
ATOM      6  C   UNL A   1      44.921 -38.606 -54.136  0.00  0.00    -0.057 A 
ATOM      7  C   UNL A   1      44.926 -37.816 -52.999  0.00  0.00    -0.026 A 
ATOM      8  C   UNL A   1      45.138 -36.445 -53.127  0.00  0.00    +0.134 A 
ATOM      9  F   UNL A   1      45.161 -35.716 -51.999  0.00  0.00    -0.205 F 
ATOM     10  C   UNL A   1      45.343 -35.823 -54.381  0.00  0.00    +0.056 A 
ATOM     11  C   UNL A   1      45.574 -34.433 -54.575  0.00  0.00    +0.042 A 
ATOM     12  C   UNL A   1      45.699 -33.917 -55.883  0.00  0.00    +0.005 A 
ENDROOT
BRANCH  11  13
ATOM     13  N   UNL A   1      45.506 -33.531 -53.480  0.00  0.00    -0.357 N 
ATOM     14  H   UNL A   1      45.802 -33.819 -52.586  0.00  0.00    +0.000 HD
ATOM     15  H   UNL A   1      45.162 -32.619 -53.615  0.00  0.00    +0.000 HD
ENDBRANCH  11  13
BRANCH  12  16
ATOM     16  C   UNL A   1      45.797 -32.430 -56.134  0.00  0.00    +0.025 C 
BRANCH  16  17
ATOM     17  S   UNL A   1      47.486 -31.942 -56.621  0.00  0.00    -0.113 S 
BRANCH  17  18
ATOM     18  C   UNL A   1      48.305 -31.755 -54.947  0.00  0.00    +0.210 C 
ATOM     19  C   UNL A   1      49.281 -30.568 -54.964  0.00  0.00    -0.004 C 
ATOM     20  C   UNL A   1      48.403 -29.387 -54.626  0.00  0.00    -0.026 C 
ATOM     21  C   UNL A   1      47.445 -29.995 -53.630  0.00  0.00    +0.050 C 
ATOM     22  O   UNL A   1      47.256 -31.361 -54.016  0.00  0.00    -0.354 OA
BRANCH  18  23
ATOM     23  C   UNL A   1      49.016 -33.037 -54.435  0.00  0.00    +0.428 C 
ATOM     24  F   UNL A   1      48.907 -34.074 -55.295  0.00  0.00    -0.167 F 
ATOM     25  F   UNL A   1      48.511 -33.442 -53.243  0.00  0.00    -0.167 F 
ATOM     26  F   UNL A   1      50.341 -32.819 -54.234  0.00  0.00    -0.167 F 
ENDBRANCH  18  23
ENDBRANCH  17  18
ENDBRANCH  16  17
ENDBRANCH  12  16
TORSDOF 5
ENDMDL
MODEL 20
REMARK VINA RESULT:    -5.901     17.786     19.622
REMARK INTER + INTRA:          -8.352
REMARK INTER:                  -7.405
REMARK INTRA:                  -0.947
REMARK UNBOUND:                -0.899
REMARK  Name = cpd69.pdb
REMARK  6 active torsions:
REMARK  status: ('A' for Active; 'I' for Inactive)
REMARK    1  A    between atoms: C_1  and  C_2
REMARK    2  A    between atoms: C_11  and  N_12
REMARK    3  A    between atoms: C_13  and  C_14
REMARK    4  A    between atoms: C_14  and  S_15
REMARK    5  A    between atoms: S_15  and  C_16
REMARK    6  A    between atoms: C_16  and  C_17
REMARK                            x       y       z     vdW  Elec       q    Type
REMARK                         _______ _______ _______ _____ _____    ______ ____
ROOT
ATOM      1  C   UNL A   1      42.502 -16.118 -33.001  0.00  0.00    -0.022 C 
ATOM      2  C   UNL A   1      43.473 -17.125 -33.553  0.00  0.00    +0.045 A 
ATOM      3  N   UNL A   1      44.511 -16.590 -34.241  0.00  0.00    -0.251 NA
ATOM      4  C   UNL A   1      45.423 -17.400 -34.791  0.00  0.00    +0.076 A 
ATOM      5  C   UNL A   1      46.455 -16.814 -35.515  0.00  0.00    -0.035 A 
ATOM      6  C   UNL A   1      47.458 -17.571 -36.125  0.00  0.00    -0.057 A 
ATOM      7  C   UNL A   1      47.432 -18.950 -36.004  0.00  0.00    -0.026 A 
ATOM      8  C   UNL A   1      46.404 -19.548 -35.279  0.00  0.00    +0.134 A 
ATOM      9  F   UNL A   1      46.428 -20.887 -35.161  0.00  0.00    -0.205 F 
ATOM     10  C   UNL A   1      45.375 -18.799 -34.663  0.00  0.00    +0.056 A 
ATOM     11  C   UNL A   1      44.307 -19.350 -33.902  0.00  0.00    +0.042 A 
ATOM     12  C   UNL A   1      43.299 -18.504 -33.390  0.00  0.00    +0.005 A 
ENDROOT
BRANCH  11  13
ATOM     13  N   UNL A   1      44.145 -20.757 -33.800  0.00  0.00    -0.357 N 
ATOM     14  H   UNL A   1      44.848 -21.304 -33.379  0.00  0.00    +0.000 HD
ATOM     15  H   UNL A   1      43.332 -21.186 -34.150  0.00  0.00    +0.000 HD
ENDBRANCH  11  13
BRANCH  12  16
ATOM     16  C   UNL A   1      42.074 -19.067 -32.706  0.00  0.00    +0.025 C 
BRANCH  16  17
ATOM     17  S   UNL A   1      40.609 -18.998 -33.790  0.00  0.00    -0.113 S 
BRANCH  17  18
ATOM     18  C   UNL A   1      40.246 -20.821 -34.023  0.00  0.00    +0.210 C 
ATOM     19  C   UNL A   1      39.174 -21.013 -35.107  0.00  0.00    -0.004 C 
ATOM     20  C   UNL A   1      39.972 -21.045 -36.388  0.00  0.00    -0.026 C 
ATOM     21  C   UNL A   1      41.221 -21.772 -35.952  0.00  0.00    +0.050 C 
ATOM     22  O   UNL A   1      41.453 -21.413 -34.585  0.00  0.00    -0.354 OA
BRANCH  18  23
ATOM     23  C   UNL A   1      39.845 -21.566 -32.722  0.00  0.00    +0.428 C 
ATOM     24  F   UNL A   1      39.297 -20.745 -31.797  0.00  0.00    -0.167 F 
ATOM     25  F   UNL A   1      40.912 -22.172 -32.147  0.00  0.00    -0.167 F 
ATOM     26  F   UNL A   1      38.940 -22.546 -32.975  0.00  0.00    -0.167 F 
ENDBRANCH  18  23
ENDBRANCH  17  18
ENDBRANCH  16  17
ENDBRANCH  12  16
TORSDOF 5
ENDMDL
