MODEL 1
REMARK VINA RESULT:    -8.664      0.000      0.000
REMARK INTER + INTRA:         -16.391
REMARK INTER:                 -14.236
REMARK INTRA:                  -2.155
REMARK UNBOUND:                -2.155
REMARK  Name = cpd157.pdb
REMARK  11 active torsions:
REMARK  status: ('A' for Active; 'I' for Inactive)
REMARK    1  A    between atoms: C_2  and  C_3
REMARK    2  A    between atoms: C_3  and  S_4
REMARK    3  A    between atoms: S_4  and  C_5
REMARK    4  A    between atoms: C_5  and  C_6
REMARK    5  A    between atoms: C_6  and  N_7
REMARK    6  A    between atoms: C_6  and  C_28
REMARK    7  A    between atoms: C_8  and  C_10
REMARK    8  A    between atoms: C_10  and  C_11
REMARK    9  A    between atoms: C_11  and  C_12
REMARK   10  A    between atoms: C_12  and  N_13
REMARK   11  A    between atoms: N_13  and  C_14
REMARK                            x       y       z     vdW  Elec       q    Type
REMARK                         _______ _______ _______ _____ _____    ______ ____
ROOT
ATOM      1  N   UNL A   1      32.319 -33.968 -30.461  0.00  0.00    -0.303 N 
ATOM      2  C   UNL A   1      32.901 -33.483 -29.316  0.00  0.00    +0.214 C 
ATOM      3  O   UNL A   1      32.410 -33.629 -28.202  0.00  0.00    -0.276 OA
ATOM      4  H   UNL A   1      32.710 -33.739 -31.334  0.00  0.00    +0.000 HD
ENDROOT
BRANCH   1   5
ATOM      5  C   UNL A   1      31.132 -34.817 -30.408  0.00  0.00    +0.109 C 
BRANCH   5   6
ATOM      6  C   UNL A   1      31.293 -35.915 -31.478  0.00  0.00    +0.240 C 
ATOM      7  O   UNL A   1      30.499 -35.991 -32.414  0.00  0.00    -0.273 OA
ATOM      8  N   UNL A   1      32.331 -36.779 -31.202  0.00  0.00    -0.263 N 
ATOM      9  C   UNL A   1      32.691 -37.898 -31.909  0.00  0.00    +0.165 A 
ATOM     10  N   UNL A   1      33.738 -38.598 -31.546  0.00  0.00    -0.225 NA
ATOM     11  C   UNL A   1      33.891 -39.680 -32.400  0.00  0.00    +0.080 A 
ATOM     12  C   UNL A   1      34.906 -40.654 -32.328  0.00  0.00    -0.035 A 
ATOM     13  C   UNL A   1      34.935 -41.697 -33.260  0.00  0.00    -0.060 A 
ATOM     14  C   UNL A   1      33.969 -41.778 -34.258  0.00  0.00    -0.061 A 
ATOM     15  C   UNL A   1      32.952 -40.823 -34.351  0.00  0.00    -0.046 A 
ATOM     16  C   UNL A   1      32.932 -39.781 -33.410  0.00  0.00    +0.041 A 
ATOM     17  S   UNL A   1      31.828 -38.471 -33.254  0.00  0.00    -0.052 S 
ATOM     18  H   UNL A   1      32.874 -36.570 -30.408  0.00  0.00    +0.000 HD
ENDBRANCH   5   6
BRANCH   5  19
ATOM     19  C   UNL A   1      29.842 -34.038 -30.707  0.00  0.00    +0.021 C 
BRANCH  19  20
ATOM     20  S   UNL A   1      30.052 -32.537 -31.737  0.00  0.00    -0.154 S 
BRANCH  20  21
ATOM     21  C   UNL A   1      29.339 -31.287 -30.628  0.00  0.00    +0.012 C 
BRANCH  21  23
ATOM     22  C   UNL A   1      30.611 -30.578 -28.580  0.00  0.00    -0.102 C 
ATOM     23  C   UNL A   1      29.895 -31.490 -29.252  0.00  0.00    -0.081 C 
ENDBRANCH  21  23
ENDBRANCH  20  21
ENDBRANCH  19  20
ENDBRANCH   5  19
ENDBRANCH   1   5
BRANCH   2  24
ATOM     24  C   UNL A   1      34.210 -32.755 -29.533  0.00  0.00    +0.025 C 
BRANCH  24  25
ATOM     25  C   UNL A   1      34.769 -32.992 -30.933  0.00  0.00    -0.029 C 
BRANCH  25  26
ATOM     26  C   UNL A   1      36.213 -33.487 -30.875  0.00  0.00    +0.010 C 
BRANCH  26  27
ATOM     27  N   UNL A   1      36.276 -34.830 -31.469  0.00  0.00    -0.343 N 
ATOM     28  H   UNL A   1      35.817 -35.089 -32.300  0.00  0.00    +0.000 HD
BRANCH  27  29
ATOM     29  C   UNL A   1      37.087 -35.709 -30.689  0.00  0.00    +0.041 A 
ATOM     30  C   UNL A   1      38.378 -36.027 -31.159  0.00  0.00    -0.005 A 
ATOM     31  C   UNL A   1      39.141 -36.917 -30.402  0.00  0.00    +0.047 A 
ATOM     32  N   UNL A   1      38.682 -37.515 -29.277  0.00  0.00    -0.251 NA
ATOM     33  C   UNL A   1      37.449 -37.226 -28.842  0.00  0.00    +0.073 A 
ATOM     34  C   UNL A   1      37.010 -37.849 -27.681  0.00  0.00    -0.036 A 
ATOM     35  C   UNL A   1      35.740 -37.616 -27.149  0.00  0.00    -0.060 A 
ATOM     36  C   UNL A   1      34.881 -36.738 -27.791  0.00  0.00    -0.061 A 
ATOM     37  C   UNL A   1      35.300 -36.100 -28.958  0.00  0.00    -0.051 A 
ATOM     38  C   UNL A   1      36.590 -36.328 -29.507  0.00  0.00    +0.021 A 
ATOM     39  C   UNL A   1      40.530 -37.326 -30.822  0.00  0.00    -0.010 C 
ATOM     40  C   UNL A   1      41.185 -36.337 -31.779  0.00  0.00    -0.047 C 
ATOM     41  C   UNL A   1      40.226 -36.004 -32.913  0.00  0.00    -0.049 C 
ATOM     42  C   UNL A   1      38.964 -35.336 -32.367  0.00  0.00    -0.024 C 
ENDBRANCH  27  29
ENDBRANCH  26  27
ENDBRANCH  25  26
ENDBRANCH  24  25
ENDBRANCH   2  24
TORSDOF 11
ENDMDL
MODEL 2
REMARK VINA RESULT:    -7.872      1.003      3.206
REMARK INTER + INTRA:         -15.089
REMARK INTER:                 -13.529
REMARK INTRA:                  -1.560
REMARK UNBOUND:                -2.155
REMARK  Name = cpd157.pdb
REMARK  11 active torsions:
REMARK  status: ('A' for Active; 'I' for Inactive)
REMARK    1  A    between atoms: C_2  and  C_3
REMARK    2  A    between atoms: C_3  and  S_4
REMARK    3  A    between atoms: S_4  and  C_5
REMARK    4  A    between atoms: C_5  and  C_6
REMARK    5  A    between atoms: C_6  and  N_7
REMARK    6  A    between atoms: C_6  and  C_28
REMARK    7  A    between atoms: C_8  and  C_10
REMARK    8  A    between atoms: C_10  and  C_11
REMARK    9  A    between atoms: C_11  and  C_12
REMARK   10  A    between atoms: C_12  and  N_13
REMARK   11  A    between atoms: N_13  and  C_14
REMARK                            x       y       z     vdW  Elec       q    Type
REMARK                         _______ _______ _______ _____ _____    ______ ____
ROOT
ATOM      1  N   UNL A   1      31.965 -33.125 -30.582  0.00  0.00    -0.303 N 
ATOM      2  C   UNL A   1      33.030 -33.273 -29.730  0.00  0.00    +0.214 C 
ATOM      3  O   UNL A   1      33.021 -34.040 -28.773  0.00  0.00    -0.276 OA
ATOM      4  H   UNL A   1      31.995 -32.427 -31.275  0.00  0.00    +0.000 HD
ENDROOT
BRANCH   1   5
ATOM      5  C   UNL A   1      30.787 -33.983 -30.482  0.00  0.00    +0.109 C 
BRANCH   5   6
ATOM      6  C   UNL A   1      30.974 -35.154 -31.467  0.00  0.00    +0.240 C 
ATOM      7  O   UNL A   1      30.175 -35.326 -32.386  0.00  0.00    -0.273 OA
ATOM      8  N   UNL A   1      32.042 -35.961 -31.138  0.00  0.00    -0.263 N 
ATOM      9  C   UNL A   1      32.432 -37.119 -31.762  0.00  0.00    +0.165 A 
ATOM     10  N   UNL A   1      33.503 -37.756 -31.359  0.00  0.00    -0.225 NA
ATOM     11  C   UNL A   1      33.684 -38.894 -32.131  0.00  0.00    +0.080 A 
ATOM     12  C   UNL A   1      34.730 -39.828 -31.996  0.00  0.00    -0.035 A 
ATOM     13  C   UNL A   1      34.785 -40.938 -32.848  0.00  0.00    -0.060 A 
ATOM     14  C   UNL A   1      33.814 -41.124 -33.826  0.00  0.00    -0.061 A 
ATOM     15  C   UNL A   1      32.766 -40.211 -33.980  0.00  0.00    -0.046 A 
ATOM     16  C   UNL A   1      32.721 -39.102 -33.119  0.00  0.00    +0.041 A 
ATOM     17  S   UNL A   1      31.576 -37.819 -33.051  0.00  0.00    -0.052 S 
ATOM     18  H   UNL A   1      32.585 -35.676 -30.369  0.00  0.00    +0.000 HD
ENDBRANCH   5   6
BRANCH   5  19
ATOM     19  C   UNL A   1      29.492 -33.245 -30.851  0.00  0.00    +0.021 C 
BRANCH  19  20
ATOM     20  S   UNL A   1      29.713 -31.718 -31.839  0.00  0.00    -0.154 S 
BRANCH  20  21
ATOM     21  C   UNL A   1      28.326 -31.887 -33.001  0.00  0.00    +0.012 C 
BRANCH  21  23
ATOM     22  C   UNL A   1      26.763 -30.512 -31.592  0.00  0.00    -0.102 C 
ATOM     23  C   UNL A   1      27.361 -30.765 -32.764  0.00  0.00    -0.081 C 
ENDBRANCH  21  23
ENDBRANCH  20  21
ENDBRANCH  19  20
ENDBRANCH   5  19
ENDBRANCH   1   5
BRANCH   2  24
ATOM     24  C   UNL A   1      34.232 -32.416 -30.067  0.00  0.00    +0.025 C 
BRANCH  24  25
ATOM     25  C   UNL A   1      34.984 -32.944 -31.285  0.00  0.00    -0.029 C 
BRANCH  25  26
ATOM     26  C   UNL A   1      36.284 -33.633 -30.876  0.00  0.00    +0.010 C 
BRANCH  26  27
ATOM     27  N   UNL A   1      36.406 -34.894 -31.620  0.00  0.00    -0.343 N 
ATOM     28  H   UNL A   1      35.937 -35.085 -32.464  0.00  0.00    +0.000 HD
BRANCH  27  29
ATOM     29  C   UNL A   1      37.289 -35.805 -30.966  0.00  0.00    +0.041 A 
ATOM     30  C   UNL A   1      36.868 -36.404 -29.762  0.00  0.00    -0.005 A 
ATOM     31  C   UNL A   1      37.759 -37.264 -29.120  0.00  0.00    +0.047 A 
ATOM     32  N   UNL A   1      39.011 -37.507 -29.574  0.00  0.00    -0.251 NA
ATOM     33  C   UNL A   1      39.417 -36.923 -30.710  0.00  0.00    +0.073 A 
ATOM     34  C   UNL A   1      40.704 -37.199 -31.154  0.00  0.00    -0.036 A 
ATOM     35  C   UNL A   1      41.220 -36.637 -32.323  0.00  0.00    -0.060 A 
ATOM     36  C   UNL A   1      40.434 -35.776 -33.072  0.00  0.00    -0.061 A 
ATOM     37  C   UNL A   1      39.138 -35.485 -32.647  0.00  0.00    -0.051 A 
ATOM     38  C   UNL A   1      38.602 -36.052 -31.460  0.00  0.00    +0.021 A 
ATOM     39  C   UNL A   1      37.406 -37.948 -27.824  0.00  0.00    -0.010 C 
ATOM     40  C   UNL A   1      35.904 -38.040 -27.581  0.00  0.00    -0.047 C 
ATOM     41  C   UNL A   1      35.261 -36.678 -27.803  0.00  0.00    -0.049 C 
ATOM     42  C   UNL A   1      35.458 -36.223 -29.249  0.00  0.00    -0.024 C 
ENDBRANCH  27  29
ENDBRANCH  26  27
ENDBRANCH  25  26
ENDBRANCH  24  25
ENDBRANCH   2  24
TORSDOF 11
ENDMDL
MODEL 3
REMARK VINA RESULT:    -7.730     17.388     20.610
REMARK INTER + INTRA:         -14.856
REMARK INTER:                 -12.695
REMARK INTRA:                  -2.160
REMARK UNBOUND:                -2.155
REMARK  Name = cpd157.pdb
REMARK  11 active torsions:
REMARK  status: ('A' for Active; 'I' for Inactive)
REMARK    1  A    between atoms: C_2  and  C_3
REMARK    2  A    between atoms: C_3  and  S_4
REMARK    3  A    between atoms: S_4  and  C_5
REMARK    4  A    between atoms: C_5  and  C_6
REMARK    5  A    between atoms: C_6  and  N_7
REMARK    6  A    between atoms: C_6  and  C_28
REMARK    7  A    between atoms: C_8  and  C_10
REMARK    8  A    between atoms: C_10  and  C_11
REMARK    9  A    between atoms: C_11  and  C_12
REMARK   10  A    between atoms: C_12  and  N_13
REMARK   11  A    between atoms: N_13  and  C_14
REMARK                            x       y       z     vdW  Elec       q    Type
REMARK                         _______ _______ _______ _____ _____    ______ ____
ROOT
ATOM      1  N   UNL A   1      40.743 -22.213 -36.476  0.00  0.00    -0.303 N 
ATOM      2  C   UNL A   1      40.634 -21.456 -37.615  0.00  0.00    +0.214 C 
ATOM      3  O   UNL A   1      40.172 -20.320 -37.623  0.00  0.00    -0.276 OA
ATOM      4  H   UNL A   1      41.033 -23.150 -36.545  0.00  0.00    +0.000 HD
ENDROOT
BRANCH   1   5
ATOM      5  C   UNL A   1      40.437 -21.654 -35.161  0.00  0.00    +0.109 C 
BRANCH   5   6
ATOM      6  C   UNL A   1      41.691 -20.908 -34.664  0.00  0.00    +0.240 C 
ATOM      7  O   UNL A   1      41.709 -20.399 -33.545  0.00  0.00    -0.273 OA
ATOM      8  N   UNL A   1      42.681 -20.836 -35.621  0.00  0.00    -0.263 N 
ATOM      9  C   UNL A   1      43.883 -20.183 -35.524  0.00  0.00    +0.165 A 
ATOM     10  N   UNL A   1      44.747 -20.244 -36.508  0.00  0.00    -0.225 NA
ATOM     11  C   UNL A   1      45.872 -19.499 -36.185  0.00  0.00    +0.080 A 
ATOM     12  C   UNL A   1      47.014 -19.331 -36.992  0.00  0.00    -0.035 A 
ATOM     13  C   UNL A   1      48.079 -18.546 -36.536  0.00  0.00    -0.060 A 
ATOM     14  C   UNL A   1      48.017 -17.931 -35.289  0.00  0.00    -0.061 A 
ATOM     15  C   UNL A   1      46.895 -18.083 -34.469  0.00  0.00    -0.046 A 
ATOM     16  C   UNL A   1      45.833 -18.872 -34.938  0.00  0.00    +0.041 A 
ATOM     17  S   UNL A   1      44.334 -19.248 -34.180  0.00  0.00    -0.052 S 
ATOM     18  H   UNL A   1      42.506 -21.305 -36.468  0.00  0.00    +0.000 HD
ENDBRANCH   5   6
BRANCH   5  19
ATOM     19  C   UNL A   1      40.083 -22.739 -34.133  0.00  0.00    +0.021 C 
BRANCH  19  20
ATOM     20  S   UNL A   1      38.352 -22.714 -33.531  0.00  0.00    -0.154 S 
BRANCH  20  21
ATOM     21  C   UNL A   1      38.093 -20.922 -33.380  0.00  0.00    +0.012 C 
BRANCH  21  23
ATOM     22  C   UNL A   1      36.159 -19.465 -32.706  0.00  0.00    -0.102 C 
ATOM     23  C   UNL A   1      36.673 -20.673 -32.973  0.00  0.00    -0.081 C 
ENDBRANCH  21  23
ENDBRANCH  20  21
ENDBRANCH  19  20
ENDBRANCH   5  19
ENDBRANCH   1   5
BRANCH   2  24
ATOM     24  C   UNL A   1      41.138 -22.131 -38.872  0.00  0.00    +0.025 C 
BRANCH  24  25
ATOM     25  C   UNL A   1      41.508 -21.120 -39.954  0.00  0.00    -0.029 C 
BRANCH  25  26
ATOM     26  C   UNL A   1      42.916 -21.375 -40.490  0.00  0.00    +0.010 C 
BRANCH  26  27
ATOM     27  N   UNL A   1      43.890 -20.992 -39.460  0.00  0.00    -0.343 N 
ATOM     28  H   UNL A   1      43.762 -21.138 -38.495  0.00  0.00    +0.000 HD
BRANCH  27  29
ATOM     29  C   UNL A   1      45.046 -20.381 -40.034  0.00  0.00    +0.041 A 
ATOM     30  C   UNL A   1      45.075 -18.977 -40.154  0.00  0.00    -0.005 A 
ATOM     31  C   UNL A   1      46.197 -18.400 -40.750  0.00  0.00    +0.047 A 
ATOM     32  N   UNL A   1      47.223 -19.127 -41.253  0.00  0.00    -0.251 NA
ATOM     33  C   UNL A   1      47.186 -20.462 -41.154  0.00  0.00    +0.073 A 
ATOM     34  C   UNL A   1      48.257 -21.178 -41.673  0.00  0.00    -0.036 A 
ATOM     35  C   UNL A   1      48.310 -22.573 -41.621  0.00  0.00    -0.060 A 
ATOM     36  C   UNL A   1      47.268 -23.275 -41.039  0.00  0.00    -0.061 A 
ATOM     37  C   UNL A   1      46.182 -22.578 -40.511  0.00  0.00    -0.051 A 
ATOM     38  C   UNL A   1      46.118 -21.160 -40.556  0.00  0.00    +0.021 A 
ATOM     39  C   UNL A   1      46.322 -16.909 -40.930  0.00  0.00    -0.010 C 
ATOM     40  C   UNL A   1      45.431 -16.112 -39.985  0.00  0.00    -0.047 C 
ATOM     41  C   UNL A   1      44.013 -16.664 -40.023  0.00  0.00    -0.049 C 
ATOM     42  C   UNL A   1      43.991 -18.116 -39.547  0.00  0.00    -0.024 C 
ENDBRANCH  27  29
ENDBRANCH  26  27
ENDBRANCH  25  26
ENDBRANCH  24  25
ENDBRANCH   2  24
TORSDOF 11
ENDMDL
MODEL 4
REMARK VINA RESULT:    -7.678      2.934      5.196
REMARK INTER + INTRA:         -14.771
REMARK INTER:                 -13.205
REMARK INTRA:                  -1.567
REMARK UNBOUND:                -2.155
REMARK  Name = cpd157.pdb
REMARK  11 active torsions:
REMARK  status: ('A' for Active; 'I' for Inactive)
REMARK    1  A    between atoms: C_2  and  C_3
REMARK    2  A    between atoms: C_3  and  S_4
REMARK    3  A    between atoms: S_4  and  C_5
REMARK    4  A    between atoms: C_5  and  C_6
REMARK    5  A    between atoms: C_6  and  N_7
REMARK    6  A    between atoms: C_6  and  C_28
REMARK    7  A    between atoms: C_8  and  C_10
REMARK    8  A    between atoms: C_10  and  C_11
REMARK    9  A    between atoms: C_11  and  C_12
REMARK   10  A    between atoms: C_12  and  N_13
REMARK   11  A    between atoms: N_13  and  C_14
REMARK                            x       y       z     vdW  Elec       q    Type
REMARK                         _______ _______ _______ _____ _____    ______ ____
ROOT
ATOM      1  N   UNL A   1      32.638 -33.972 -29.955  0.00  0.00    -0.303 N 
ATOM      2  C   UNL A   1      32.749 -32.621 -30.167  0.00  0.00    +0.214 C 
ATOM      3  O   UNL A   1      31.810 -31.843 -30.037  0.00  0.00    -0.276 OA
ATOM      4  H   UNL A   1      33.399 -34.558 -30.165  0.00  0.00    +0.000 HD
ENDROOT
BRANCH   1   5
ATOM      5  C   UNL A   1      31.410 -34.559 -29.422  0.00  0.00    +0.109 C 
BRANCH   5   6
ATOM      6  C   UNL A   1      31.645 -34.864 -27.930  0.00  0.00    +0.240 C 
ATOM      7  O   UNL A   1      31.989 -33.969 -27.160  0.00  0.00    -0.273 OA
ATOM      8  N   UNL A   1      31.499 -36.201 -27.630  0.00  0.00    -0.263 N 
ATOM      9  C   UNL A   1      31.709 -36.809 -26.418  0.00  0.00    +0.165 A 
ATOM     10  N   UNL A   1      31.483 -38.092 -26.277  0.00  0.00    -0.225 NA
ATOM     11  C   UNL A   1      31.778 -38.474 -24.976  0.00  0.00    +0.080 A 
ATOM     12  C   UNL A   1      31.656 -39.775 -24.448  0.00  0.00    -0.035 A 
ATOM     13  C   UNL A   1      31.993 -40.016 -23.111  0.00  0.00    -0.060 A 
ATOM     14  C   UNL A   1      32.448 -38.980 -22.302  0.00  0.00    -0.061 A 
ATOM     15  C   UNL A   1      32.577 -37.681 -22.802  0.00  0.00    -0.046 A 
ATOM     16  C   UNL A   1      32.236 -37.451 -24.145  0.00  0.00    +0.041 A 
ATOM     17  S   UNL A   1      32.286 -35.988 -25.048  0.00  0.00    -0.052 S 
ATOM     18  H   UNL A   1      31.213 -36.786 -28.368  0.00  0.00    +0.000 HD
ENDBRANCH   5   6
BRANCH   5  19
ATOM     19  C   UNL A   1      31.034 -35.870 -30.129  0.00  0.00    +0.021 C 
BRANCH  19  20
ATOM     20  S   UNL A   1      32.138 -36.365 -31.504  0.00  0.00    -0.154 S 
BRANCH  20  21
ATOM     21  C   UNL A   1      31.021 -37.459 -32.431  0.00  0.00    +0.012 C 
BRANCH  21  23
ATOM     22  C   UNL A   1      30.211 -36.919 -34.748  0.00  0.00    -0.102 C 
ATOM     23  C   UNL A   1      31.205 -37.205 -33.896  0.00  0.00    -0.081 C 
ENDBRANCH  21  23
ENDBRANCH  20  21
ENDBRANCH  19  20
ENDBRANCH   5  19
ENDBRANCH   1   5
BRANCH   2  24
ATOM     24  C   UNL A   1      34.133 -32.158 -30.569  0.00  0.00    +0.025 C 
BRANCH  24  25
ATOM     25  C   UNL A   1      34.802 -33.131 -31.536  0.00  0.00    -0.029 C 
BRANCH  25  26
ATOM     26  C   UNL A   1      36.117 -33.659 -30.966  0.00  0.00    +0.010 C 
BRANCH  26  27
ATOM     27  N   UNL A   1      36.457 -34.914 -31.649  0.00  0.00    -0.343 N 
ATOM     28  H   UNL A   1      36.161 -35.147 -32.559  0.00  0.00    +0.000 HD
BRANCH  27  29
ATOM     29  C   UNL A   1      37.271 -35.753 -30.829  0.00  0.00    +0.041 A 
ATOM     30  C   UNL A   1      38.573 -36.066 -31.270  0.00  0.00    -0.005 A 
ATOM     31  C   UNL A   1      39.340 -36.916 -30.473  0.00  0.00    +0.047 A 
ATOM     32  N   UNL A   1      38.875 -37.482 -29.334  0.00  0.00    -0.251 NA
ATOM     33  C   UNL A   1      37.631 -37.198 -28.926  0.00  0.00    +0.073 A 
ATOM     34  C   UNL A   1      37.187 -37.789 -27.750  0.00  0.00    -0.036 A 
ATOM     35  C   UNL A   1      35.906 -37.558 -27.243  0.00  0.00    -0.060 A 
ATOM     36  C   UNL A   1      35.042 -36.717 -27.926  0.00  0.00    -0.061 A 
ATOM     37  C   UNL A   1      35.467 -36.112 -29.109  0.00  0.00    -0.051 A 
ATOM     38  C   UNL A   1      36.768 -36.338 -29.632  0.00  0.00    +0.021 A 
ATOM     39  C   UNL A   1      40.741 -37.316 -30.860  0.00  0.00    -0.010 C 
ATOM     40  C   UNL A   1      41.393 -36.351 -31.842  0.00  0.00    -0.047 C 
ATOM     41  C   UNL A   1      40.445 -36.073 -33.000  0.00  0.00    -0.049 C 
ATOM     42  C   UNL A   1      39.165 -35.407 -32.494  0.00  0.00    -0.024 C 
ENDBRANCH  27  29
ENDBRANCH  26  27
ENDBRANCH  25  26
ENDBRANCH  24  25
ENDBRANCH   2  24
TORSDOF 11
ENDMDL
MODEL 5
REMARK VINA RESULT:    -7.662      2.743      6.086
REMARK INTER + INTRA:         -14.745
REMARK INTER:                 -12.590
REMARK INTRA:                  -2.155
REMARK UNBOUND:                -2.155
REMARK  Name = cpd157.pdb
REMARK  11 active torsions:
REMARK  status: ('A' for Active; 'I' for Inactive)
REMARK    1  A    between atoms: C_2  and  C_3
REMARK    2  A    between atoms: C_3  and  S_4
REMARK    3  A    between atoms: S_4  and  C_5
REMARK    4  A    between atoms: C_5  and  C_6
REMARK    5  A    between atoms: C_6  and  N_7
REMARK    6  A    between atoms: C_6  and  C_28
REMARK    7  A    between atoms: C_8  and  C_10
REMARK    8  A    between atoms: C_10  and  C_11
REMARK    9  A    between atoms: C_11  and  C_12
REMARK   10  A    between atoms: C_12  and  N_13
REMARK   11  A    between atoms: N_13  and  C_14
REMARK                            x       y       z     vdW  Elec       q    Type
REMARK                         _______ _______ _______ _____ _____    ______ ____
ROOT
ATOM      1  N   UNL A   1      32.662 -34.634 -29.981  0.00  0.00    -0.303 N 
ATOM      2  C   UNL A   1      32.912 -33.344 -29.585  0.00  0.00    +0.214 C 
ATOM      3  O   UNL A   1      32.092 -32.656 -28.987  0.00  0.00    -0.276 OA
ATOM      4  H   UNL A   1      33.321 -35.104 -30.539  0.00  0.00    +0.000 HD
ENDROOT
BRANCH   1   5
ATOM      5  C   UNL A   1      31.435 -35.324 -29.590  0.00  0.00    +0.109 C 
BRANCH   5   6
ATOM      6  C   UNL A   1      31.816 -36.419 -28.574  0.00  0.00    +0.240 C 
ATOM      7  O   UNL A   1      31.676 -37.607 -28.861  0.00  0.00    -0.273 OA
ATOM      8  N   UNL A   1      32.229 -35.904 -27.365  0.00  0.00    -0.263 N 
ATOM      9  C   UNL A   1      32.565 -36.604 -26.234  0.00  0.00    +0.165 A 
ATOM     10  N   UNL A   1      32.986 -35.970 -25.167  0.00  0.00    -0.225 NA
ATOM     11  C   UNL A   1      33.250 -36.885 -24.158  0.00  0.00    +0.080 A 
ATOM     12  C   UNL A   1      33.722 -36.579 -22.866  0.00  0.00    -0.035 A 
ATOM     13  C   UNL A   1      33.942 -37.609 -21.945  0.00  0.00    -0.060 A 
ATOM     14  C   UNL A   1      33.698 -38.933 -22.297  0.00  0.00    -0.061 A 
ATOM     15  C   UNL A   1      33.229 -39.262 -23.572  0.00  0.00    -0.046 A 
ATOM     16  C   UNL A   1      33.011 -38.220 -24.488  0.00  0.00    +0.041 A 
ATOM     17  S   UNL A   1      32.445 -38.294 -26.111  0.00  0.00    -0.052 S 
ATOM     18  H   UNL A   1      32.289 -34.923 -27.305  0.00  0.00    +0.000 HD
ENDBRANCH   5   6
BRANCH   5  19
ATOM     19  C   UNL A   1      30.735 -35.994 -30.781  0.00  0.00    +0.021 C 
BRANCH  19  20
ATOM     20  S   UNL A   1      31.781 -36.250 -32.263  0.00  0.00    -0.154 S 
BRANCH  20  21
ATOM     21  C   UNL A   1      31.739 -38.063 -32.374  0.00  0.00    +0.012 C 
BRANCH  21  23
ATOM     22  C   UNL A   1      33.776 -39.487 -32.747  0.00  0.00    -0.102 C 
ATOM     23  C   UNL A   1      33.091 -38.599 -32.014  0.00  0.00    -0.081 C 
ENDBRANCH  21  23
ENDBRANCH  20  21
ENDBRANCH  19  20
ENDBRANCH   5  19
ENDBRANCH   1   5
BRANCH   2  24
ATOM     24  C   UNL A   1      34.292 -32.832 -29.938  0.00  0.00    +0.025 C 
BRANCH  24  25
ATOM     25  C   UNL A   1      34.892 -33.582 -31.124  0.00  0.00    -0.029 C 
BRANCH  25  26
ATOM     26  C   UNL A   1      36.368 -33.897 -30.889  0.00  0.00    +0.010 C 
BRANCH  26  27
ATOM     27  N   UNL A   1      36.741 -35.056 -31.711  0.00  0.00    -0.343 N 
ATOM     28  H   UNL A   1      36.402 -35.222 -32.620  0.00  0.00    +0.000 HD
BRANCH  27  29
ATOM     29  C   UNL A   1      37.656 -35.912 -31.026  0.00  0.00    +0.041 A 
ATOM     30  C   UNL A   1      37.147 -36.811 -30.067  0.00  0.00    -0.005 A 
ATOM     31  C   UNL A   1      38.061 -37.613 -29.383  0.00  0.00    +0.047 A 
ATOM     32  N   UNL A   1      39.400 -37.530 -29.564  0.00  0.00    -0.251 NA
ATOM     33  C   UNL A   1      39.883 -36.662 -30.463  0.00  0.00    +0.073 A 
ATOM     34  C   UNL A   1      41.261 -36.607 -30.631  0.00  0.00    -0.036 A 
ATOM     35  C   UNL A   1      41.861 -35.733 -31.540  0.00  0.00    -0.060 A 
ATOM     36  C   UNL A   1      41.069 -34.889 -32.302  0.00  0.00    -0.061 A 
ATOM     37  C   UNL A   1      39.683 -34.928 -32.150  0.00  0.00    -0.051 A 
ATOM     38  C   UNL A   1      39.062 -35.814 -31.231  0.00  0.00    +0.021 A 
ATOM     39  C   UNL A   1      37.618 -38.602 -28.335  0.00  0.00    -0.010 C 
ATOM     40  C   UNL A   1      36.155 -39.007 -28.469  0.00  0.00    -0.047 C 
ATOM     41  C   UNL A   1      35.286 -37.766 -28.611  0.00  0.00    -0.049 C 
ATOM     42  C   UNL A   1      35.659 -36.994 -29.876  0.00  0.00    -0.024 C 
ENDBRANCH  27  29
ENDBRANCH  26  27
ENDBRANCH  25  26
ENDBRANCH  24  25
ENDBRANCH   2  24
TORSDOF 11
ENDMDL
MODEL 6
REMARK VINA RESULT:    -7.491     17.527     20.533
REMARK INTER + INTRA:         -14.464
REMARK INTER:                 -12.319
REMARK INTRA:                  -2.145
REMARK UNBOUND:                -2.155
REMARK  Name = cpd157.pdb
REMARK  11 active torsions:
REMARK  status: ('A' for Active; 'I' for Inactive)
REMARK    1  A    between atoms: C_2  and  C_3
REMARK    2  A    between atoms: C_3  and  S_4
REMARK    3  A    between atoms: S_4  and  C_5
REMARK    4  A    between atoms: C_5  and  C_6
REMARK    5  A    between atoms: C_6  and  N_7
REMARK    6  A    between atoms: C_6  and  C_28
REMARK    7  A    between atoms: C_8  and  C_10
REMARK    8  A    between atoms: C_10  and  C_11
REMARK    9  A    between atoms: C_11  and  C_12
REMARK   10  A    between atoms: C_12  and  N_13
REMARK   11  A    between atoms: N_13  and  C_14
REMARK                            x       y       z     vdW  Elec       q    Type
REMARK                         _______ _______ _______ _____ _____    ______ ____
ROOT
ATOM      1  N   UNL A   1      45.002 -17.676 -34.655  0.00  0.00    -0.303 N 
ATOM      2  C   UNL A   1      46.270 -18.193 -34.577  0.00  0.00    +0.214 C 
ATOM      3  O   UNL A   1      47.019 -17.991 -33.628  0.00  0.00    -0.276 OA
ATOM      4  H   UNL A   1      44.482 -17.794 -35.482  0.00  0.00    +0.000 HD
ENDROOT
BRANCH   1   5
ATOM      5  C   UNL A   1      44.406 -16.952 -33.534  0.00  0.00    +0.109 C 
BRANCH   5   6
ATOM      6  C   UNL A   1      42.997 -17.530 -33.298  0.00  0.00    +0.240 C 
ATOM      7  O   UNL A   1      42.142 -16.863 -32.716  0.00  0.00    -0.273 OA
ATOM      8  N   UNL A   1      42.875 -18.832 -33.734  0.00  0.00    -0.263 N 
ATOM      9  C   UNL A   1      41.783 -19.651 -33.606  0.00  0.00    +0.165 A 
ATOM     10  N   UNL A   1      41.802 -20.859 -34.115  0.00  0.00    -0.225 NA
ATOM     11  C   UNL A   1      40.598 -21.494 -33.849  0.00  0.00    +0.080 A 
ATOM     12  C   UNL A   1      40.248 -22.801 -34.241  0.00  0.00    -0.035 A 
ATOM     13  C   UNL A   1      38.992 -23.316 -33.898  0.00  0.00    -0.060 A 
ATOM     14  C   UNL A   1      38.088 -22.545 -33.174  0.00  0.00    -0.061 A 
ATOM     15  C   UNL A   1      38.412 -21.246 -32.774  0.00  0.00    -0.046 A 
ATOM     16  C   UNL A   1      39.675 -20.740 -33.123  0.00  0.00    +0.041 A 
ATOM     17  S   UNL A   1      40.367 -19.201 -32.784  0.00  0.00    -0.052 S 
ATOM     18  H   UNL A   1      43.659 -19.217 -34.186  0.00  0.00    +0.000 HD
ENDBRANCH   5   6
BRANCH   5  19
ATOM     19  C   UNL A   1      44.271 -15.448 -33.814  0.00  0.00    +0.021 C 
BRANCH  19  20
ATOM     20  S   UNL A   1      44.559 -14.944 -35.552  0.00  0.00    -0.154 S 
BRANCH  20  21
ATOM     21  C   UNL A   1      42.917 -15.273 -36.256  0.00  0.00    +0.012 C 
BRANCH  21  23
ATOM     22  C   UNL A   1      43.984 -16.395 -38.235  0.00  0.00    -0.102 C 
ATOM     23  C   UNL A   1      43.069 -15.564 -37.717  0.00  0.00    -0.081 C 
ENDBRANCH  21  23
ENDBRANCH  20  21
ENDBRANCH  19  20
ENDBRANCH   5  19
ENDBRANCH   1   5
BRANCH   2  24
ATOM     24  C   UNL A   1      46.676 -19.048 -35.759  0.00  0.00    +0.025 C 
BRANCH  24  25
ATOM     25  C   UNL A   1      46.991 -18.204 -36.991  0.00  0.00    -0.029 C 
BRANCH  25  26
ATOM     26  C   UNL A   1      47.296 -19.086 -38.201  0.00  0.00    +0.010 C 
BRANCH  26  27
ATOM     27  N   UNL A   1      46.823 -20.449 -37.923  0.00  0.00    -0.343 N 
ATOM     28  H   UNL A   1      47.001 -20.937 -37.087  0.00  0.00    +0.000 HD
BRANCH  27  29
ATOM     29  C   UNL A   1      46.072 -20.976 -39.017  0.00  0.00    +0.041 A 
ATOM     30  C   UNL A   1      46.759 -21.676 -40.029  0.00  0.00    -0.005 A 
ATOM     31  C   UNL A   1      46.013 -22.152 -41.108  0.00  0.00    +0.047 A 
ATOM     32  N   UNL A   1      44.683 -21.932 -41.244  0.00  0.00    -0.251 NA
ATOM     33  C   UNL A   1      44.035 -21.251 -40.290  0.00  0.00    +0.073 A 
ATOM     34  C   UNL A   1      42.671 -21.049 -40.454  0.00  0.00    -0.036 A 
ATOM     35  C   UNL A   1      41.908 -20.349 -39.517  0.00  0.00    -0.060 A 
ATOM     36  C   UNL A   1      42.519 -19.835 -38.385  0.00  0.00    -0.061 A 
ATOM     37  C   UNL A   1      43.887 -20.026 -38.198  0.00  0.00    -0.051 A 
ATOM     38  C   UNL A   1      44.673 -20.738 -39.143  0.00  0.00    +0.021 A 
ATOM     39  C   UNL A   1      46.654 -22.906 -42.244  0.00  0.00    -0.010 C 
ATOM     40  C   UNL A   1      47.994 -23.530 -41.872  0.00  0.00    -0.047 C 
ATOM     41  C   UNL A   1      48.875 -22.493 -41.190  0.00  0.00    -0.049 C 
ATOM     42  C   UNL A   1      48.226 -22.010 -39.893  0.00  0.00    -0.024 C 
ENDBRANCH  27  29
ENDBRANCH  26  27
ENDBRANCH  25  26
ENDBRANCH  24  25
ENDBRANCH   2  24
TORSDOF 11
ENDMDL
MODEL 7
REMARK VINA RESULT:    -7.432     17.373     20.516
REMARK INTER + INTRA:         -14.366
REMARK INTER:                 -12.342
REMARK INTRA:                  -2.025
REMARK UNBOUND:                -2.155
REMARK  Name = cpd157.pdb
REMARK  11 active torsions:
REMARK  status: ('A' for Active; 'I' for Inactive)
REMARK    1  A    between atoms: C_2  and  C_3
REMARK    2  A    between atoms: C_3  and  S_4
REMARK    3  A    between atoms: S_4  and  C_5
REMARK    4  A    between atoms: C_5  and  C_6
REMARK    5  A    between atoms: C_6  and  N_7
REMARK    6  A    between atoms: C_6  and  C_28
REMARK    7  A    between atoms: C_8  and  C_10
REMARK    8  A    between atoms: C_10  and  C_11
REMARK    9  A    between atoms: C_11  and  C_12
REMARK   10  A    between atoms: C_12  and  N_13
REMARK   11  A    between atoms: N_13  and  C_14
REMARK                            x       y       z     vdW  Elec       q    Type
REMARK                         _______ _______ _______ _____ _____    ______ ____
ROOT
ATOM      1  N   UNL A   1      44.537 -17.907 -35.017  0.00  0.00    -0.303 N 
ATOM      2  C   UNL A   1      45.731 -18.377 -34.532  0.00  0.00    +0.214 C 
ATOM      3  O   UNL A   1      46.255 -17.947 -33.509  0.00  0.00    -0.276 OA
ATOM      4  H   UNL A   1      44.213 -18.224 -35.890  0.00  0.00    +0.000 HD
ENDROOT
BRANCH   1   5
ATOM      5  C   UNL A   1      43.736 -16.946 -34.262  0.00  0.00    +0.109 C 
BRANCH   5   6
ATOM      6  C   UNL A   1      42.447 -17.661 -33.811  0.00  0.00    +0.240 C 
ATOM      7  O   UNL A   1      41.752 -17.183 -32.916  0.00  0.00    -0.273 OA
ATOM      8  N   UNL A   1      42.250 -18.863 -34.457  0.00  0.00    -0.263 N 
ATOM      9  C   UNL A   1      41.247 -19.771 -34.235  0.00  0.00    +0.165 A 
ATOM     10  N   UNL A   1      41.166 -20.856 -34.966  0.00  0.00    -0.225 NA
ATOM     11  C   UNL A   1      40.085 -21.618 -34.548  0.00  0.00    +0.080 A 
ATOM     12  C   UNL A   1      39.679 -22.850 -35.098  0.00  0.00    -0.035 A 
ATOM     13  C   UNL A   1      38.564 -23.512 -34.570  0.00  0.00    -0.060 A 
ATOM     14  C   UNL A   1      37.856 -22.962 -33.507  0.00  0.00    -0.061 A 
ATOM     15  C   UNL A   1      38.239 -21.741 -32.944  0.00  0.00    -0.046 A 
ATOM     16  C   UNL A   1      39.358 -21.085 -33.481  0.00  0.00    +0.041 A 
ATOM     17  S   UNL A   1      40.076 -19.592 -33.018  0.00  0.00    -0.052 S 
ATOM     18  H   UNL A   1      42.903 -19.096 -35.155  0.00  0.00    +0.000 HD
ENDBRANCH   5   6
BRANCH   5  19
ATOM     19  C   UNL A   1      43.340 -15.725 -35.105  0.00  0.00    +0.021 C 
BRANCH  19  20
ATOM     20  S   UNL A   1      44.615 -15.137 -36.282  0.00  0.00    -0.154 S 
BRANCH  20  21
ATOM     21  C   UNL A   1      43.552 -14.470 -37.597  0.00  0.00    +0.012 C 
BRANCH  21  23
ATOM     22  C   UNL A   1      43.719 -16.633 -38.865  0.00  0.00    -0.102 C 
ATOM     23  C   UNL A   1      42.994 -15.611 -38.390  0.00  0.00    -0.081 C 
ENDBRANCH  21  23
ENDBRANCH  20  21
ENDBRANCH  19  20
ENDBRANCH   5  19
ENDBRANCH   1   5
BRANCH   2  24
ATOM     24  C   UNL A   1      46.356 -19.482 -35.355  0.00  0.00    +0.025 C 
BRANCH  24  25
ATOM     25  C   UNL A   1      47.464 -18.958 -36.265  0.00  0.00    -0.029 C 
BRANCH  25  26
ATOM     26  C   UNL A   1      47.283 -19.454 -37.698  0.00  0.00    +0.010 C 
BRANCH  26  27
ATOM     27  N   UNL A   1      46.721 -20.811 -37.661  0.00  0.00    -0.343 N 
ATOM     28  H   UNL A   1      46.804 -21.423 -36.895  0.00  0.00    +0.000 HD
BRANCH  27  29
ATOM     29  C   UNL A   1      46.040 -21.130 -38.875  0.00  0.00    +0.041 A 
ATOM     30  C   UNL A   1      44.656 -20.874 -38.956  0.00  0.00    -0.005 A 
ATOM     31  C   UNL A   1      44.001 -21.226 -40.137  0.00  0.00    +0.047 A 
ATOM     32  N   UNL A   1      44.622 -21.837 -41.174  0.00  0.00    -0.251 NA
ATOM     33  C   UNL A   1      45.933 -22.095 -41.088  0.00  0.00    +0.073 A 
ATOM     34  C   UNL A   1      46.542 -22.716 -42.171  0.00  0.00    -0.036 A 
ATOM     35  C   UNL A   1      47.903 -23.030 -42.177  0.00  0.00    -0.060 A 
ATOM     36  C   UNL A   1      48.680 -22.719 -41.072  0.00  0.00    -0.061 A 
ATOM     37  C   UNL A   1      48.091 -22.095 -39.973  0.00  0.00    -0.051 A 
ATOM     38  C   UNL A   1      46.709 -21.770 -39.957  0.00  0.00    +0.021 A 
ATOM     39  C   UNL A   1      42.523 -21.000 -40.321  0.00  0.00    -0.010 C 
ATOM     40  C   UNL A   1      41.956 -19.936 -39.388  0.00  0.00    -0.047 C 
ATOM     41  C   UNL A   1      42.407 -20.207 -37.960  0.00  0.00    -0.049 C 
ATOM     42  C   UNL A   1      43.931 -20.132 -37.858  0.00  0.00    -0.024 C 
ENDBRANCH  27  29
ENDBRANCH  26  27
ENDBRANCH  25  26
ENDBRANCH  24  25
ENDBRANCH   2  24
TORSDOF 11
ENDMDL
MODEL 8
REMARK VINA RESULT:    -7.343     18.129     21.447
REMARK INTER + INTRA:         -14.220
REMARK INTER:                 -11.893
REMARK INTRA:                  -2.327
REMARK UNBOUND:                -2.155
REMARK  Name = cpd157.pdb
REMARK  11 active torsions:
REMARK  status: ('A' for Active; 'I' for Inactive)
REMARK    1  A    between atoms: C_2  and  C_3
REMARK    2  A    between atoms: C_3  and  S_4
REMARK    3  A    between atoms: S_4  and  C_5
REMARK    4  A    between atoms: C_5  and  C_6
REMARK    5  A    between atoms: C_6  and  N_7
REMARK    6  A    between atoms: C_6  and  C_28
REMARK    7  A    between atoms: C_8  and  C_10
REMARK    8  A    between atoms: C_10  and  C_11
REMARK    9  A    between atoms: C_11  and  C_12
REMARK   10  A    between atoms: C_12  and  N_13
REMARK   11  A    between atoms: N_13  and  C_14
REMARK                            x       y       z     vdW  Elec       q    Type
REMARK                         _______ _______ _______ _____ _____    ______ ____
ROOT
ATOM      1  N   UNL A   1      46.422 -20.039 -38.197  0.00  0.00    -0.303 N 
ATOM      2  C   UNL A   1      46.853 -19.658 -36.951  0.00  0.00    +0.214 C 
ATOM      3  O   UNL A   1      47.909 -19.063 -36.761  0.00  0.00    -0.276 OA
ATOM      4  H   UNL A   1      45.615 -20.595 -38.279  0.00  0.00    +0.000 HD
ENDROOT
BRANCH   1   5
ATOM      5  C   UNL A   1      47.137 -19.635 -39.405  0.00  0.00    +0.109 C 
BRANCH   5   6
ATOM      6  C   UNL A   1      46.450 -18.370 -39.957  0.00  0.00    +0.240 C 
ATOM      7  O   UNL A   1      47.114 -17.488 -40.498  0.00  0.00    -0.273 OA
ATOM      8  N   UNL A   1      45.096 -18.345 -39.700  0.00  0.00    -0.263 N 
ATOM      9  C   UNL A   1      44.214 -17.336 -39.990  0.00  0.00    +0.165 A 
ATOM     10  N   UNL A   1      42.938 -17.478 -39.724  0.00  0.00    -0.225 NA
ATOM     11  C   UNL A   1      42.256 -16.328 -40.093  0.00  0.00    +0.080 A 
ATOM     12  C   UNL A   1      40.870 -16.110 -39.963  0.00  0.00    -0.035 A 
ATOM     13  C   UNL A   1      40.316 -14.894 -40.377  0.00  0.00    -0.060 A 
ATOM     14  C   UNL A   1      41.125 -13.899 -40.916  0.00  0.00    -0.061 A 
ATOM     15  C   UNL A   1      42.503 -14.091 -41.056  0.00  0.00    -0.046 A 
ATOM     16  C   UNL A   1      43.048 -15.315 -40.636  0.00  0.00    +0.041 A 
ATOM     17  S   UNL A   1      44.682 -15.852 -40.672  0.00  0.00    -0.052 S 
ATOM     18  H   UNL A   1      44.720 -19.140 -39.259  0.00  0.00    +0.000 HD
ENDBRANCH   5   6
BRANCH   5  19
ATOM     19  C   UNL A   1      47.103 -20.716 -40.495  0.00  0.00    +0.021 C 
BRANCH  19  20
ATOM     20  S   UNL A   1      45.680 -21.868 -40.413  0.00  0.00    -0.154 S 
BRANCH  20  21
ATOM     21  C   UNL A   1      45.276 -22.002 -42.180  0.00  0.00    +0.012 C 
BRANCH  21  23
ATOM     22  C   UNL A   1      44.245 -19.818 -42.876  0.00  0.00    -0.102 C 
ATOM     23  C   UNL A   1      45.306 -20.632 -42.786  0.00  0.00    -0.081 C 
ENDBRANCH  21  23
ENDBRANCH  20  21
ENDBRANCH  19  20
ENDBRANCH   5  19
ENDBRANCH   1   5
BRANCH   2  24
ATOM     24  C   UNL A   1      45.917 -20.023 -35.820  0.00  0.00    +0.025 C 
BRANCH  24  25
ATOM     25  C   UNL A   1      44.557 -19.345 -35.965  0.00  0.00    -0.029 C 
BRANCH  25  26
ATOM     26  C   UNL A   1      43.457 -20.164 -35.291  0.00  0.00    +0.010 C 
BRANCH  26  27
ATOM     27  N   UNL A   1      42.158 -19.748 -35.835  0.00  0.00    -0.343 N 
ATOM     28  H   UNL A   1      41.869 -18.811 -35.923  0.00  0.00    +0.000 HD
BRANCH  27  29
ATOM     29  C   UNL A   1      41.366 -20.872 -36.219  0.00  0.00    +0.041 A 
ATOM     30  C   UNL A   1      41.347 -21.249 -37.577  0.00  0.00    -0.005 A 
ATOM     31  C   UNL A   1      40.539 -22.327 -37.939  0.00  0.00    +0.047 A 
ATOM     32  N   UNL A   1      39.748 -22.988 -37.060  0.00  0.00    -0.251 NA
ATOM     33  C   UNL A   1      39.754 -22.617 -35.773  0.00  0.00    +0.073 A 
ATOM     34  C   UNL A   1      38.938 -23.319 -34.895  0.00  0.00    -0.036 A 
ATOM     35  C   UNL A   1      38.872 -23.007 -33.535  0.00  0.00    -0.060 A 
ATOM     36  C   UNL A   1      39.638 -21.967 -33.035  0.00  0.00    -0.061 A 
ATOM     37  C   UNL A   1      40.465 -21.248 -33.897  0.00  0.00    -0.051 A 
ATOM     38  C   UNL A   1      40.542 -21.558 -35.281  0.00  0.00    +0.021 A 
ATOM     39  C   UNL A   1      40.444 -22.803 -39.366  0.00  0.00    -0.010 C 
ATOM     40  C   UNL A   1      41.635 -22.385 -40.220  0.00  0.00    -0.047 C 
ATOM     41  C   UNL A   1      41.903 -20.898 -40.039  0.00  0.00    -0.049 C 
ATOM     42  C   UNL A   1      42.262 -20.593 -38.585  0.00  0.00    -0.024 C 
ENDBRANCH  27  29
ENDBRANCH  26  27
ENDBRANCH  25  26
ENDBRANCH  24  25
ENDBRANCH   2  24
TORSDOF 11
ENDMDL
MODEL 9
REMARK VINA RESULT:    -7.230     19.125     22.074
REMARK INTER + INTRA:         -14.034
REMARK INTER:                 -11.230
REMARK INTRA:                  -2.804
REMARK UNBOUND:                -2.155
REMARK  Name = cpd157.pdb
REMARK  11 active torsions:
REMARK  status: ('A' for Active; 'I' for Inactive)
REMARK    1  A    between atoms: C_2  and  C_3
REMARK    2  A    between atoms: C_3  and  S_4
REMARK    3  A    between atoms: S_4  and  C_5
REMARK    4  A    between atoms: C_5  and  C_6
REMARK    5  A    between atoms: C_6  and  N_7
REMARK    6  A    between atoms: C_6  and  C_28
REMARK    7  A    between atoms: C_8  and  C_10
REMARK    8  A    between atoms: C_10  and  C_11
REMARK    9  A    between atoms: C_11  and  C_12
REMARK   10  A    between atoms: C_12  and  N_13
REMARK   11  A    between atoms: N_13  and  C_14
REMARK                            x       y       z     vdW  Elec       q    Type
REMARK                         _______ _______ _______ _____ _____    ______ ____
ROOT
ATOM      1  N   UNL A   1      45.299 -16.596 -35.370  0.00  0.00    -0.303 N 
ATOM      2  C   UNL A   1      46.252 -17.460 -34.891  0.00  0.00    +0.214 C 
ATOM      3  O   UNL A   1      46.191 -17.975 -33.779  0.00  0.00    -0.276 OA
ATOM      4  H   UNL A   1      45.450 -16.142 -36.230  0.00  0.00    +0.000 HD
ENDROOT
BRANCH   1   5
ATOM      5  C   UNL A   1      44.066 -16.339 -34.631  0.00  0.00    +0.109 C 
BRANCH   5   6
ATOM      6  C   UNL A   1      43.000 -17.330 -35.137  0.00  0.00    +0.240 C 
ATOM      7  O   UNL A   1      41.981 -17.536 -34.479  0.00  0.00    -0.273 OA
ATOM      8  N   UNL A   1      43.370 -17.960 -36.306  0.00  0.00    -0.263 N 
ATOM      9  C   UNL A   1      42.685 -18.943 -36.973  0.00  0.00    +0.165 A 
ATOM     10  N   UNL A   1      43.146 -19.415 -38.105  0.00  0.00    -0.225 NA
ATOM     11  C   UNL A   1      42.293 -20.402 -38.578  0.00  0.00    +0.080 A 
ATOM     12  C   UNL A   1      42.456 -21.136 -39.770  0.00  0.00    -0.035 A 
ATOM     13  C   UNL A   1      41.512 -22.107 -40.122  0.00  0.00    -0.060 A 
ATOM     14  C   UNL A   1      40.414 -22.352 -39.304  0.00  0.00    -0.061 A 
ATOM     15  C   UNL A   1      40.230 -21.637 -38.117  0.00  0.00    -0.046 A 
ATOM     16  C   UNL A   1      41.183 -20.665 -37.773  0.00  0.00    +0.041 A 
ATOM     17  S   UNL A   1      41.243 -19.632 -36.398  0.00  0.00    -0.052 S 
ATOM     18  H   UNL A   1      44.222 -17.672 -36.707  0.00  0.00    +0.000 HD
ENDBRANCH   5   6
BRANCH   5  19
ATOM     19  C   UNL A   1      43.540 -14.913 -34.848  0.00  0.00    +0.021 C 
BRANCH  19  20
ATOM     20  S   UNL A   1      43.593 -14.312 -36.579  0.00  0.00    -0.154 S 
BRANCH  20  21
ATOM     21  C   UNL A   1      44.908 -13.066 -36.444  0.00  0.00    +0.012 C 
BRANCH  21  23
ATOM     22  C   UNL A   1      46.702 -13.655 -38.103  0.00  0.00    -0.102 C 
ATOM     23  C   UNL A   1      46.206 -13.689 -36.859  0.00  0.00    -0.081 C 
ENDBRANCH  21  23
ENDBRANCH  20  21
ENDBRANCH  19  20
ENDBRANCH   5  19
ENDBRANCH   1   5
BRANCH   2  24
ATOM     24  C   UNL A   1      47.391 -17.737 -35.848  0.00  0.00    +0.025 C 
BRANCH  24  25
ATOM     25  C   UNL A   1      47.616 -19.234 -36.048  0.00  0.00    -0.029 C 
BRANCH  25  26
ATOM     26  C   UNL A   1      46.842 -19.751 -37.259  0.00  0.00    +0.010 C 
BRANCH  26  27
ATOM     27  N   UNL A   1      47.579 -19.393 -38.478  0.00  0.00    -0.343 N 
ATOM     28  H   UNL A   1      48.504 -19.056 -38.487  0.00  0.00    +0.000 HD
BRANCH  27  29
ATOM     29  C   UNL A   1      46.786 -19.595 -39.648  0.00  0.00    +0.041 A 
ATOM     30  C   UNL A   1      45.893 -18.578 -40.040  0.00  0.00    -0.005 A 
ATOM     31  C   UNL A   1      45.100 -18.810 -41.165  0.00  0.00    +0.047 A 
ATOM     32  N   UNL A   1      45.120 -19.973 -41.858  0.00  0.00    -0.251 NA
ATOM     33  C   UNL A   1      45.957 -20.946 -41.474  0.00  0.00    +0.073 A 
ATOM     34  C   UNL A   1      45.960 -22.124 -42.210  0.00  0.00    -0.036 A 
ATOM     35  C   UNL A   1      46.793 -23.197 -41.887  0.00  0.00    -0.060 A 
ATOM     36  C   UNL A   1      47.647 -23.096 -40.801  0.00  0.00    -0.061 A 
ATOM     37  C   UNL A   1      47.663 -21.923 -40.048  0.00  0.00    -0.051 A 
ATOM     38  C   UNL A   1      46.821 -20.825 -40.368  0.00  0.00    +0.021 A 
ATOM     39  C   UNL A   1      44.110 -17.788 -41.661  0.00  0.00    -0.010 C 
ATOM     40  C   UNL A   1      44.417 -16.372 -41.187  0.00  0.00    -0.047 C 
ATOM     41  C   UNL A   1      44.667 -16.372 -39.686  0.00  0.00    -0.049 C 
ATOM     42  C   UNL A   1      45.881 -17.236 -39.346  0.00  0.00    -0.024 C 
ENDBRANCH  27  29
ENDBRANCH  26  27
ENDBRANCH  25  26
ENDBRANCH  24  25
ENDBRANCH   2  24
TORSDOF 11
ENDMDL
MODEL 10
REMARK VINA RESULT:    -7.180     18.546     21.711
REMARK INTER + INTRA:         -13.953
REMARK INTER:                 -12.298
REMARK INTRA:                  -1.655
REMARK UNBOUND:                -2.155
REMARK  Name = cpd157.pdb
REMARK  11 active torsions:
REMARK  status: ('A' for Active; 'I' for Inactive)
REMARK    1  A    between atoms: C_2  and  C_3
REMARK    2  A    between atoms: C_3  and  S_4
REMARK    3  A    between atoms: S_4  and  C_5
REMARK    4  A    between atoms: C_5  and  C_6
REMARK    5  A    between atoms: C_6  and  N_7
REMARK    6  A    between atoms: C_6  and  C_28
REMARK    7  A    between atoms: C_8  and  C_10
REMARK    8  A    between atoms: C_10  and  C_11
REMARK    9  A    between atoms: C_11  and  C_12
REMARK   10  A    between atoms: C_12  and  N_13
REMARK   11  A    between atoms: N_13  and  C_14
REMARK                            x       y       z     vdW  Elec       q    Type
REMARK                         _______ _______ _______ _____ _____    ______ ____
ROOT
ATOM      1  N   UNL A   1      45.483 -17.210 -34.828  0.00  0.00    -0.303 N 
ATOM      2  C   UNL A   1      46.732 -17.763 -34.696  0.00  0.00    +0.214 C 
ATOM      3  O   UNL A   1      47.360 -17.754 -33.643  0.00  0.00    -0.276 OA
ATOM      4  H   UNL A   1      45.069 -17.163 -35.719  0.00  0.00    +0.000 HD
ENDROOT
BRANCH   1   5
ATOM      5  C   UNL A   1      44.757 -16.689 -33.673  0.00  0.00    +0.109 C 
BRANCH   5   6
ATOM      6  C   UNL A   1      43.790 -17.789 -33.192  0.00  0.00    +0.240 C 
ATOM      7  O   UNL A   1      44.225 -18.816 -32.675  0.00  0.00    -0.273 OA
ATOM      8  N   UNL A   1      42.473 -17.503 -33.480  0.00  0.00    -0.263 N 
ATOM      9  C   UNL A   1      41.380 -18.302 -33.254  0.00  0.00    +0.165 A 
ATOM     10  N   UNL A   1      40.177 -17.869 -33.542  0.00  0.00    -0.225 NA
ATOM     11  C   UNL A   1      39.246 -18.852 -33.239  0.00  0.00    +0.080 A 
ATOM     12  C   UNL A   1      37.851 -18.751 -33.409  0.00  0.00    -0.035 A 
ATOM     13  C   UNL A   1      37.029 -19.829 -33.061  0.00  0.00    -0.060 A 
ATOM     14  C   UNL A   1      37.581 -20.998 -32.546  0.00  0.00    -0.061 A 
ATOM     15  C   UNL A   1      38.962 -21.122 -32.368  0.00  0.00    -0.046 A 
ATOM     16  C   UNL A   1      39.777 -20.035 -32.721  0.00  0.00    +0.041 A 
ATOM     17  S   UNL A   1      41.487 -19.876 -32.626  0.00  0.00    -0.052 S 
ATOM     18  H   UNL A   1      42.296 -16.629 -33.895  0.00  0.00    +0.000 HD
ENDBRANCH   5   6
BRANCH   5  19
ATOM     19  C   UNL A   1      43.933 -15.439 -34.015  0.00  0.00    +0.021 C 
BRANCH  19  20
ATOM     20  S   UNL A   1      44.279 -14.695 -35.653  0.00  0.00    -0.154 S 
BRANCH  20  21
ATOM     21  C   UNL A   1      42.646 -14.865 -36.432  0.00  0.00    +0.012 C 
BRANCH  21  23
ATOM     22  C   UNL A   1      43.706 -13.466 -38.230  0.00  0.00    -0.102 C 
ATOM     23  C   UNL A   1      42.633 -14.071 -37.702  0.00  0.00    -0.081 C 
ENDBRANCH  21  23
ENDBRANCH  20  21
ENDBRANCH  19  20
ENDBRANCH   5  19
ENDBRANCH   1   5
BRANCH   2  24
ATOM     24  C   UNL A   1      47.279 -18.397 -35.957  0.00  0.00    +0.025 C 
BRANCH  24  25
ATOM     25  C   UNL A   1      47.115 -19.914 -35.949  0.00  0.00    -0.029 C 
BRANCH  25  26
ATOM     26  C   UNL A   1      46.557 -20.417 -37.280  0.00  0.00    +0.010 C 
BRANCH  26  27
ATOM     27  N   UNL A   1      47.398 -19.902 -38.368  0.00  0.00    -0.343 N 
ATOM     28  H   UNL A   1      48.300 -19.529 -38.242  0.00  0.00    +0.000 HD
BRANCH  27  29
ATOM     29  C   UNL A   1      46.743 -20.009 -39.632  0.00  0.00    +0.041 A 
ATOM     30  C   UNL A   1      45.878 -18.971 -40.032  0.00  0.00    -0.005 A 
ATOM     31  C   UNL A   1      45.218 -19.111 -41.254  0.00  0.00    +0.047 A 
ATOM     32  N   UNL A   1      45.338 -20.209 -42.038  0.00  0.00    -0.251 NA
ATOM     33  C   UNL A   1      46.147 -21.203 -41.648  0.00  0.00    +0.073 A 
ATOM     34  C   UNL A   1      46.254 -22.312 -42.478  0.00  0.00    -0.036 A 
ATOM     35  C   UNL A   1      47.068 -23.400 -42.158  0.00  0.00    -0.060 A 
ATOM     36  C   UNL A   1      47.796 -23.386 -40.979  0.00  0.00    -0.061 A 
ATOM     37  C   UNL A   1      47.705 -22.283 -40.130  0.00  0.00    -0.051 A 
ATOM     38  C   UNL A   1      46.882 -21.170 -40.446  0.00  0.00    +0.021 A 
ATOM     39  C   UNL A   1      44.268 -18.060 -41.767  0.00  0.00    -0.010 C 
ATOM     40  C   UNL A   1      44.493 -16.688 -41.142  0.00  0.00    -0.047 C 
ATOM     41  C   UNL A   1      44.576 -16.818 -39.628  0.00  0.00    -0.049 C 
ATOM     42  C   UNL A   1      45.762 -17.695 -39.231  0.00  0.00    -0.024 C 
ENDBRANCH  27  29
ENDBRANCH  26  27
ENDBRANCH  25  26
ENDBRANCH  24  25
ENDBRANCH   2  24
TORSDOF 11
ENDMDL
MODEL 11
REMARK VINA RESULT:    -7.177     18.384     21.440
REMARK INTER + INTRA:         -13.947
REMARK INTER:                 -12.822
REMARK INTRA:                  -1.126
REMARK UNBOUND:                -2.155
REMARK  Name = cpd157.pdb
REMARK  11 active torsions:
REMARK  status: ('A' for Active; 'I' for Inactive)
REMARK    1  A    between atoms: C_2  and  C_3
REMARK    2  A    between atoms: C_3  and  S_4
REMARK    3  A    between atoms: S_4  and  C_5
REMARK    4  A    between atoms: C_5  and  C_6
REMARK    5  A    between atoms: C_6  and  N_7
REMARK    6  A    between atoms: C_6  and  C_28
REMARK    7  A    between atoms: C_8  and  C_10
REMARK    8  A    between atoms: C_10  and  C_11
REMARK    9  A    between atoms: C_11  and  C_12
REMARK   10  A    between atoms: C_12  and  N_13
REMARK   11  A    between atoms: N_13  and  C_14
REMARK                            x       y       z     vdW  Elec       q    Type
REMARK                         _______ _______ _______ _____ _____    ______ ____
ROOT
ATOM      1  N   UNL A   1      45.060 -17.452 -34.784  0.00  0.00    -0.303 N 
ATOM      2  C   UNL A   1      46.409 -17.705 -34.747  0.00  0.00    +0.214 C 
ATOM      3  O   UNL A   1      47.045 -17.792 -33.702  0.00  0.00    -0.276 OA
ATOM      4  H   UNL A   1      44.622 -17.299 -35.652  0.00  0.00    +0.000 HD
ENDROOT
BRANCH   1   5
ATOM      5  C   UNL A   1      44.262 -17.405 -33.562  0.00  0.00    +0.109 C 
BRANCH   5   6
ATOM      6  C   UNL A   1      43.426 -18.699 -33.497  0.00  0.00    +0.240 C 
ATOM      7  O   UNL A   1      43.959 -19.792 -33.677  0.00  0.00    -0.273 OA
ATOM      8  N   UNL A   1      42.084 -18.456 -33.302  0.00  0.00    -0.263 N 
ATOM      9  C   UNL A   1      41.069 -19.377 -33.271  0.00  0.00    +0.165 A 
ATOM     10  N   UNL A   1      39.839 -18.995 -33.028  0.00  0.00    -0.225 NA
ATOM     11  C   UNL A   1      38.995 -20.096 -33.061  0.00  0.00    +0.080 A 
ATOM     12  C   UNL A   1      37.604 -20.080 -32.843  0.00  0.00    -0.035 A 
ATOM     13  C   UNL A   1      36.876 -21.273 -32.910  0.00  0.00    -0.060 A 
ATOM     14  C   UNL A   1      37.518 -22.475 -33.190  0.00  0.00    -0.061 A 
ATOM     15  C   UNL A   1      38.898 -22.518 -33.409  0.00  0.00    -0.046 A 
ATOM     16  C   UNL A   1      39.618 -21.314 -33.340  0.00  0.00    +0.041 A 
ATOM     17  S   UNL A   1      41.301 -21.034 -33.560  0.00  0.00    -0.052 S 
ATOM     18  H   UNL A   1      41.824 -17.516 -33.170  0.00  0.00    +0.000 HD
ENDBRANCH   5   6
BRANCH   5  19
ATOM     19  C   UNL A   1      43.301 -16.208 -33.536  0.00  0.00    +0.021 C 
BRANCH  19  20
ATOM     20  S   UNL A   1      44.074 -14.588 -33.168  0.00  0.00    -0.154 S 
BRANCH  20  21
ATOM     21  C   UNL A   1      44.191 -14.694 -31.358  0.00  0.00    +0.012 C 
BRANCH  21  23
ATOM     22  C   UNL A   1      45.288 -12.548 -30.646  0.00  0.00    -0.102 C 
ATOM     23  C   UNL A   1      44.193 -13.307 -30.793  0.00  0.00    -0.081 C 
ENDBRANCH  21  23
ENDBRANCH  20  21
ENDBRANCH  19  20
ENDBRANCH   5  19
ENDBRANCH   1   5
BRANCH   2  24
ATOM     24  C   UNL A   1      47.056 -17.877 -36.104  0.00  0.00    +0.025 C 
BRANCH  24  25
ATOM     25  C   UNL A   1      47.521 -19.312 -36.336  0.00  0.00    -0.029 C 
BRANCH  25  26
ATOM     26  C   UNL A   1      46.856 -19.915 -37.572  0.00  0.00    +0.010 C 
BRANCH  26  27
ATOM     27  N   UNL A   1      47.491 -19.353 -38.772  0.00  0.00    -0.343 N 
ATOM     28  H   UNL A   1      48.370 -18.911 -38.776  0.00  0.00    +0.000 HD
BRANCH  27  29
ATOM     29  C   UNL A   1      46.675 -19.531 -39.929  0.00  0.00    +0.041 A 
ATOM     30  C   UNL A   1      45.730 -18.534 -40.245  0.00  0.00    -0.005 A 
ATOM     31  C   UNL A   1      44.916 -18.743 -41.359  0.00  0.00    +0.047 A 
ATOM     32  N   UNL A   1      44.964 -19.868 -42.111  0.00  0.00    -0.251 NA
ATOM     33  C   UNL A   1      45.851 -20.823 -41.799  0.00  0.00    +0.073 A 
ATOM     34  C   UNL A   1      45.881 -21.961 -42.593  0.00  0.00    -0.036 A 
ATOM     35  C   UNL A   1      46.766 -23.013 -42.348  0.00  0.00    -0.060 A 
ATOM     36  C   UNL A   1      47.646 -22.930 -41.281  0.00  0.00    -0.061 A 
ATOM     37  C   UNL A   1      47.634 -21.796 -40.469  0.00  0.00    -0.051 A 
ATOM     38  C   UNL A   1      46.740 -20.720 -40.711  0.00  0.00    +0.021 A 
ATOM     39  C   UNL A   1      43.871 -17.740 -41.777  0.00  0.00    -0.010 C 
ATOM     40  C   UNL A   1      44.133 -16.338 -41.240  0.00  0.00    -0.047 C 
ATOM     41  C   UNL A   1      44.425 -16.402 -39.748  0.00  0.00    -0.049 C 
ATOM     42  C   UNL A   1      45.682 -17.230 -39.484  0.00  0.00    -0.024 C 
ENDBRANCH  27  29
ENDBRANCH  26  27
ENDBRANCH  25  26
ENDBRANCH  24  25
ENDBRANCH   2  24
TORSDOF 11
ENDMDL
MODEL 12
REMARK VINA RESULT:    -7.151     17.613     20.814
REMARK INTER + INTRA:         -13.904
REMARK INTER:                 -11.327
REMARK INTRA:                  -2.577
REMARK UNBOUND:                -2.155
REMARK  Name = cpd157.pdb
REMARK  11 active torsions:
REMARK  status: ('A' for Active; 'I' for Inactive)
REMARK    1  A    between atoms: C_2  and  C_3
REMARK    2  A    between atoms: C_3  and  S_4
REMARK    3  A    between atoms: S_4  and  C_5
REMARK    4  A    between atoms: C_5  and  C_6
REMARK    5  A    between atoms: C_6  and  N_7
REMARK    6  A    between atoms: C_6  and  C_28
REMARK    7  A    between atoms: C_8  and  C_10
REMARK    8  A    between atoms: C_10  and  C_11
REMARK    9  A    between atoms: C_11  and  C_12
REMARK   10  A    between atoms: C_12  and  N_13
REMARK   11  A    between atoms: N_13  and  C_14
REMARK                            x       y       z     vdW  Elec       q    Type
REMARK                         _______ _______ _______ _____ _____    ______ ____
ROOT
ATOM      1  N   UNL A   1      39.999 -20.234 -36.166  0.00  0.00    -0.303 N 
ATOM      2  C   UNL A   1      39.740 -20.267 -37.513  0.00  0.00    +0.214 C 
ATOM      3  O   UNL A   1      39.320 -19.299 -38.138  0.00  0.00    -0.276 OA
ATOM      4  H   UNL A   1      40.244 -21.066 -35.701  0.00  0.00    +0.000 HD
ENDROOT
BRANCH   1   5
ATOM      5  C   UNL A   1      39.918 -18.988 -35.407  0.00  0.00    +0.109 C 
BRANCH   5   6
ATOM      6  C   UNL A   1      41.317 -18.698 -34.829  0.00  0.00    +0.240 C 
ATOM      7  O   UNL A   1      41.435 -18.137 -33.741  0.00  0.00    -0.273 OA
ATOM      8  N   UNL A   1      42.333 -19.063 -35.686  0.00  0.00    -0.263 N 
ATOM      9  C   UNL A   1      43.679 -18.875 -35.506  0.00  0.00    +0.165 A 
ATOM     10  N   UNL A   1      44.532 -19.321 -36.395  0.00  0.00    -0.225 NA
ATOM     11  C   UNL A   1      45.823 -19.001 -36.002  0.00  0.00    +0.080 A 
ATOM     12  C   UNL A   1      47.004 -19.319 -36.702  0.00  0.00    -0.035 A 
ATOM     13  C   UNL A   1      48.245 -18.928 -36.184  0.00  0.00    -0.060 A 
ATOM     14  C   UNL A   1      48.318 -18.230 -34.983  0.00  0.00    -0.061 A 
ATOM     15  C   UNL A   1      47.161 -17.903 -34.270  0.00  0.00    -0.046 A 
ATOM     16  C   UNL A   1      45.922 -18.299 -34.799  0.00  0.00    +0.041 A 
ATOM     17  S   UNL A   1      44.338 -18.052 -34.174  0.00  0.00    -0.052 S 
ATOM     18  H   UNL A   1      42.062 -19.509 -36.520  0.00  0.00    +0.000 HD
ENDBRANCH   5   6
BRANCH   5  19
ATOM     19  C   UNL A   1      38.923 -19.078 -34.240  0.00  0.00    +0.021 C 
BRANCH  19  20
ATOM     20  S   UNL A   1      38.474 -20.776 -33.720  0.00  0.00    -0.154 S 
BRANCH  20  21
ATOM     21  C   UNL A   1      39.837 -21.130 -32.571  0.00  0.00    +0.012 C 
BRANCH  21  23
ATOM     22  C   UNL A   1      40.714 -23.484 -32.613  0.00  0.00    -0.102 C 
ATOM     23  C   UNL A   1      40.660 -22.249 -33.130  0.00  0.00    -0.081 C 
ENDBRANCH  21  23
ENDBRANCH  20  21
ENDBRANCH  19  20
ENDBRANCH   5  19
ENDBRANCH   1   5
BRANCH   2  24
ATOM     24  C   UNL A   1      40.023 -21.596 -38.177  0.00  0.00    +0.025 C 
BRANCH  24  25
ATOM     25  C   UNL A   1      41.476 -22.026 -37.998  0.00  0.00    -0.029 C 
BRANCH  25  26
ATOM     26  C   UNL A   1      42.329 -21.600 -39.192  0.00  0.00    +0.010 C 
BRANCH  26  27
ATOM     27  N   UNL A   1      43.553 -20.959 -38.693  0.00  0.00    -0.343 N 
ATOM     28  H   UNL A   1      43.893 -21.055 -37.775  0.00  0.00    +0.000 HD
BRANCH  27  29
ATOM     29  C   UNL A   1      44.186 -20.178 -39.707  0.00  0.00    +0.041 A 
ATOM     30  C   UNL A   1      45.340 -20.694 -40.331  0.00  0.00    -0.005 A 
ATOM     31  C   UNL A   1      45.966 -19.902 -41.293  0.00  0.00    +0.047 A 
ATOM     32  N   UNL A   1      45.543 -18.656 -41.615  0.00  0.00    -0.251 NA
ATOM     33  C   UNL A   1      44.457 -18.159 -41.008  0.00  0.00    +0.073 A 
ATOM     34  C   UNL A   1      44.045 -16.882 -41.365  0.00  0.00    -0.036 A 
ATOM     35  C   UNL A   1      42.927 -16.276 -40.788  0.00  0.00    -0.060 A 
ATOM     36  C   UNL A   1      42.199 -16.959 -39.827  0.00  0.00    -0.061 A 
ATOM     37  C   UNL A   1      42.594 -18.244 -39.453  0.00  0.00    -0.051 A 
ATOM     38  C   UNL A   1      43.727 -18.870 -40.035  0.00  0.00    +0.021 A 
ATOM     39  C   UNL A   1      47.208 -20.360 -42.013  0.00  0.00    -0.010 C 
ATOM     40  C   UNL A   1      47.392 -21.873 -41.993  0.00  0.00    -0.047 C 
ATOM     41  C   UNL A   1      47.222 -22.395 -40.573  0.00  0.00    -0.049 C 
ATOM     42  C   UNL A   1      45.812 -22.105 -40.061  0.00  0.00    -0.024 C 
ENDBRANCH  27  29
ENDBRANCH  26  27
ENDBRANCH  25  26
ENDBRANCH  24  25
ENDBRANCH   2  24
TORSDOF 11
ENDMDL
MODEL 13
REMARK VINA RESULT:    -7.114     18.211     21.743
REMARK INTER + INTRA:         -13.844
REMARK INTER:                 -11.486
REMARK INTRA:                  -2.357
REMARK UNBOUND:                -2.155
REMARK  Name = cpd157.pdb
REMARK  11 active torsions:
REMARK  status: ('A' for Active; 'I' for Inactive)
REMARK    1  A    between atoms: C_2  and  C_3
REMARK    2  A    between atoms: C_3  and  S_4
REMARK    3  A    between atoms: S_4  and  C_5
REMARK    4  A    between atoms: C_5  and  C_6
REMARK    5  A    between atoms: C_6  and  N_7
REMARK    6  A    between atoms: C_6  and  C_28
REMARK    7  A    between atoms: C_8  and  C_10
REMARK    8  A    between atoms: C_10  and  C_11
REMARK    9  A    between atoms: C_11  and  C_12
REMARK   10  A    between atoms: C_12  and  N_13
REMARK   11  A    between atoms: N_13  and  C_14
REMARK                            x       y       z     vdW  Elec       q    Type
REMARK                         _______ _______ _______ _____ _____    ______ ____
ROOT
ATOM      1  N   UNL A   1      46.260 -19.826 -37.083  0.00  0.00    -0.303 N 
ATOM      2  C   UNL A   1      46.836 -19.052 -36.107  0.00  0.00    +0.214 C 
ATOM      3  O   UNL A   1      47.915 -18.487 -36.251  0.00  0.00    -0.276 OA
ATOM      4  H   UNL A   1      45.440 -20.330 -36.877  0.00  0.00    +0.000 HD
ENDROOT
BRANCH   1   5
ATOM      5  C   UNL A   1      46.838 -19.916 -38.421  0.00  0.00    +0.109 C 
BRANCH   5   6
ATOM      6  C   UNL A   1      46.318 -18.718 -39.239  0.00  0.00    +0.240 C 
ATOM      7  O   UNL A   1      47.097 -18.032 -39.900  0.00  0.00    -0.273 OA
ATOM      8  N   UNL A   1      44.968 -18.502 -39.067  0.00  0.00    -0.263 N 
ATOM      9  C   UNL A   1      44.217 -17.481 -39.591  0.00  0.00    +0.165 A 
ATOM     10  N   UNL A   1      42.925 -17.434 -39.374  0.00  0.00    -0.225 NA
ATOM     11  C   UNL A   1      42.390 -16.313 -39.991  0.00  0.00    +0.080 A 
ATOM     12  C   UNL A   1      41.035 -15.930 -39.982  0.00  0.00    -0.035 A 
ATOM     13  C   UNL A   1      40.637 -14.765 -40.648  0.00  0.00    -0.060 A 
ATOM     14  C   UNL A   1      41.572 -13.985 -41.321  0.00  0.00    -0.061 A 
ATOM     15  C   UNL A   1      42.923 -14.343 -41.345  0.00  0.00    -0.046 A 
ATOM     16  C   UNL A   1      43.310 -15.513 -40.672  0.00  0.00    +0.041 A 
ATOM     17  S   UNL A   1      44.873 -16.216 -40.515  0.00  0.00    -0.052 S 
ATOM     18  H   UNL A   1      44.489 -19.152 -38.505  0.00  0.00    +0.000 HD
ENDBRANCH   5   6
BRANCH   5  19
ATOM     19  C   UNL A   1      46.434 -21.208 -39.147  0.00  0.00    +0.021 C 
BRANCH  19  20
ATOM     20  S   UNL A   1      47.418 -21.611 -40.639  0.00  0.00    -0.154 S 
BRANCH  20  21
ATOM     21  C   UNL A   1      46.097 -22.184 -41.747  0.00  0.00    +0.012 C 
BRANCH  21  23
ATOM     22  C   UNL A   1      44.839 -20.132 -42.468  0.00  0.00    -0.102 C 
ATOM     23  C   UNL A   1      44.960 -21.212 -41.684  0.00  0.00    -0.081 C 
ENDBRANCH  21  23
ENDBRANCH  20  21
ENDBRANCH  19  20
ENDBRANCH   5  19
ENDBRANCH   1   5
BRANCH   2  24
ATOM     24  C   UNL A   1      46.029 -18.940 -34.831  0.00  0.00    +0.025 C 
BRANCH  24  25
ATOM     25  C   UNL A   1      45.192 -20.190 -34.575  0.00  0.00    -0.029 C 
BRANCH  25  26
ATOM     26  C   UNL A   1      43.710 -19.845 -34.445  0.00  0.00    +0.010 C 
BRANCH  26  27
ATOM     27  N   UNL A   1      42.931 -21.090 -34.467  0.00  0.00    -0.343 N 
ATOM     28  H   UNL A   1      43.221 -21.932 -34.049  0.00  0.00    +0.000 HD
BRANCH  27  29
ATOM     29  C   UNL A   1      41.699 -20.925 -35.171  0.00  0.00    +0.041 A 
ATOM     30  C   UNL A   1      40.504 -20.854 -34.428  0.00  0.00    -0.005 A 
ATOM     31  C   UNL A   1      39.308 -20.730 -35.135  0.00  0.00    +0.047 A 
ATOM     32  N   UNL A   1      39.245 -20.722 -36.488  0.00  0.00    -0.251 NA
ATOM     33  C   UNL A   1      40.381 -20.807 -37.194  0.00  0.00    +0.073 A 
ATOM     34  C   UNL A   1      40.284 -20.789 -38.579  0.00  0.00    -0.036 A 
ATOM     35  C   UNL A   1      41.409 -20.876 -39.402  0.00  0.00    -0.060 A 
ATOM     36  C   UNL A   1      42.666 -20.986 -38.830  0.00  0.00    -0.061 A 
ATOM     37  C   UNL A   1      42.788 -21.006 -37.441  0.00  0.00    -0.051 A 
ATOM     38  C   UNL A   1      41.651 -20.916 -36.595  0.00  0.00    +0.021 A 
ATOM     39  C   UNL A   1      37.976 -20.652 -34.434  0.00  0.00    -0.010 C 
ATOM     40  C   UNL A   1      38.086 -20.205 -32.981  0.00  0.00    -0.047 C 
ATOM     41  C   UNL A   1      39.158 -21.019 -32.270  0.00  0.00    -0.049 C 
ATOM     42  C   UNL A   1      40.523 -20.787 -32.919  0.00  0.00    -0.024 C 
ENDBRANCH  27  29
ENDBRANCH  26  27
ENDBRANCH  25  26
ENDBRANCH  24  25
ENDBRANCH   2  24
TORSDOF 11
ENDMDL
MODEL 14
REMARK VINA RESULT:    -7.055     17.990     20.942
REMARK INTER + INTRA:         -13.748
REMARK INTER:                 -11.258
REMARK INTRA:                  -2.490
REMARK UNBOUND:                -2.155
REMARK  Name = cpd157.pdb
REMARK  11 active torsions:
REMARK  status: ('A' for Active; 'I' for Inactive)
REMARK    1  A    between atoms: C_2  and  C_3
REMARK    2  A    between atoms: C_3  and  S_4
REMARK    3  A    between atoms: S_4  and  C_5
REMARK    4  A    between atoms: C_5  and  C_6
REMARK    5  A    between atoms: C_6  and  N_7
REMARK    6  A    between atoms: C_6  and  C_28
REMARK    7  A    between atoms: C_8  and  C_10
REMARK    8  A    between atoms: C_10  and  C_11
REMARK    9  A    between atoms: C_11  and  C_12
REMARK   10  A    between atoms: C_12  and  N_13
REMARK   11  A    between atoms: N_13  and  C_14
REMARK                            x       y       z     vdW  Elec       q    Type
REMARK                         _______ _______ _______ _____ _____    ______ ____
ROOT
ATOM      1  N   UNL A   1      43.851 -16.678 -38.303  0.00  0.00    -0.303 N 
ATOM      2  C   UNL A   1      42.709 -15.925 -38.414  0.00  0.00    +0.214 C 
ATOM      3  O   UNL A   1      42.608 -14.970 -39.178  0.00  0.00    -0.276 OA
ATOM      4  H   UNL A   1      43.905 -17.371 -37.606  0.00  0.00    +0.000 HD
ENDROOT
BRANCH   1   5
ATOM      5  C   UNL A   1      44.987 -16.471 -39.196  0.00  0.00    +0.109 C 
BRANCH   5   6
ATOM      6  C   UNL A   1      45.029 -17.654 -40.184  0.00  0.00    +0.240 C 
ATOM      7  O   UNL A   1      44.188 -17.749 -41.075  0.00  0.00    -0.273 OA
ATOM      8  N   UNL A   1      46.026 -18.559 -39.889  0.00  0.00    -0.263 N 
ATOM      9  C   UNL A   1      46.283 -19.748 -40.523  0.00  0.00    +0.165 A 
ATOM     10  N   UNL A   1      47.303 -20.484 -40.154  0.00  0.00    -0.225 NA
ATOM     11  C   UNL A   1      47.349 -21.634 -40.928  0.00  0.00    +0.080 A 
ATOM     12  C   UNL A   1      48.306 -22.663 -40.826  0.00  0.00    -0.035 A 
ATOM     13  C   UNL A   1      48.227 -23.772 -41.676  0.00  0.00    -0.060 A 
ATOM     14  C   UNL A   1      47.210 -23.865 -42.620  0.00  0.00    -0.061 A 
ATOM     15  C   UNL A   1      46.248 -22.857 -42.741  0.00  0.00    -0.046 A 
ATOM     16  C   UNL A   1      46.337 -21.749 -41.883  0.00  0.00    +0.041 A 
ATOM     17  S   UNL A   1      45.323 -20.363 -41.780  0.00  0.00    -0.052 S 
ATOM     18  H   UNL A   1      46.620 -18.327 -39.139  0.00  0.00    +0.000 HD
ENDBRANCH   5   6
BRANCH   5  19
ATOM     19  C   UNL A   1      46.324 -16.425 -38.442  0.00  0.00    +0.021 C 
BRANCH  19  20
ATOM     20  S   UNL A   1      46.240 -15.766 -36.735  0.00  0.00    -0.154 S 
BRANCH  20  21
ATOM     21  C   UNL A   1      46.046 -17.314 -35.803  0.00  0.00    +0.012 C 
BRANCH  21  23
ATOM     22  C   UNL A   1      46.601 -19.678 -36.450  0.00  0.00    -0.102 C 
ATOM     23  C   UNL A   1      46.894 -18.370 -36.444  0.00  0.00    -0.081 C 
ENDBRANCH  21  23
ENDBRANCH  20  21
ENDBRANCH  19  20
ENDBRANCH   5  19
ENDBRANCH   1   5
BRANCH   2  24
ATOM     24  C   UNL A   1      41.570 -16.369 -37.522  0.00  0.00    +0.025 C 
BRANCH  24  25
ATOM     25  C   UNL A   1      42.023 -16.573 -36.079  0.00  0.00    -0.029 C 
BRANCH  25  26
ATOM     26  C   UNL A   1      41.480 -17.882 -35.509  0.00  0.00    +0.010 C 
BRANCH  26  27
ATOM     27  N   UNL A   1      42.539 -18.898 -35.569  0.00  0.00    -0.343 N 
ATOM     28  H   UNL A   1      43.497 -18.706 -35.456  0.00  0.00    +0.000 HD
BRANCH  27  29
ATOM     29  C   UNL A   1      42.003 -20.200 -35.812  0.00  0.00    +0.041 A 
ATOM     30  C   UNL A   1      41.941 -20.664 -37.141  0.00  0.00    -0.005 A 
ATOM     31  C   UNL A   1      41.381 -21.923 -37.362  0.00  0.00    +0.047 A 
ATOM     32  N   UNL A   1      40.860 -22.685 -36.372  0.00  0.00    -0.251 NA
ATOM     33  C   UNL A   1      40.904 -22.235 -35.111  0.00  0.00    +0.073 A 
ATOM     34  C   UNL A   1      40.367 -23.043 -34.117  0.00  0.00    -0.036 A 
ATOM     35  C   UNL A   1      40.362 -22.661 -32.774  0.00  0.00    -0.060 A 
ATOM     36  C   UNL A   1      40.904 -21.439 -32.409  0.00  0.00    -0.061 A 
ATOM     37  C   UNL A   1      41.448 -20.610 -33.390  0.00  0.00    -0.051 A 
ATOM     38  C   UNL A   1      41.461 -20.990 -34.758  0.00  0.00    +0.021 A 
ATOM     39  C   UNL A   1      41.264 -22.507 -38.747  0.00  0.00    -0.010 C 
ATOM     40  C   UNL A   1      42.232 -21.885 -39.746  0.00  0.00    -0.047 C 
ATOM     41  C   UNL A   1      42.156 -20.367 -39.663  0.00  0.00    -0.049 C 
ATOM     42  C   UNL A   1      42.571 -19.886 -38.273  0.00  0.00    -0.024 C 
ENDBRANCH  27  29
ENDBRANCH  26  27
ENDBRANCH  25  26
ENDBRANCH  24  25
ENDBRANCH   2  24
TORSDOF 11
ENDMDL
MODEL 15
REMARK VINA RESULT:    -6.897     18.324     21.551
REMARK INTER + INTRA:         -13.488
REMARK INTER:                 -11.799
REMARK INTRA:                  -1.689
REMARK UNBOUND:                -2.155
REMARK  Name = cpd157.pdb
REMARK  11 active torsions:
REMARK  status: ('A' for Active; 'I' for Inactive)
REMARK    1  A    between atoms: C_2  and  C_3
REMARK    2  A    between atoms: C_3  and  S_4
REMARK    3  A    between atoms: S_4  and  C_5
REMARK    4  A    between atoms: C_5  and  C_6
REMARK    5  A    between atoms: C_6  and  N_7
REMARK    6  A    between atoms: C_6  and  C_28
REMARK    7  A    between atoms: C_8  and  C_10
REMARK    8  A    between atoms: C_10  and  C_11
REMARK    9  A    between atoms: C_11  and  C_12
REMARK   10  A    between atoms: C_12  and  N_13
REMARK   11  A    between atoms: N_13  and  C_14
REMARK                            x       y       z     vdW  Elec       q    Type
REMARK                         _______ _______ _______ _____ _____    ______ ____
ROOT
ATOM      1  N   UNL A   1      46.061 -17.195 -36.377  0.00  0.00    -0.303 N 
ATOM      2  C   UNL A   1      44.905 -17.451 -35.684  0.00  0.00    +0.214 C 
ATOM      3  O   UNL A   1      43.830 -16.928 -35.958  0.00  0.00    -0.276 OA
ATOM      4  H   UNL A   1      46.911 -17.571 -36.054  0.00  0.00    +0.000 HD
ENDROOT
BRANCH   1   5
ATOM      5  C   UNL A   1      46.057 -16.376 -37.587  0.00  0.00    +0.109 C 
BRANCH   5   6
ATOM      6  C   UNL A   1      45.838 -17.315 -38.789  0.00  0.00    +0.240 C 
ATOM      7  O   UNL A   1      44.989 -17.048 -39.639  0.00  0.00    -0.273 OA
ATOM      8  N   UNL A   1      46.621 -18.447 -38.730  0.00  0.00    -0.263 N 
ATOM      9  C   UNL A   1      46.614 -19.509 -39.598  0.00  0.00    +0.165 A 
ATOM     10  N   UNL A   1      47.456 -20.500 -39.434  0.00  0.00    -0.225 NA
ATOM     11  C   UNL A   1      47.250 -21.452 -40.422  0.00  0.00    +0.080 A 
ATOM     12  C   UNL A   1      47.966 -22.656 -40.574  0.00  0.00    -0.035 A 
ATOM     13  C   UNL A   1      47.646 -23.527 -41.621  0.00  0.00    -0.060 A 
ATOM     14  C   UNL A   1      46.626 -23.212 -42.513  0.00  0.00    -0.061 A 
ATOM     15  C   UNL A   1      45.901 -22.024 -42.384  0.00  0.00    -0.046 A 
ATOM     16  C   UNL A   1      46.230 -21.157 -41.329  0.00  0.00    +0.041 A 
ATOM     17  S   UNL A   1      45.535 -19.642 -40.903  0.00  0.00    -0.052 S 
ATOM     18  H   UNL A   1      47.256 -18.501 -37.979  0.00  0.00    +0.000 HD
ENDBRANCH   5   6
BRANCH   5  19
ATOM     19  C   UNL A   1      47.383 -15.629 -37.792  0.00  0.00    +0.021 C 
BRANCH  19  20
ATOM     20  S   UNL A   1      47.591 -14.835 -39.430  0.00  0.00    -0.154 S 
BRANCH  20  21
ATOM     21  C   UNL A   1      48.060 -13.157 -38.914  0.00  0.00    +0.012 C 
BRANCH  21  23
ATOM     22  C   UNL A   1      50.452 -13.559 -39.573  0.00  0.00    -0.102 C 
ATOM     23  C   UNL A   1      49.541 -13.118 -38.694  0.00  0.00    -0.081 C 
ENDBRANCH  21  23
ENDBRANCH  20  21
ENDBRANCH  19  20
ENDBRANCH   5  19
ENDBRANCH   1   5
BRANCH   2  24
ATOM     24  C   UNL A   1      45.054 -18.443 -34.551  0.00  0.00    +0.025 C 
BRANCH  24  25
ATOM     25  C   UNL A   1      44.762 -19.872 -35.002  0.00  0.00    -0.029 C 
BRANCH  25  26
ATOM     26  C   UNL A   1      43.446 -20.378 -34.414  0.00  0.00    +0.010 C 
BRANCH  26  27
ATOM     27  N   UNL A   1      42.334 -19.686 -35.078  0.00  0.00    -0.343 N 
ATOM     28  H   UNL A   1      42.254 -18.707 -35.147  0.00  0.00    +0.000 HD
BRANCH  27  29
ATOM     29  C   UNL A   1      41.386 -20.610 -35.612  0.00  0.00    +0.041 A 
ATOM     30  C   UNL A   1      40.362 -21.086 -34.769  0.00  0.00    -0.005 A 
ATOM     31  C   UNL A   1      39.467 -22.015 -35.298  0.00  0.00    +0.047 A 
ATOM     32  N   UNL A   1      39.567 -22.507 -36.556  0.00  0.00    -0.251 NA
ATOM     33  C   UNL A   1      40.551 -22.067 -37.351  0.00  0.00    +0.073 A 
ATOM     34  C   UNL A   1      40.622 -22.585 -38.637  0.00  0.00    -0.036 A 
ATOM     35  C   UNL A   1      41.613 -22.192 -39.540  0.00  0.00    -0.060 A 
ATOM     36  C   UNL A   1      42.560 -21.258 -39.151  0.00  0.00    -0.061 A 
ATOM     37  C   UNL A   1      42.508 -20.724 -37.864  0.00  0.00    -0.051 A 
ATOM     38  C   UNL A   1      41.504 -21.115 -36.939  0.00  0.00    +0.021 A 
ATOM     39  C   UNL A   1      38.341 -22.590 -34.476  0.00  0.00    -0.010 C 
ATOM     40  C   UNL A   1      37.968 -21.723 -33.279  0.00  0.00    -0.047 C 
ATOM     41  C   UNL A   1      39.221 -21.343 -32.504  0.00  0.00    -0.049 C 
ATOM     42  C   UNL A   1      40.162 -20.519 -33.382  0.00  0.00    -0.024 C 
ENDBRANCH  27  29
ENDBRANCH  26  27
ENDBRANCH  25  26
ENDBRANCH  24  25
ENDBRANCH   2  24
TORSDOF 11
ENDMDL
MODEL 16
REMARK VINA RESULT:    -6.868     17.754     20.954
REMARK INTER + INTRA:         -13.440
REMARK INTER:                 -10.617
REMARK INTRA:                  -2.823
REMARK UNBOUND:                -2.155
REMARK  Name = cpd157.pdb
REMARK  11 active torsions:
REMARK  status: ('A' for Active; 'I' for Inactive)
REMARK    1  A    between atoms: C_2  and  C_3
REMARK    2  A    between atoms: C_3  and  S_4
REMARK    3  A    between atoms: S_4  and  C_5
REMARK    4  A    between atoms: C_5  and  C_6
REMARK    5  A    between atoms: C_6  and  N_7
REMARK    6  A    between atoms: C_6  and  C_28
REMARK    7  A    between atoms: C_8  and  C_10
REMARK    8  A    between atoms: C_10  and  C_11
REMARK    9  A    between atoms: C_11  and  C_12
REMARK   10  A    between atoms: C_12  and  N_13
REMARK   11  A    between atoms: N_13  and  C_14
REMARK                            x       y       z     vdW  Elec       q    Type
REMARK                         _______ _______ _______ _____ _____    ______ ____
ROOT
ATOM      1  N   UNL A   1      45.171 -18.507 -34.490  0.00  0.00    -0.303 N 
ATOM      2  C   UNL A   1      46.516 -18.778 -34.525  0.00  0.00    +0.214 C 
ATOM      3  O   UNL A   1      47.335 -18.198 -33.821  0.00  0.00    -0.276 OA
ATOM      4  H   UNL A   1      44.575 -18.937 -35.144  0.00  0.00    +0.000 HD
ENDROOT
BRANCH   1   5
ATOM      5  C   UNL A   1      44.607 -17.592 -33.501  0.00  0.00    +0.109 C 
BRANCH   5   6
ATOM      6  C   UNL A   1      43.161 -18.043 -33.216  0.00  0.00    +0.240 C 
ATOM      7  O   UNL A   1      42.437 -17.378 -32.476  0.00  0.00    -0.273 OA
ATOM      8  N   UNL A   1      42.854 -19.251 -33.804  0.00  0.00    -0.263 N 
ATOM      9  C   UNL A   1      41.686 -19.960 -33.686  0.00  0.00    +0.165 A 
ATOM     10  N   UNL A   1      41.524 -21.079 -34.348  0.00  0.00    -0.225 NA
ATOM     11  C   UNL A   1      40.278 -21.614 -34.059  0.00  0.00    +0.080 A 
ATOM     12  C   UNL A   1      39.747 -22.809 -34.584  0.00  0.00    -0.035 A 
ATOM     13  C   UNL A   1      38.469 -23.230 -34.199  0.00  0.00    -0.060 A 
ATOM     14  C   UNL A   1      37.720 -22.476 -33.301  0.00  0.00    -0.061 A 
ATOM     15  C   UNL A   1      38.224 -21.287 -32.766  0.00  0.00    -0.046 A 
ATOM     16  C   UNL A   1      39.507 -20.875 -33.159  0.00  0.00    +0.041 A 
ATOM     17  S   UNL A   1      40.399 -19.481 -32.687  0.00  0.00    -0.052 S 
ATOM     18  H   UNL A   1      43.551 -19.650 -34.373  0.00  0.00    +0.000 HD
ENDBRANCH   5   6
BRANCH   5  19
ATOM     19  C   UNL A   1      44.568 -16.140 -34.002  0.00  0.00    +0.021 C 
BRANCH  19  20
ATOM     20  S   UNL A   1      43.881 -15.908 -35.684  0.00  0.00    -0.154 S 
BRANCH  20  21
ATOM     21  C   UNL A   1      45.193 -14.892 -36.427  0.00  0.00    +0.012 C 
BRANCH  21  23
ATOM     22  C   UNL A   1      47.230 -16.253 -36.984  0.00  0.00    -0.102 C 
ATOM     23  C   UNL A   1      46.029 -15.760 -37.316  0.00  0.00    -0.081 C 
ENDBRANCH  21  23
ENDBRANCH  20  21
ENDBRANCH  19  20
ENDBRANCH   5  19
ENDBRANCH   1   5
BRANCH   2  24
ATOM     24  C   UNL A   1      46.915 -19.864 -35.501  0.00  0.00    +0.025 C 
BRANCH  24  25
ATOM     25  C   UNL A   1      45.793 -20.187 -36.484  0.00  0.00    -0.029 C 
BRANCH  25  26
ATOM     26  C   UNL A   1      46.353 -20.606 -37.843  0.00  0.00    +0.010 C 
BRANCH  26  27
ATOM     27  N   UNL A   1      45.243 -21.062 -38.690  0.00  0.00    -0.343 N 
ATOM     28  H   UNL A   1      45.136 -21.987 -39.011  0.00  0.00    +0.000 HD
BRANCH  27  29
ATOM     29  C   UNL A   1      44.341 -19.997 -38.991  0.00  0.00    +0.041 A 
ATOM     30  C   UNL A   1      42.980 -20.155 -38.661  0.00  0.00    -0.005 A 
ATOM     31  C   UNL A   1      42.108 -19.119 -38.995  0.00  0.00    +0.047 A 
ATOM     32  N   UNL A   1      42.501 -18.005 -39.657  0.00  0.00    -0.251 NA
ATOM     33  C   UNL A   1      43.792 -17.864 -39.986  0.00  0.00    +0.073 A 
ATOM     34  C   UNL A   1      44.165 -16.706 -40.656  0.00  0.00    -0.036 A 
ATOM     35  C   UNL A   1      45.485 -16.468 -41.045  0.00  0.00    -0.060 A 
ATOM     36  C   UNL A   1      46.462 -17.409 -40.760  0.00  0.00    -0.061 A 
ATOM     37  C   UNL A   1      46.111 -18.579 -40.086  0.00  0.00    -0.051 A 
ATOM     38  C   UNL A   1      44.772 -18.830 -39.685  0.00  0.00    +0.021 A 
ATOM     39  C   UNL A   1      40.634 -19.194 -38.691  0.00  0.00    -0.010 C 
ATOM     40  C   UNL A   1      40.298 -20.184 -37.582  0.00  0.00    -0.047 C 
ATOM     41  C   UNL A   1      40.982 -21.516 -37.854  0.00  0.00    -0.049 C 
ATOM     42  C   UNL A   1      42.501 -21.345 -37.862  0.00  0.00    -0.024 C 
ENDBRANCH  27  29
ENDBRANCH  26  27
ENDBRANCH  25  26
ENDBRANCH  24  25
ENDBRANCH   2  24
TORSDOF 11
ENDMDL
MODEL 17
REMARK VINA RESULT:    -6.856     17.693     20.687
REMARK INTER + INTRA:         -13.420
REMARK INTER:                 -11.102
REMARK INTRA:                  -2.319
REMARK UNBOUND:                -2.155
REMARK  Name = cpd157.pdb
REMARK  11 active torsions:
REMARK  status: ('A' for Active; 'I' for Inactive)
REMARK    1  A    between atoms: C_2  and  C_3
REMARK    2  A    between atoms: C_3  and  S_4
REMARK    3  A    between atoms: S_4  and  C_5
REMARK    4  A    between atoms: C_5  and  C_6
REMARK    5  A    between atoms: C_6  and  N_7
REMARK    6  A    between atoms: C_6  and  C_28
REMARK    7  A    between atoms: C_8  and  C_10
REMARK    8  A    between atoms: C_10  and  C_11
REMARK    9  A    between atoms: C_11  and  C_12
REMARK   10  A    between atoms: C_12  and  N_13
REMARK   11  A    between atoms: N_13  and  C_14
REMARK                            x       y       z     vdW  Elec       q    Type
REMARK                         _______ _______ _______ _____ _____    ______ ____
ROOT
ATOM      1  N   UNL A   1      44.675 -18.533 -39.733  0.00  0.00    -0.303 N 
ATOM      2  C   UNL A   1      44.285 -17.432 -40.453  0.00  0.00    +0.214 C 
ATOM      3  O   UNL A   1      44.138 -17.446 -41.670  0.00  0.00    -0.276 OA
ATOM      4  H   UNL A   1      44.867 -18.438 -38.772  0.00  0.00    +0.000 HD
ENDROOT
BRANCH   1   5
ATOM      5  C   UNL A   1      44.809 -19.845 -40.362  0.00  0.00    +0.109 C 
BRANCH   5   6
ATOM      6  C   UNL A   1      43.616 -20.709 -39.907  0.00  0.00    +0.240 C 
ATOM      7  O   UNL A   1      42.926 -21.300 -40.735  0.00  0.00    -0.273 OA
ATOM      8  N   UNL A   1      43.410 -20.656 -38.545  0.00  0.00    -0.263 N 
ATOM      9  C   UNL A   1      42.397 -21.247 -37.835  0.00  0.00    +0.165 A 
ATOM     10  N   UNL A   1      42.360 -21.143 -36.529  0.00  0.00    -0.225 NA
ATOM     11  C   UNL A   1      41.244 -21.808 -36.042  0.00  0.00    +0.080 A 
ATOM     12  C   UNL A   1      40.871 -21.918 -34.687  0.00  0.00    -0.035 A 
ATOM     13  C   UNL A   1      39.712 -22.621 -34.341  0.00  0.00    -0.060 A 
ATOM     14  C   UNL A   1      38.925 -23.211 -35.325  0.00  0.00    -0.061 A 
ATOM     15  C   UNL A   1      39.273 -23.116 -36.675  0.00  0.00    -0.046 A 
ATOM     16  C   UNL A   1      40.439 -22.408 -37.011  0.00  0.00    +0.041 A 
ATOM     17  S   UNL A   1      41.129 -22.113 -38.560  0.00  0.00    -0.052 S 
ATOM     18  H   UNL A   1      44.063 -20.136 -38.024  0.00  0.00    +0.000 HD
ENDBRANCH   5   6
BRANCH   5  19
ATOM     19  C   UNL A   1      46.106 -20.559 -39.955  0.00  0.00    +0.021 C 
BRANCH  19  20
ATOM     20  S   UNL A   1      47.331 -20.788 -41.297  0.00  0.00    -0.154 S 
BRANCH  20  21
ATOM     21  C   UNL A   1      48.179 -22.282 -40.704  0.00  0.00    +0.012 C 
BRANCH  21  23
ATOM     22  C   UNL A   1      48.042 -24.116 -42.417  0.00  0.00    -0.102 C 
ATOM     23  C   UNL A   1      47.549 -23.480 -41.346  0.00  0.00    -0.081 C 
ENDBRANCH  21  23
ENDBRANCH  20  21
ENDBRANCH  19  20
ENDBRANCH   5  19
ENDBRANCH   1   5
BRANCH   2  24
ATOM     24  C   UNL A   1      44.041 -16.190 -39.624  0.00  0.00    +0.025 C 
BRANCH  24  25
ATOM     25  C   UNL A   1      42.665 -16.207 -38.963  0.00  0.00    -0.029 C 
BRANCH  25  26
ATOM     26  C   UNL A   1      42.655 -17.108 -37.730  0.00  0.00    +0.010 C 
BRANCH  26  27
ATOM     27  N   UNL A   1      43.551 -16.532 -36.718  0.00  0.00    -0.343 N 
ATOM     28  H   UNL A   1      43.831 -15.589 -36.699  0.00  0.00    +0.000 HD
BRANCH  27  29
ATOM     29  C   UNL A   1      43.963 -17.512 -35.765  0.00  0.00    +0.041 A 
ATOM     30  C   UNL A   1      45.232 -18.106 -35.915  0.00  0.00    -0.005 A 
ATOM     31  C   UNL A   1      45.602 -19.087 -34.995  0.00  0.00    +0.047 A 
ATOM     32  N   UNL A   1      44.785 -19.519 -34.006  0.00  0.00    -0.251 NA
ATOM     33  C   UNL A   1      43.572 -18.967 -33.874  0.00  0.00    +0.073 A 
ATOM     34  C   UNL A   1      42.760 -19.427 -32.845  0.00  0.00    -0.036 A 
ATOM     35  C   UNL A   1      41.479 -18.917 -32.628  0.00  0.00    -0.060 A 
ATOM     36  C   UNL A   1      40.989 -17.922 -33.459  0.00  0.00    -0.061 A 
ATOM     37  C   UNL A   1      41.786 -17.444 -34.499  0.00  0.00    -0.051 A 
ATOM     38  C   UNL A   1      43.092 -17.954 -34.728  0.00  0.00    +0.021 A 
ATOM     39  C   UNL A   1      46.935 -19.786 -35.074  0.00  0.00    -0.010 C 
ATOM     40  C   UNL A   1      47.980 -19.001 -35.857  0.00  0.00    -0.047 C 
ATOM     41  C   UNL A   1      47.397 -18.546 -37.187  0.00  0.00    -0.049 C 
ATOM     42  C   UNL A   1      46.209 -17.612 -36.957  0.00  0.00    -0.024 C 
ENDBRANCH  27  29
ENDBRANCH  26  27
ENDBRANCH  25  26
ENDBRANCH  24  25
ENDBRANCH   2  24
TORSDOF 11
ENDMDL
MODEL 18
REMARK VINA RESULT:    -6.839     17.832     20.749
REMARK INTER + INTRA:         -13.391
REMARK INTER:                 -11.371
REMARK INTRA:                  -2.021
REMARK UNBOUND:                -2.155
REMARK  Name = cpd157.pdb
REMARK  11 active torsions:
REMARK  status: ('A' for Active; 'I' for Inactive)
REMARK    1  A    between atoms: C_2  and  C_3
REMARK    2  A    between atoms: C_3  and  S_4
REMARK    3  A    between atoms: S_4  and  C_5
REMARK    4  A    between atoms: C_5  and  C_6
REMARK    5  A    between atoms: C_6  and  N_7
REMARK    6  A    between atoms: C_6  and  C_28
REMARK    7  A    between atoms: C_8  and  C_10
REMARK    8  A    between atoms: C_10  and  C_11
REMARK    9  A    between atoms: C_11  and  C_12
REMARK   10  A    between atoms: C_12  and  N_13
REMARK   11  A    between atoms: N_13  and  C_14
REMARK                            x       y       z     vdW  Elec       q    Type
REMARK                         _______ _______ _______ _____ _____    ______ ____
ROOT
ATOM      1  N   UNL A   1      45.416 -17.713 -37.044  0.00  0.00    -0.303 N 
ATOM      2  C   UNL A   1      44.815 -17.485 -35.831  0.00  0.00    +0.214 C 
ATOM      3  O   UNL A   1      43.944 -16.638 -35.664  0.00  0.00    -0.276 OA
ATOM      4  H   UNL A   1      46.173 -18.338 -37.096  0.00  0.00    +0.000 HD
ENDROOT
BRANCH   1   5
ATOM      5  C   UNL A   1      44.954 -17.045 -38.258  0.00  0.00    +0.109 C 
BRANCH   5   6
ATOM      6  C   UNL A   1      45.017 -18.068 -39.409  0.00  0.00    +0.240 C 
ATOM      7  O   UNL A   1      44.174 -18.048 -40.304  0.00  0.00    -0.273 OA
ATOM      8  N   UNL A   1      46.034 -18.985 -39.251  0.00  0.00    -0.263 N 
ATOM      9  C   UNL A   1      46.314 -20.061 -40.054  0.00  0.00    +0.165 A 
ATOM     10  N   UNL A   1      47.350 -20.822 -39.798  0.00  0.00    -0.225 NA
ATOM     11  C   UNL A   1      47.418 -21.844 -40.734  0.00  0.00    +0.080 A 
ATOM     12  C   UNL A   1      48.397 -22.856 -40.785  0.00  0.00    -0.035 A 
ATOM     13  C   UNL A   1      48.338 -23.829 -41.790  0.00  0.00    -0.060 A 
ATOM     14  C   UNL A   1      47.319 -23.803 -42.737  0.00  0.00    -0.061 A 
ATOM     15  C   UNL A   1      46.336 -22.809 -42.707  0.00  0.00    -0.046 A 
ATOM     16  C   UNL A   1      46.405 -21.839 -41.695  0.00  0.00    +0.041 A 
ATOM     17  S   UNL A   1      45.362 -20.505 -41.388  0.00  0.00    -0.052 S 
ATOM     18  H   UNL A   1      46.625 -18.853 -38.476  0.00  0.00    +0.000 HD
ENDBRANCH   5   6
BRANCH   5  19
ATOM     19  C   UNL A   1      45.830 -15.841 -38.634  0.00  0.00    +0.021 C 
BRANCH  19  20
ATOM     20  S   UNL A   1      44.920 -14.345 -39.173  0.00  0.00    -0.154 S 
BRANCH  20  21
ATOM     21  C   UNL A   1      43.211 -14.893 -38.891  0.00  0.00    +0.012 C 
BRANCH  21  23
ATOM     22  C   UNL A   1      43.081 -14.733 -41.396  0.00  0.00    -0.102 C 
ATOM     23  C   UNL A   1      42.533 -15.058 -40.217  0.00  0.00    -0.081 C 
ENDBRANCH  21  23
ENDBRANCH  20  21
ENDBRANCH  19  20
ENDBRANCH   5  19
ENDBRANCH   1   5
BRANCH   2  24
ATOM     24  C   UNL A   1      45.307 -18.370 -34.707  0.00  0.00    +0.025 C 
BRANCH  24  25
ATOM     25  C   UNL A   1      44.842 -19.815 -34.874  0.00  0.00    -0.029 C 
BRANCH  25  26
ATOM     26  C   UNL A   1      43.502 -20.048 -34.179  0.00  0.00    +0.010 C 
BRANCH  26  27
ATOM     27  N   UNL A   1      42.436 -19.457 -34.998  0.00  0.00    -0.343 N 
ATOM     28  H   UNL A   1      42.382 -18.503 -35.232  0.00  0.00    +0.000 HD
BRANCH  27  29
ATOM     29  C   UNL A   1      41.488 -20.441 -35.413  0.00  0.00    +0.041 A 
ATOM     30  C   UNL A   1      41.525 -20.890 -36.748  0.00  0.00    -0.005 A 
ATOM     31  C   UNL A   1      40.568 -21.825 -37.145  0.00  0.00    +0.047 A 
ATOM     32  N   UNL A   1      39.590 -22.276 -36.324  0.00  0.00    -0.251 NA
ATOM     33  C   UNL A   1      39.544 -21.834 -35.061  0.00  0.00    +0.073 A 
ATOM     34  C   UNL A   1      38.533 -22.321 -34.242  0.00  0.00    -0.036 A 
ATOM     35  C   UNL A   1      38.400 -21.920 -32.911  0.00  0.00    -0.060 A 
ATOM     36  C   UNL A   1      39.296 -21.006 -32.380  0.00  0.00    -0.061 A 
ATOM     37  C   UNL A   1      40.320 -20.504 -33.183  0.00  0.00    -0.051 A 
ATOM     38  C   UNL A   1      40.466 -20.907 -34.536  0.00  0.00    +0.021 A 
ATOM     39  C   UNL A   1      40.520 -22.363 -38.552  0.00  0.00    -0.010 C 
ATOM     40  C   UNL A   1      41.842 -22.220 -39.296  0.00  0.00    -0.047 C 
ATOM     41  C   UNL A   1      42.365 -20.798 -39.153  0.00  0.00    -0.049 C 
ATOM     42  C   UNL A   1      42.637 -20.474 -37.684  0.00  0.00    -0.024 C 
ENDBRANCH  27  29
ENDBRANCH  26  27
ENDBRANCH  25  26
ENDBRANCH  24  25
ENDBRANCH   2  24
TORSDOF 11
ENDMDL
MODEL 19
REMARK VINA RESULT:    -6.791     16.644     19.960
REMARK INTER + INTRA:         -13.314
REMARK INTER:                 -11.558
REMARK INTRA:                  -1.755
REMARK UNBOUND:                -2.155
REMARK  Name = cpd157.pdb
REMARK  11 active torsions:
REMARK  status: ('A' for Active; 'I' for Inactive)
REMARK    1  A    between atoms: C_2  and  C_3
REMARK    2  A    between atoms: C_3  and  S_4
REMARK    3  A    between atoms: S_4  and  C_5
REMARK    4  A    between atoms: C_5  and  C_6
REMARK    5  A    between atoms: C_6  and  N_7
REMARK    6  A    between atoms: C_6  and  C_28
REMARK    7  A    between atoms: C_8  and  C_10
REMARK    8  A    between atoms: C_10  and  C_11
REMARK    9  A    between atoms: C_11  and  C_12
REMARK   10  A    between atoms: C_12  and  N_13
REMARK   11  A    between atoms: N_13  and  C_14
REMARK                            x       y       z     vdW  Elec       q    Type
REMARK                         _______ _______ _______ _____ _____    ______ ____
ROOT
ATOM      1  N   UNL A   1      43.517 -18.738 -34.845  0.00  0.00    -0.303 N 
ATOM      2  C   UNL A   1      42.222 -18.793 -34.392  0.00  0.00    +0.214 C 
ATOM      3  O   UNL A   1      41.273 -18.339 -35.023  0.00  0.00    -0.276 OA
ATOM      4  H   UNL A   1      44.247 -19.034 -34.254  0.00  0.00    +0.000 HD
ENDROOT
BRANCH   1   5
ATOM      5  C   UNL A   1      43.834 -18.250 -36.184  0.00  0.00    +0.109 C 
BRANCH   5   6
ATOM      6  C   UNL A   1      44.767 -19.280 -36.851  0.00  0.00    +0.240 C 
ATOM      7  O   UNL A   1      45.771 -19.680 -36.264  0.00  0.00    -0.273 OA
ATOM      8  N   UNL A   1      44.378 -19.598 -38.134  0.00  0.00    -0.263 N 
ATOM      9  C   UNL A   1      45.028 -20.419 -39.020  0.00  0.00    +0.165 A 
ATOM     10  N   UNL A   1      44.507 -20.663 -40.197  0.00  0.00    -0.225 NA
ATOM     11  C   UNL A   1      45.347 -21.504 -40.912  0.00  0.00    +0.080 A 
ATOM     12  C   UNL A   1      45.121 -21.988 -42.216  0.00  0.00    -0.035 A 
ATOM     13  C   UNL A   1      46.062 -22.831 -42.817  0.00  0.00    -0.060 A 
ATOM     14  C   UNL A   1      47.218 -23.195 -42.135  0.00  0.00    -0.061 A 
ATOM     15  C   UNL A   1      47.466 -22.729 -40.841  0.00  0.00    -0.046 A 
ATOM     16  C   UNL A   1      46.515 -21.882 -40.248  0.00  0.00    +0.041 A 
ATOM     17  S   UNL A   1      46.526 -21.148 -38.692  0.00  0.00    -0.052 S 
ATOM     18  H   UNL A   1      43.541 -19.189 -38.452  0.00  0.00    +0.000 HD
ENDBRANCH   5   6
BRANCH   5  19
ATOM     19  C   UNL A   1      44.554 -16.893 -36.157  0.00  0.00    +0.021 C 
BRANCH  19  20
ATOM     20  S   UNL A   1      43.484 -15.444 -35.821  0.00  0.00    -0.154 S 
BRANCH  20  21
ATOM     21  C   UNL A   1      44.331 -14.753 -34.369  0.00  0.00    +0.012 C 
BRANCH  21  23
ATOM     22  C   UNL A   1      44.390 -15.377 -31.936  0.00  0.00    -0.102 C 
ATOM     23  C   UNL A   1      44.153 -15.692 -33.216  0.00  0.00    -0.081 C 
ENDBRANCH  21  23
ENDBRANCH  20  21
ENDBRANCH  19  20
ENDBRANCH   5  19
ENDBRANCH   1   5
BRANCH   2  24
ATOM     24  C   UNL A   1      42.051 -19.470 -33.050  0.00  0.00    +0.025 C 
BRANCH  24  25
ATOM     25  C   UNL A   1      42.134 -20.990 -33.162  0.00  0.00    -0.029 C 
BRANCH  25  26
ATOM     26  C   UNL A   1      40.863 -21.653 -32.634  0.00  0.00    +0.010 C 
BRANCH  26  27
ATOM     27  N   UNL A   1      40.271 -22.462 -33.708  0.00  0.00    -0.343 N 
ATOM     28  H   UNL A   1      40.335 -23.443 -33.761  0.00  0.00    +0.000 HD
BRANCH  27  29
ATOM     29  C   UNL A   1      39.593 -21.648 -34.665  0.00  0.00    +0.041 A 
ATOM     30  C   UNL A   1      38.403 -21.002 -34.275  0.00  0.00    -0.005 A 
ATOM     31  C   UNL A   1      37.735 -20.240 -35.235  0.00  0.00    +0.047 A 
ATOM     32  N   UNL A   1      38.152 -20.136 -36.519  0.00  0.00    -0.251 NA
ATOM     33  C   UNL A   1      39.274 -20.765 -36.892  0.00  0.00    +0.073 A 
ATOM     34  C   UNL A   1      39.680 -20.632 -38.214  0.00  0.00    -0.036 A 
ATOM     35  C   UNL A   1      40.833 -21.252 -38.701  0.00  0.00    -0.060 A 
ATOM     36  C   UNL A   1      41.604 -22.027 -37.849  0.00  0.00    -0.061 A 
ATOM     37  C   UNL A   1      41.216 -22.174 -36.518  0.00  0.00    -0.051 A 
ATOM     38  C   UNL A   1      40.047 -21.547 -36.011  0.00  0.00    +0.021 A 
ATOM     39  C   UNL A   1      36.452 -19.515 -34.919  0.00  0.00    -0.010 C 
ATOM     40  C   UNL A   1      36.254 -19.261 -33.430  0.00  0.00    -0.047 C 
ATOM     41  C   UNL A   1      36.493 -20.546 -32.650  0.00  0.00    -0.049 C 
ATOM     42  C   UNL A   1      37.932 -21.027 -32.840  0.00  0.00    -0.024 C 
ENDBRANCH  27  29
ENDBRANCH  26  27
ENDBRANCH  25  26
ENDBRANCH  24  25
ENDBRANCH   2  24
TORSDOF 11
ENDMDL
MODEL 20
REMARK VINA RESULT:    -6.437     16.911     20.311
REMARK INTER + INTRA:         -12.732
REMARK INTER:                  -9.128
REMARK INTRA:                  -3.603
REMARK UNBOUND:                -2.155
REMARK  Name = cpd157.pdb
REMARK  11 active torsions:
REMARK  status: ('A' for Active; 'I' for Inactive)
REMARK    1  A    between atoms: C_2  and  C_3
REMARK    2  A    between atoms: C_3  and  S_4
REMARK    3  A    between atoms: S_4  and  C_5
REMARK    4  A    between atoms: C_5  and  C_6
REMARK    5  A    between atoms: C_6  and  N_7
REMARK    6  A    between atoms: C_6  and  C_28
REMARK    7  A    between atoms: C_8  and  C_10
REMARK    8  A    between atoms: C_10  and  C_11
REMARK    9  A    between atoms: C_11  and  C_12
REMARK   10  A    between atoms: C_12  and  N_13
REMARK   11  A    between atoms: N_13  and  C_14
REMARK                            x       y       z     vdW  Elec       q    Type
REMARK                         _______ _______ _______ _____ _____    ______ ____
ROOT
ATOM      1  N   UNL A   1      44.292 -17.653 -37.653  0.00  0.00    -0.303 N 
ATOM      2  C   UNL A   1      44.824 -17.446 -36.405  0.00  0.00    +0.214 C 
ATOM      3  O   UNL A   1      44.582 -16.451 -35.731  0.00  0.00    -0.276 OA
ATOM      4  H   UNL A   1      44.596 -18.422 -38.185  0.00  0.00    +0.000 HD
ENDROOT
BRANCH   1   5
ATOM      5  C   UNL A   1      43.284 -16.753 -38.208  0.00  0.00    +0.109 C 
BRANCH   5   6
ATOM      6  C   UNL A   1      41.898 -17.356 -37.902  0.00  0.00    +0.240 C 
ATOM      7  O   UNL A   1      41.192 -17.783 -38.814  0.00  0.00    -0.273 OA
ATOM      8  N   UNL A   1      41.565 -17.275 -36.567  0.00  0.00    -0.263 N 
ATOM      9  C   UNL A   1      40.383 -17.650 -35.982  0.00  0.00    +0.165 A 
ATOM     10  N   UNL A   1      40.231 -17.555 -34.684  0.00  0.00    -0.225 NA
ATOM     11  C   UNL A   1      38.958 -17.978 -34.333  0.00  0.00    +0.080 A 
ATOM     12  C   UNL A   1      38.430 -18.023 -33.028  0.00  0.00    -0.035 A 
ATOM     13  C   UNL A   1      37.121 -18.473 -32.822  0.00  0.00    -0.060 A 
ATOM     14  C   UNL A   1      36.338 -18.877 -33.899  0.00  0.00    -0.061 A 
ATOM     15  C   UNL A   1      36.838 -18.843 -35.203  0.00  0.00    -0.046 A 
ATOM     16  C   UNL A   1      38.153 -18.389 -35.398  0.00  0.00    +0.041 A 
ATOM     17  S   UNL A   1      39.048 -18.227 -36.858  0.00  0.00    -0.052 S 
ATOM     18  H   UNL A   1      42.252 -16.907 -35.967  0.00  0.00    +0.000 HD
ENDBRANCH   5   6
BRANCH   5  19
ATOM     19  C   UNL A   1      43.415 -16.594 -39.730  0.00  0.00    +0.021 C 
BRANCH  19  20
ATOM     20  S   UNL A   1      44.982 -17.212 -40.451  0.00  0.00    -0.154 S 
BRANCH  20  21
ATOM     21  C   UNL A   1      44.338 -18.510 -41.547  0.00  0.00    +0.012 C 
BRANCH  21  23
ATOM     22  C   UNL A   1      46.453 -19.703 -40.900  0.00  0.00    -0.102 C 
ATOM     23  C   UNL A   1      45.377 -19.580 -41.690  0.00  0.00    -0.081 C 
ENDBRANCH  21  23
ENDBRANCH  20  21
ENDBRANCH  19  20
ENDBRANCH   5  19
ENDBRANCH   1   5
BRANCH   2  24
ATOM     24  C   UNL A   1      45.734 -18.552 -35.916  0.00  0.00    +0.025 C 
BRANCH  24  25
ATOM     25  C   UNL A   1      45.172 -19.247 -34.678  0.00  0.00    -0.029 C 
BRANCH  25  26
ATOM     26  C   UNL A   1      43.669 -19.487 -34.814  0.00  0.00    +0.010 C 
BRANCH  26  27
ATOM     27  N   UNL A   1      43.437 -20.922 -35.021  0.00  0.00    -0.343 N 
ATOM     28  H   UNL A   1      44.085 -21.626 -34.792  0.00  0.00    +0.000 HD
BRANCH  27  29
ATOM     29  C   UNL A   1      42.153 -21.168 -35.595  0.00  0.00    +0.041 A 
ATOM     30  C   UNL A   1      41.080 -21.480 -34.735  0.00  0.00    -0.005 A 
ATOM     31  C   UNL A   1      39.842 -21.753 -35.317  0.00  0.00    +0.047 A 
ATOM     32  N   UNL A   1      39.642 -21.776 -36.656  0.00  0.00    -0.251 NA
ATOM     33  C   UNL A   1      40.667 -21.497 -37.473  0.00  0.00    +0.073 A 
ATOM     34  C   UNL A   1      40.428 -21.522 -38.841  0.00  0.00    -0.036 A 
ATOM     35  C   UNL A   1      41.432 -21.249 -39.773  0.00  0.00    -0.060 A 
ATOM     36  C   UNL A   1      42.709 -20.944 -39.332  0.00  0.00    -0.061 A 
ATOM     37  C   UNL A   1      42.972 -20.912 -37.962  0.00  0.00    -0.051 A 
ATOM     38  C   UNL A   1      41.959 -21.186 -37.006  0.00  0.00    +0.021 A 
ATOM     39  C   UNL A   1      38.634 -22.102 -34.485  0.00  0.00    -0.010 C 
ATOM     40  C   UNL A   1      38.743 -21.632 -33.040  0.00  0.00    -0.047 C 
ATOM     41  C   UNL A   1      40.086 -22.051 -32.459  0.00  0.00    -0.049 C 
ATOM     42  C   UNL A   1      41.230 -21.398 -33.234  0.00  0.00    -0.024 C 
ENDBRANCH  27  29
ENDBRANCH  26  27
ENDBRANCH  25  26
ENDBRANCH  24  25
ENDBRANCH   2  24
TORSDOF 11
ENDMDL
