REMARK  Name = cpd157.pdb
REMARK  11 active torsions:
REMARK  status: ('A' for Active; 'I' for Inactive)
REMARK    1  A    between atoms: C_2  and  C_3
REMARK    2  A    between atoms: C_3  and  S_4
REMARK    3  A    between atoms: S_4  and  C_5
REMARK    4  A    between atoms: C_5  and  C_6
REMARK    5  A    between atoms: C_6  and  N_7
REMARK    6  A    between atoms: C_6  and  C_28
REMARK    7  A    between atoms: C_8  and  C_10
REMARK    8  A    between atoms: C_10  and  C_11
REMARK    9  A    between atoms: C_11  and  C_12
REMARK   10  A    between atoms: C_12  and  N_13
REMARK   11  A    between atoms: N_13  and  C_14
REMARK                            x       y       z     vdW  Elec       q    Type
REMARK                         _______ _______ _______ _____ _____    ______ ____
ROOT
ATOM      1  N   UNL A   1      -3.421  -1.787   0.076  0.00  0.00    -0.303 N 
ATOM      2  C   UNL A   1      -4.057  -2.023   1.269  0.00  0.00    +0.214 C 
ATOM      3  O   UNL A   1      -3.624  -2.796   2.117  0.00  0.00    -0.276 OA
ATOM      4  H   UNL A   1      -3.863  -1.230  -0.604  0.00  0.00    +0.000 HD
ENDROOT
BRANCH   1   5
ATOM      5  C   UNL A   1      -2.101  -2.346  -0.205  0.00  0.00    +0.109 C 
BRANCH   5   6
ATOM      6  C   UNL A   1      -1.077  -1.197  -0.121  0.00  0.00    +0.240 C 
ATOM      7  O   UNL A   1      -1.418  -0.042  -0.370  0.00  0.00    -0.273 OA
ATOM      8  N   UNL A   1       0.195  -1.638   0.174  0.00  0.00    -0.263 N 
ATOM      9  C   UNL A   1       1.339  -0.885   0.248  0.00  0.00    +0.165 A 
ATOM     10  N   UNL A   1       2.475  -1.444   0.587  0.00  0.00    -0.225 NA
ATOM     11  C   UNL A   1       3.482  -0.490   0.580  0.00  0.00    +0.080 A 
ATOM     12  C   UNL A   1       4.837  -0.714   0.894  0.00  0.00    -0.035 A 
ATOM     13  C   UNL A   1       5.747   0.348   0.842  0.00  0.00    -0.060 A 
ATOM     14  C   UNL A   1       5.322   1.623   0.483  0.00  0.00    -0.061 A 
ATOM     15  C   UNL A   1       3.983   1.871   0.167  0.00  0.00    -0.046 A 
ATOM     16  C   UNL A   1       3.079   0.798   0.222  0.00  0.00    +0.041 A 
ATOM     17  S   UNL A   1       1.390   0.775  -0.106  0.00  0.00    -0.052 S 
ATOM     18  H   UNL A   1       0.294  -2.601   0.351  0.00  0.00    +0.000 HD
ENDBRANCH   5   6
BRANCH   5  19
ATOM     19  C   UNL A   1      -2.015  -2.967  -1.607  0.00  0.00    +0.021 C 
BRANCH  19  20
ATOM     20  S   UNL A   1      -3.262  -4.259  -1.971  0.00  0.00    -0.154 S 
BRANCH  20  21
ATOM     21  C   UNL A   1      -2.921  -5.422  -0.617  0.00  0.00    +0.012 C 
BRANCH  21  23
ATOM     22  C   UNL A   1      -3.023  -7.889  -1.085  0.00  0.00    -0.102 C 
ATOM     23  C   UNL A   1      -3.632  -6.710  -0.898  0.00  0.00    -0.081 C 
ENDBRANCH  21  23
ENDBRANCH  20  21
ENDBRANCH  19  20
ENDBRANCH   5  19
ENDBRANCH   1   5
BRANCH   2  24
ATOM     24  C   UNL A   1      -5.340  -1.245   1.465  0.00  0.00    +0.025 C 
BRANCH  24  25
ATOM     25  C   UNL A   1      -6.362  -1.546   0.372  0.00  0.00    -0.029 C 
BRANCH  25  26
ATOM     26  C   UNL A   1      -7.729  -0.958   0.717  0.00  0.00    +0.010 C 
BRANCH  26  27
ATOM     27  N   UNL A   1      -8.631  -1.158  -0.425  0.00  0.00    -0.343 N 
ATOM     28  H   UNL A   1      -8.383  -1.636  -1.249  0.00  0.00    +0.000 HD
BRANCH  27  29
ATOM     29  C   UNL A   1      -9.912  -0.573  -0.190  0.00  0.00    +0.041 A 
ATOM     30  C   UNL A   1     -10.128   0.759  -0.596  0.00  0.00    -0.005 A 
ATOM     31  C   UNL A   1     -11.374   1.325  -0.325  0.00  0.00    +0.047 A 
ATOM     32  N   UNL A   1     -12.354   0.672   0.344  0.00  0.00    -0.251 NA
ATOM     33  C   UNL A   1     -12.141  -0.588   0.745  0.00  0.00    +0.073 A 
ATOM     34  C   UNL A   1     -13.168  -1.233   1.422  0.00  0.00    -0.036 A 
ATOM     35  C   UNL A   1     -13.042  -2.545   1.883  0.00  0.00    -0.060 A 
ATOM     36  C   UNL A   1     -11.860  -3.235   1.666  0.00  0.00    -0.061 A 
ATOM     37  C   UNL A   1     -10.815  -2.608   0.988  0.00  0.00    -0.051 A 
ATOM     38  C   UNL A   1     -10.933  -1.275   0.513  0.00  0.00    +0.021 A 
ATOM     39  C   UNL A   1     -11.702   2.744  -0.713  0.00  0.00    -0.010 C 
ATOM     40  C   UNL A   1     -10.813   3.284  -1.827  0.00  0.00    -0.047 C 
ATOM     41  C   UNL A   1      -9.352   3.012  -1.500  0.00  0.00    -0.049 C 
ATOM     42  C   UNL A   1      -9.096   1.508  -1.407  0.00  0.00    -0.024 C 
ENDBRANCH  27  29
ENDBRANCH  26  27
ENDBRANCH  25  26
ENDBRANCH  24  25
ENDBRANCH   2  24
TORSDOF 11
