@<TRIPOS>MOLECULE
*****
 14 14 0 0 0
SMALL
GASTEIGER

@<TRIPOS>ATOM
      1 C          -4.5000   -1.8660    0.0000 C.3     1  UNL1        0.0968
      2 C          -4.0000   -2.7321    0.0000 C.2     1  UNL1        0.2461
      3 O          -4.5000   -3.5981    0.0000 O.2     1  UNL1       -0.2730
      4 N          -3.0000   -2.7321    0.0000 N.am    1  UNL1       -0.1790
      5 C          -2.5000   -1.8660    0.0000 C.ar    1  UNL1        0.0791
      6 C          -3.0000   -1.0000    0.0000 C.ar    1  UNL1        0.0170
      7 C          -2.5000   -0.1340    0.0000 C.ar    1  UNL1        0.0072
      8 C          -1.5000   -0.1340    0.0000 C.ar    1  UNL1        0.0631
      9 C          -1.0000   -1.0000    0.0000 C.ar    1  UNL1        0.1672
     10 N           0.0000   -1.0000    0.0000 N.pl3   1  UNL1       -0.3099
     11 C          -0.0000   -2.0000    0.0000 C.3     1  UNL1        0.3353
     12 C           1.0000   -1.0000    0.0000 C.3     1  UNL1        0.3353
     13 C           0.0000   -0.0000    0.0000 C.3     1  UNL1        0.3353
     14 C          -1.5000   -1.8660    0.0000 C.ar    1  UNL1        0.0795
@<TRIPOS>UNITY_ATOM_ATTR
10 1
charge 1
@<TRIPOS>BOND
     1     1     2    1
     2     2     3    2
     3     2     4   am
     4     4     5    1
     5     5     6   ar
     6     6     7   ar
     7     7     8   ar
     8     8     9   ar
     9     9    10    1
    10    10    11    1
    11    10    12    1
    12    10    13    1
    13     9    14   ar
    14     5    14   ar
