REMARK  Name = cpd236.pdb
REMARK  6 active torsions:
REMARK  status: ('A' for Active; 'I' for Inactive)
REMARK    1  A    between atoms: C_1  and  C_2
REMARK    2  A    between atoms: N_4  and  C_5
REMARK    3  A    between atoms: C_9  and  N_10
REMARK    4  A    between atoms: N_10  and  C_11
REMARK    5  A    between atoms: N_10  and  C_12
REMARK    6  A    between atoms: N_10  and  C_13
REMARK                            x       y       z     vdW  Elec       q    Type
REMARK                         _______ _______ _______ _____ _____    ______ ____
ROOT
ATOM      1  C   UNL A   1      -3.269  -1.062  -1.263  0.00  0.00    +0.035 A 
ATOM      2  C   UNL A   1      -3.945  -1.041  -0.045  0.00  0.00    -0.040 A 
ATOM      3  C   UNL A   1      -3.264  -1.011   1.178  0.00  0.00    -0.058 A 
ATOM      4  C   UNL A   1      -1.866  -0.997   1.224  0.00  0.00    -0.042 A 
ATOM      5  C   UNL A   1      -1.000  -1.000   0.000  0.00  0.00    +0.017 A 
ATOM      6  C   UNL A   1      -1.859  -1.020  -1.251  0.00  0.00    -0.021 A 
ENDROOT
BRANCH   1  10
ATOM      7  C   UNL A   1      -6.244  -1.776  -2.038  0.00  0.00    +0.012 C 
ATOM      8  C   UNL A   1      -5.152  -1.325  -2.961  0.00  0.00    +0.214 C 
ATOM      9  O   UNL A   1      -5.368  -1.182  -4.167  0.00  0.00    -0.276 OA
ATOM     10  N   UNL A   1      -3.880  -1.095  -2.526  0.00  0.00    -0.286 N 
ATOM     11  H   UNL A   1      -3.251  -0.911  -3.261  0.00  0.00    +0.000 HD
ENDBRANCH   1  10
BRANCH   5  12
ATOM     12  N   UNL A   1       0.000  -1.000   0.000  0.00  0.00    -0.390 NA
ATOM     13  C   UNL A   1       0.000  -2.000   0.000  0.00  0.00    -0.015 C 
ATOM     14  C   UNL A   1       1.000  -1.000   0.000  0.00  0.00    -0.015 C 
ATOM     15  C   UNL A   1       0.000   0.000   0.000  0.00  0.00    -0.015 C 
ENDBRANCH   5  12
TORSDOF 2
