MODEL 1
REMARK VINA RESULT:    -7.035      0.000      0.000
REMARK INTER + INTRA:          -7.830
REMARK INTER:                  -7.857
REMARK INTRA:                   0.028
REMARK UNBOUND:                 0.028
REMARK  Name = cpd236.pdb
REMARK  6 active torsions:
REMARK  status: ('A' for Active; 'I' for Inactive)
REMARK    1  A    between atoms: C_1  and  C_2
REMARK    2  A    between atoms: N_4  and  C_5
REMARK    3  A    between atoms: C_9  and  N_10
REMARK    4  A    between atoms: N_10  and  C_11
REMARK    5  A    between atoms: N_10  and  C_12
REMARK    6  A    between atoms: N_10  and  C_13
REMARK                            x       y       z     vdW  Elec       q    Type
REMARK                         _______ _______ _______ _____ _____    ______ ____
ROOT
ATOM      1  C   UNL A   1      45.377 -40.370 -28.894  0.00  0.00    +0.035 A 
ATOM      2  C   UNL A   1      44.902 -41.392 -29.714  0.00  0.00    -0.040 A 
ATOM      3  C   UNL A   1      45.648 -41.881 -30.793  0.00  0.00    -0.058 A 
ATOM      4  C   UNL A   1      46.912 -41.359 -31.091  0.00  0.00    -0.042 A 
ATOM      5  C   UNL A   1      47.563 -40.270 -30.293  0.00  0.00    +0.017 A 
ATOM      6  C   UNL A   1      46.660 -39.843 -29.151  0.00  0.00    -0.021 A 
ENDROOT
BRANCH   1  10
ATOM      7  C   UNL A   1      45.019 -41.520 -25.977  0.00  0.00    +0.012 C 
ATOM      8  C   UNL A   1      44.526 -40.204 -26.497  0.00  0.00    +0.214 C 
ATOM      9  O   UNL A   1      43.916 -39.425 -25.760  0.00  0.00    -0.276 OA
ATOM     10  N   UNL A   1      44.688 -39.828 -27.798  0.00  0.00    -0.286 N 
ATOM     11  H   UNL A   1      44.219 -38.990 -28.017  0.00  0.00    +0.000 HD
ENDBRANCH   1  10
BRANCH   5  12
ATOM     12  N   UNL A   1      48.459 -39.870 -30.485  0.00  0.00    -0.390 NA
ATOM     13  C   UNL A   1      48.290 -39.160 -29.801  0.00  0.00    -0.015 C 
ATOM     14  C   UNL A   1      49.356 -39.470 -30.678  0.00  0.00    -0.015 C 
ATOM     15  C   UNL A   1      48.629 -40.579 -31.170  0.00  0.00    -0.015 C 
ENDBRANCH   5  12
TORSDOF 2
ENDMDL
MODEL 2
REMARK VINA RESULT:    -6.685      2.542      4.646
REMARK INTER + INTRA:          -7.439
REMARK INTER:                  -7.407
REMARK INTRA:                  -0.032
REMARK UNBOUND:                 0.028
REMARK  Name = cpd236.pdb
REMARK  6 active torsions:
REMARK  status: ('A' for Active; 'I' for Inactive)
REMARK    1  A    between atoms: C_1  and  C_2
REMARK    2  A    between atoms: N_4  and  C_5
REMARK    3  A    between atoms: C_9  and  N_10
REMARK    4  A    between atoms: N_10  and  C_11
REMARK    5  A    between atoms: N_10  and  C_12
REMARK    6  A    between atoms: N_10  and  C_13
REMARK                            x       y       z     vdW  Elec       q    Type
REMARK                         _______ _______ _______ _____ _____    ______ ____
ROOT
ATOM      1  C   UNL A   1      48.413 -40.153 -30.442  0.00  0.00    +0.035 A 
ATOM      2  C   UNL A   1      48.217 -41.107 -31.438  0.00  0.00    -0.040 A 
ATOM      3  C   UNL A   1      47.030 -41.843 -31.534  0.00  0.00    -0.058 A 
ATOM      4  C   UNL A   1      45.983 -41.643 -30.627  0.00  0.00    -0.042 A 
ATOM      5  C   UNL A   1      46.038 -40.642 -29.512  0.00  0.00    +0.017 A 
ATOM      6  C   UNL A   1      47.366 -39.908 -29.529  0.00  0.00    -0.021 A 
ENDROOT
BRANCH   1  10
ATOM      7  C   UNL A   1      48.725 -37.020 -30.215  0.00  0.00    +0.012 C 
ATOM      8  C   UNL A   1      49.812 -38.048 -30.111  0.00  0.00    +0.214 C 
ATOM      9  O   UNL A   1      50.979 -37.708 -29.902  0.00  0.00    -0.276 OA
ATOM     10  N   UNL A   1      49.573 -39.380 -30.280  0.00  0.00    -0.286 N 
ATOM     11  H   UNL A   1      50.397 -39.918 -30.291  0.00  0.00    +0.000 HD
ENDBRANCH   1  10
BRANCH   5  12
ATOM     12  N   UNL A   1      45.312 -40.484 -28.843  0.00  0.00    -0.390 NA
ATOM     13  C   UNL A   1      45.079 -39.624 -29.299  0.00  0.00    -0.015 C 
ATOM     14  C   UNL A   1      44.586 -40.325 -28.174  0.00  0.00    -0.015 C 
ATOM     15  C   UNL A   1      45.544 -41.343 -28.387  0.00  0.00    -0.015 C 
ENDBRANCH   5  12
TORSDOF 2
ENDMDL
MODEL 3
REMARK VINA RESULT:    -6.431      7.796      8.729
REMARK INTER + INTRA:          -7.155
REMARK INTER:                  -6.900
REMARK INTRA:                  -0.255
REMARK UNBOUND:                 0.028
REMARK  Name = cpd236.pdb
REMARK  6 active torsions:
REMARK  status: ('A' for Active; 'I' for Inactive)
REMARK    1  A    between atoms: C_1  and  C_2
REMARK    2  A    between atoms: N_4  and  C_5
REMARK    3  A    between atoms: C_9  and  N_10
REMARK    4  A    between atoms: N_10  and  C_11
REMARK    5  A    between atoms: N_10  and  C_12
REMARK    6  A    between atoms: N_10  and  C_13
REMARK                            x       y       z     vdW  Elec       q    Type
REMARK                         _______ _______ _______ _____ _____    ______ ____
ROOT
ATOM      1  C   UNL A   1      38.553 -35.854 -31.573  0.00  0.00    +0.035 A 
ATOM      2  C   UNL A   1      39.087 -34.575 -31.715  0.00  0.00    -0.040 A 
ATOM      3  C   UNL A   1      40.460 -34.330 -31.596  0.00  0.00    -0.058 A 
ATOM      4  C   UNL A   1      41.357 -35.370 -31.332  0.00  0.00    -0.042 A 
ATOM      5  C   UNL A   1      40.938 -36.800 -31.171  0.00  0.00    +0.017 A 
ATOM      6  C   UNL A   1      39.435 -36.929 -31.335  0.00  0.00    -0.021 A 
ENDROOT
BRANCH   1  10
ATOM      7  C   UNL A   1      36.428 -36.350 -29.293  0.00  0.00    +0.012 C 
ATOM      8  C   UNL A   1      36.184 -36.349 -30.772  0.00  0.00    +0.214 C 
ATOM      9  O   UNL A   1      35.052 -36.544 -31.222  0.00  0.00    -0.276 OA
ATOM     10  N   UNL A   1      37.191 -36.177 -31.676  0.00  0.00    -0.286 N 
ATOM     11  H   UNL A   1      36.897 -36.309 -32.606  0.00  0.00    +0.000 HD
ENDBRANCH   1  10
BRANCH   5  12
ATOM     12  N   UNL A   1      41.553 -37.564 -30.973  0.00  0.00    -0.390 NA
ATOM     13  C   UNL A   1      41.981 -37.452 -31.870  0.00  0.00    -0.015 C 
ATOM     14  C   UNL A   1      42.168 -38.327 -30.775  0.00  0.00    -0.015 C 
ATOM     15  C   UNL A   1      41.126 -37.675 -30.076  0.00  0.00    -0.015 C 
ENDBRANCH   5  12
TORSDOF 2
ENDMDL
MODEL 4
REMARK VINA RESULT:    -6.416     18.114     20.215
REMARK INTER + INTRA:          -7.138
REMARK INTER:                  -6.847
REMARK INTRA:                  -0.291
REMARK UNBOUND:                 0.028
REMARK  Name = cpd236.pdb
REMARK  6 active torsions:
REMARK  status: ('A' for Active; 'I' for Inactive)
REMARK    1  A    between atoms: C_1  and  C_2
REMARK    2  A    between atoms: N_4  and  C_5
REMARK    3  A    between atoms: C_9  and  N_10
REMARK    4  A    between atoms: N_10  and  C_11
REMARK    5  A    between atoms: N_10  and  C_12
REMARK    6  A    between atoms: N_10  and  C_13
REMARK                            x       y       z     vdW  Elec       q    Type
REMARK                         _______ _______ _______ _____ _____    ______ ____
ROOT
ATOM      1  C   UNL A   1      54.418 -35.102 -45.785  0.00  0.00    +0.035 A 
ATOM      2  C   UNL A   1      55.173 -33.931 -45.775  0.00  0.00    -0.040 A 
ATOM      3  C   UNL A   1      56.139 -33.666 -46.753  0.00  0.00    -0.058 A 
ATOM      4  C   UNL A   1      56.382 -34.572 -47.790  0.00  0.00    -0.042 A 
ATOM      5  C   UNL A   1      55.641 -35.866 -47.946  0.00  0.00    +0.017 A 
ATOM      6  C   UNL A   1      54.620 -36.024 -46.834  0.00  0.00    -0.021 A 
ENDROOT
BRANCH   1  10
ATOM      7  C   UNL A   1      51.273 -35.002 -46.031  0.00  0.00    +0.012 C 
ATOM      8  C   UNL A   1      52.074 -35.492 -44.863  0.00  0.00    +0.214 C 
ATOM      9  O   UNL A   1      51.512 -35.931 -43.856  0.00  0.00    -0.276 OA
ATOM     10  N   UNL A   1      53.437 -35.439 -44.840  0.00  0.00    -0.286 N 
ATOM     11  H   UNL A   1      53.816 -35.694 -43.968  0.00  0.00    +0.000 HD
ENDBRANCH   1  10
BRANCH   5  12
ATOM     12  N   UNL A   1      55.798 -36.539 -48.669  0.00  0.00    -0.390 NA
ATOM     13  C   UNL A   1      55.033 -36.158 -49.189  0.00  0.00    -0.015 C 
ATOM     14  C   UNL A   1      55.955 -37.211 -49.393  0.00  0.00    -0.015 C 
ATOM     15  C   UNL A   1      56.562 -36.919 -48.149  0.00  0.00    -0.015 C 
ENDBRANCH   5  12
TORSDOF 2
ENDMDL
MODEL 5
REMARK VINA RESULT:    -6.279      9.883     10.873
REMARK INTER + INTRA:          -6.985
REMARK INTER:                  -7.167
REMARK INTRA:                   0.182
REMARK UNBOUND:                 0.028
REMARK  Name = cpd236.pdb
REMARK  6 active torsions:
REMARK  status: ('A' for Active; 'I' for Inactive)
REMARK    1  A    between atoms: C_1  and  C_2
REMARK    2  A    between atoms: N_4  and  C_5
REMARK    3  A    between atoms: C_9  and  N_10
REMARK    4  A    between atoms: N_10  and  C_11
REMARK    5  A    between atoms: N_10  and  C_12
REMARK    6  A    between atoms: N_10  and  C_13
REMARK                            x       y       z     vdW  Elec       q    Type
REMARK                         _______ _______ _______ _____ _____    ______ ____
ROOT
ATOM      1  C   UNL A   1      36.692 -34.677 -31.090  0.00  0.00    +0.035 A 
ATOM      2  C   UNL A   1      36.221 -35.536 -30.099  0.00  0.00    -0.040 A 
ATOM      3  C   UNL A   1      36.988 -36.605 -29.622  0.00  0.00    -0.058 A 
ATOM      4  C   UNL A   1      38.270 -36.853 -30.123  0.00  0.00    -0.042 A 
ATOM      5  C   UNL A   1      38.921 -36.009 -31.178  0.00  0.00    +0.017 A 
ATOM      6  C   UNL A   1      37.993 -34.884 -31.597  0.00  0.00    -0.021 A 
ENDROOT
BRANCH   1  10
ATOM      7  C   UNL A   1      34.639 -32.738 -29.682  0.00  0.00    +0.012 C 
ATOM      8  C   UNL A   1      35.134 -32.660 -31.095  0.00  0.00    +0.214 C 
ATOM      9  O   UNL A   1      34.751 -31.760 -31.846  0.00  0.00    -0.276 OA
ATOM     10  N   UNL A   1      35.984 -33.588 -31.621  0.00  0.00    -0.286 N 
ATOM     11  H   UNL A   1      36.133 -33.467 -32.587  0.00  0.00    +0.000 HD
ENDBRANCH   1  10
BRANCH   5  12
ATOM     12  N   UNL A   1      39.830 -36.166 -31.563  0.00  0.00    -0.390 NA
ATOM     13  C   UNL A   1      39.484 -35.938 -32.473  0.00  0.00    -0.015 C 
ATOM     14  C   UNL A   1      40.740 -36.323 -31.949  0.00  0.00    -0.015 C 
ATOM     15  C   UNL A   1      40.176 -36.394 -30.653  0.00  0.00    -0.015 C 
ENDBRANCH   5  12
TORSDOF 2
ENDMDL
MODEL 6
REMARK VINA RESULT:    -6.244      4.865      6.007
REMARK INTER + INTRA:          -6.947
REMARK INTER:                  -6.840
REMARK INTRA:                  -0.107
REMARK UNBOUND:                 0.028
REMARK  Name = cpd236.pdb
REMARK  6 active torsions:
REMARK  status: ('A' for Active; 'I' for Inactive)
REMARK    1  A    between atoms: C_1  and  C_2
REMARK    2  A    between atoms: N_4  and  C_5
REMARK    3  A    between atoms: C_9  and  N_10
REMARK    4  A    between atoms: N_10  and  C_11
REMARK    5  A    between atoms: N_10  and  C_12
REMARK    6  A    between atoms: N_10  and  C_13
REMARK                            x       y       z     vdW  Elec       q    Type
REMARK                         _______ _______ _______ _____ _____    ______ ____
ROOT
ATOM      1  C   UNL A   1      42.406 -39.121 -29.829  0.00  0.00    +0.035 A 
ATOM      2  C   UNL A   1      41.393 -38.981 -28.882  0.00  0.00    -0.040 A 
ATOM      3  C   UNL A   1      40.489 -37.913 -28.920  0.00  0.00    -0.058 A 
ATOM      4  C   UNL A   1      40.567 -36.938 -29.920  0.00  0.00    -0.042 A 
ATOM      5  C   UNL A   1      41.590 -36.960 -31.016  0.00  0.00    +0.017 A 
ATOM      6  C   UNL A   1      42.494 -38.170 -30.867  0.00  0.00    -0.021 A 
ENDROOT
BRANCH   1  10
ATOM      7  C   UNL A   1      44.422 -40.064 -27.591  0.00  0.00    +0.012 C 
ATOM      8  C   UNL A   1      44.212 -40.685 -28.939  0.00  0.00    +0.214 C 
ATOM      9  O   UNL A   1      44.852 -41.684 -29.277  0.00  0.00    -0.276 OA
ATOM     10  N   UNL A   1      43.349 -40.160 -29.856  0.00  0.00    -0.286 N 
ATOM     11  H   UNL A   1      43.399 -40.610 -30.730  0.00  0.00    +0.000 HD
ENDBRANCH   1  10
BRANCH   5  12
ATOM     12  N   UNL A   1      41.677 -36.274 -31.738  0.00  0.00    -0.390 NA
ATOM     13  C   UNL A   1      40.726 -36.432 -32.003  0.00  0.00    -0.015 C 
ATOM     14  C   UNL A   1      41.764 -35.588 -32.460  0.00  0.00    -0.015 C 
ATOM     15  C   UNL A   1      42.628 -36.116 -31.473  0.00  0.00    -0.015 C 
ENDBRANCH   5  12
TORSDOF 2
ENDMDL
MODEL 7
REMARK VINA RESULT:    -5.933      8.137     10.012
REMARK INTER + INTRA:          -6.599
REMARK INTER:                  -6.499
REMARK INTRA:                  -0.100
REMARK UNBOUND:                 0.028
REMARK  Name = cpd236.pdb
REMARK  6 active torsions:
REMARK  status: ('A' for Active; 'I' for Inactive)
REMARK    1  A    between atoms: C_1  and  C_2
REMARK    2  A    between atoms: N_4  and  C_5
REMARK    3  A    between atoms: C_9  and  N_10
REMARK    4  A    between atoms: N_10  and  C_11
REMARK    5  A    between atoms: N_10  and  C_12
REMARK    6  A    between atoms: N_10  and  C_13
REMARK                            x       y       z     vdW  Elec       q    Type
REMARK                         _______ _______ _______ _____ _____    ______ ____
ROOT
ATOM      1  C   UNL A   1      39.823 -36.950 -30.545  0.00  0.00    +0.035 A 
ATOM      2  C   UNL A   1      40.131 -37.663 -29.389  0.00  0.00    -0.040 A 
ATOM      3  C   UNL A   1      39.136 -38.149 -28.533  0.00  0.00    -0.058 A 
ATOM      4  C   UNL A   1      37.781 -37.939 -28.810  0.00  0.00    -0.042 A 
ATOM      5  C   UNL A   1      37.291 -37.205 -30.022  0.00  0.00    +0.017 A 
ATOM      6  C   UNL A   1      38.465 -36.745 -30.868  0.00  0.00    -0.021 A 
ENDROOT
BRANCH   1  10
ATOM      7  C   UNL A   1      40.172 -33.997 -31.604  0.00  0.00    +0.012 C 
ATOM      8  C   UNL A   1      41.038 -35.180 -31.919  0.00  0.00    +0.214 C 
ATOM      9  O   UNL A   1      42.020 -35.060 -32.656  0.00  0.00    -0.276 OA
ATOM     10  N   UNL A   1      40.762 -36.430 -31.449  0.00  0.00    -0.286 N 
ATOM     11  H   UNL A   1      41.354 -37.120 -31.826  0.00  0.00    +0.000 HD
ENDBRANCH   1  10
BRANCH   5  12
ATOM     12  N   UNL A   1      36.332 -37.030 -30.243  0.00  0.00    -0.390 NA
ATOM     13  C   UNL A   1      36.267 -37.930 -30.674  0.00  0.00    -0.015 C 
ATOM     14  C   UNL A   1      35.372 -36.855 -30.464  0.00  0.00    -0.015 C 
ATOM     15  C   UNL A   1      36.397 -36.130 -29.813  0.00  0.00    -0.015 C 
ENDBRANCH   5  12
TORSDOF 2
ENDMDL
MODEL 8
REMARK VINA RESULT:    -5.923      9.806     11.466
REMARK INTER + INTRA:          -6.588
REMARK INTER:                  -6.440
REMARK INTRA:                  -0.148
REMARK UNBOUND:                 0.028
REMARK  Name = cpd236.pdb
REMARK  6 active torsions:
REMARK  status: ('A' for Active; 'I' for Inactive)
REMARK    1  A    between atoms: C_1  and  C_2
REMARK    2  A    between atoms: N_4  and  C_5
REMARK    3  A    between atoms: C_9  and  N_10
REMARK    4  A    between atoms: N_10  and  C_11
REMARK    5  A    between atoms: N_10  and  C_12
REMARK    6  A    between atoms: N_10  and  C_13
REMARK                            x       y       z     vdW  Elec       q    Type
REMARK                         _______ _______ _______ _____ _____    ______ ____
ROOT
ATOM      1  C   UNL A   1      38.287 -36.034 -31.624  0.00  0.00    +0.035 A 
ATOM      2  C   UNL A   1      38.466 -36.811 -30.482  0.00  0.00    -0.040 A 
ATOM      3  C   UNL A   1      37.524 -36.831 -29.446  0.00  0.00    -0.058 A 
ATOM      4  C   UNL A   1      36.355 -36.067 -29.521  0.00  0.00    -0.042 A 
ATOM      5  C   UNL A   1      36.013 -35.195 -30.691  0.00  0.00    +0.017 A 
ATOM      6  C   UNL A   1      37.104 -35.274 -31.743  0.00  0.00    -0.021 A 
ENDROOT
BRANCH   1  10
ATOM      7  C   UNL A   1      41.362 -35.323 -31.631  0.00  0.00    +0.012 C 
ATOM      8  C   UNL A   1      40.524 -35.727 -32.807  0.00  0.00    +0.214 C 
ATOM      9  O   UNL A   1      41.025 -35.827 -33.930  0.00  0.00    -0.276 OA
ATOM     10  N   UNL A   1      39.185 -35.960 -32.701  0.00  0.00    -0.286 N 
ATOM     11  H   UNL A   1      38.751 -36.109 -33.572  0.00  0.00    +0.000 HD
ENDBRANCH   1  10
BRANCH   5  12
ATOM     12  N   UNL A   1      35.191 -34.630 -30.770  0.00  0.00    -0.390 NA
ATOM     13  C   UNL A   1      34.624 -35.454 -30.765  0.00  0.00    -0.015 C 
ATOM     14  C   UNL A   1      34.369 -34.066 -30.849  0.00  0.00    -0.015 C 
ATOM     15  C   UNL A   1      35.757 -33.806 -30.776  0.00  0.00    -0.015 C 
ENDBRANCH   5  12
TORSDOF 2
ENDMDL
MODEL 9
REMARK VINA RESULT:    -5.805      7.586      8.620
REMARK INTER + INTRA:          -6.456
REMARK INTER:                  -6.279
REMARK INTRA:                  -0.176
REMARK UNBOUND:                 0.028
REMARK  Name = cpd236.pdb
REMARK  6 active torsions:
REMARK  status: ('A' for Active; 'I' for Inactive)
REMARK    1  A    between atoms: C_1  and  C_2
REMARK    2  A    between atoms: N_4  and  C_5
REMARK    3  A    between atoms: C_9  and  N_10
REMARK    4  A    between atoms: N_10  and  C_11
REMARK    5  A    between atoms: N_10  and  C_12
REMARK    6  A    between atoms: N_10  and  C_13
REMARK                            x       y       z     vdW  Elec       q    Type
REMARK                         _______ _______ _______ _____ _____    ______ ____
ROOT
ATOM      1  C   UNL A   1      38.089 -37.350 -29.812  0.00  0.00    +0.035 A 
ATOM      2  C   UNL A   1      38.724 -38.058 -28.793  0.00  0.00    -0.040 A 
ATOM      3  C   UNL A   1      40.114 -38.217 -28.759  0.00  0.00    -0.058 A 
ATOM      4  C   UNL A   1      40.928 -37.663 -29.754  0.00  0.00    -0.042 A 
ATOM      5  C   UNL A   1      40.395 -36.862 -30.904  0.00  0.00    +0.017 A 
ATOM      6  C   UNL A   1      38.884 -36.755 -30.814  0.00  0.00    -0.021 A 
ENDROOT
BRANCH   1  10
ATOM      7  C   UNL A   1      35.870 -39.246 -31.012  0.00  0.00    +0.012 C 
ATOM      8  C   UNL A   1      35.663 -37.916 -30.351  0.00  0.00    +0.214 C 
ATOM      9  O   UNL A   1      34.528 -37.452 -30.214  0.00  0.00    -0.276 OA
ATOM     10  N   UNL A   1      36.704 -37.150 -29.915  0.00  0.00    -0.286 N 
ATOM     11  H   UNL A   1      36.421 -36.260 -29.603  0.00  0.00    +0.000 HD
ENDBRANCH   1  10
BRANCH   5  12
ATOM     12  N   UNL A   1      40.948 -36.462 -31.634  0.00  0.00    -0.390 NA
ATOM     13  C   UNL A   1      41.418 -37.336 -31.757  0.00  0.00    -0.015 C 
ATOM     14  C   UNL A   1      41.502 -36.061 -32.364  0.00  0.00    -0.015 C 
ATOM     15  C   UNL A   1      40.478 -35.587 -31.511  0.00  0.00    -0.015 C 
ENDBRANCH   5  12
TORSDOF 2
ENDMDL
MODEL 10
REMARK VINA RESULT:    -5.770     30.773     31.666
REMARK INTER + INTRA:          -6.417
REMARK INTER:                  -6.417
REMARK INTRA:                   0.000
REMARK UNBOUND:                 0.028
REMARK  Name = cpd236.pdb
REMARK  6 active torsions:
REMARK  status: ('A' for Active; 'I' for Inactive)
REMARK    1  A    between atoms: C_1  and  C_2
REMARK    2  A    between atoms: N_4  and  C_5
REMARK    3  A    between atoms: C_9  and  N_10
REMARK    4  A    between atoms: N_10  and  C_11
REMARK    5  A    between atoms: N_10  and  C_12
REMARK    6  A    between atoms: N_10  and  C_13
REMARK                            x       y       z     vdW  Elec       q    Type
REMARK                         _______ _______ _______ _____ _____    ______ ____
ROOT
ATOM      1  C   UNL A   1      62.820 -24.839  -6.894  0.00  0.00    +0.035 A 
ATOM      2  C   UNL A   1      62.907 -23.778  -5.996  0.00  0.00    -0.040 A 
ATOM      3  C   UNL A   1      63.199 -22.475  -6.416  0.00  0.00    -0.058 A 
ATOM      4  C   UNL A   1      63.412 -22.185  -7.768  0.00  0.00    -0.042 A 
ATOM      5  C   UNL A   1      63.335 -23.215  -8.855  0.00  0.00    +0.017 A 
ATOM      6  C   UNL A   1      63.001 -24.574  -8.268  0.00  0.00    -0.021 A 
ENDROOT
BRANCH   1  10
ATOM      7  C   UNL A   1      64.778 -27.291  -6.558  0.00  0.00    +0.012 C 
ATOM      8  C   UNL A   1      63.297 -27.276  -6.319  0.00  0.00    +0.214 C 
ATOM      9  O   UNL A   1      62.712 -28.292  -5.935  0.00  0.00    -0.276 OA
ATOM     10  N   UNL A   1      62.534 -26.169  -6.550  0.00  0.00    -0.286 N 
ATOM     11  H   UNL A   1      61.570 -26.342  -6.452  0.00  0.00    +0.000 HD
ENDBRANCH   1  10
BRANCH   5  12
ATOM     12  N   UNL A   1      63.492 -23.041  -9.827  0.00  0.00    -0.390 NA
ATOM     13  C   UNL A   1      63.765 -23.995  -9.954  0.00  0.00    -0.015 C 
ATOM     14  C   UNL A   1      63.648 -22.868 -10.800  0.00  0.00    -0.015 C 
ATOM     15  C   UNL A   1      63.218 -22.088  -9.701  0.00  0.00    -0.015 C 
ENDBRANCH   5  12
TORSDOF 2
ENDMDL
MODEL 11
REMARK VINA RESULT:    -5.742     31.845     32.952
REMARK INTER + INTRA:          -6.386
REMARK INTER:                  -6.045
REMARK INTRA:                  -0.341
REMARK UNBOUND:                 0.028
REMARK  Name = cpd236.pdb
REMARK  6 active torsions:
REMARK  status: ('A' for Active; 'I' for Inactive)
REMARK    1  A    between atoms: C_1  and  C_2
REMARK    2  A    between atoms: N_4  and  C_5
REMARK    3  A    between atoms: C_9  and  N_10
REMARK    4  A    between atoms: N_10  and  C_11
REMARK    5  A    between atoms: N_10  and  C_12
REMARK    6  A    between atoms: N_10  and  C_13
REMARK                            x       y       z     vdW  Elec       q    Type
REMARK                         _______ _______ _______ _____ _____    ______ ____
ROOT
ATOM      1  C   UNL A   1      64.568 -24.635  -7.721  0.00  0.00    +0.035 A 
ATOM      2  C   UNL A   1      63.936 -24.464  -8.951  0.00  0.00    -0.040 A 
ATOM      3  C   UNL A   1      63.193 -23.314  -9.247  0.00  0.00    -0.058 A 
ATOM      4  C   UNL A   1      63.058 -22.283  -8.311  0.00  0.00    -0.042 A 
ATOM      5  C   UNL A   1      63.692 -22.314  -6.953  0.00  0.00    +0.017 A 
ATOM      6  C   UNL A   1      64.475 -23.601  -6.767  0.00  0.00    -0.021 A 
ENDROOT
BRANCH   1  10
ATOM      7  C   UNL A   1      63.673 -27.252  -6.201  0.00  0.00    +0.012 C 
ATOM      8  C   UNL A   1      65.032 -26.949  -6.758  0.00  0.00    +0.214 C 
ATOM      9  O   UNL A   1      65.948 -27.770  -6.661  0.00  0.00    -0.276 OA
ATOM     10  N   UNL A   1      65.326 -25.757  -7.352  0.00  0.00    -0.286 N 
ATOM     11  H   UNL A   1      66.281 -25.663  -7.569  0.00  0.00    +0.000 HD
ENDBRANCH   1  10
BRANCH   5  12
ATOM     12  N   UNL A   1      63.607 -21.598  -6.259  0.00  0.00    -0.390 NA
ATOM     13  C   UNL A   1      62.872 -22.113  -5.818  0.00  0.00    -0.015 C 
ATOM     14  C   UNL A   1      63.522 -20.882  -5.566  0.00  0.00    -0.015 C 
ATOM     15  C   UNL A   1      64.342 -21.083  -6.700  0.00  0.00    -0.015 C 
ENDBRANCH   5  12
TORSDOF 2
ENDMDL
MODEL 12
REMARK VINA RESULT:    -5.602     32.252     33.391
REMARK INTER + INTRA:          -6.229
REMARK INTER:                  -5.989
REMARK INTRA:                  -0.240
REMARK UNBOUND:                 0.028
REMARK  Name = cpd236.pdb
REMARK  6 active torsions:
REMARK  status: ('A' for Active; 'I' for Inactive)
REMARK    1  A    between atoms: C_1  and  C_2
REMARK    2  A    between atoms: N_4  and  C_5
REMARK    3  A    between atoms: C_9  and  N_10
REMARK    4  A    between atoms: N_10  and  C_11
REMARK    5  A    between atoms: N_10  and  C_12
REMARK    6  A    between atoms: N_10  and  C_13
REMARK                            x       y       z     vdW  Elec       q    Type
REMARK                         _______ _______ _______ _____ _____    ______ ____
ROOT
ATOM      1  C   UNL A   1      64.460 -24.399  -7.449  0.00  0.00    +0.035 A 
ATOM      2  C   UNL A   1      64.253 -25.738  -7.125  0.00  0.00    -0.040 A 
ATOM      3  C   UNL A   1      64.151 -26.170  -5.797  0.00  0.00    -0.058 A 
ATOM      4  C   UNL A   1      64.250 -25.265  -4.735  0.00  0.00    -0.042 A 
ATOM      5  C   UNL A   1      64.455 -23.792  -4.923  0.00  0.00    +0.017 A 
ATOM      6  C   UNL A   1      64.536 -23.457  -6.401  0.00  0.00    -0.021 A 
ENDROOT
BRANCH   1  10
ATOM      7  C   UNL A   1      62.478 -24.663  -9.891  0.00  0.00    +0.012 C 
ATOM      8  C   UNL A   1      63.763 -23.892  -9.848  0.00  0.00    +0.214 C 
ATOM      9  O   UNL A   1      64.148 -23.256 -10.832  0.00  0.00    -0.276 OA
ATOM     10  N   UNL A   1      64.575 -23.891  -8.752  0.00  0.00    -0.286 N 
ATOM     11  H   UNL A   1      65.431 -23.431  -8.910  0.00  0.00    +0.000 HD
ENDBRANCH   1  10
BRANCH   5  12
ATOM     12  N   UNL A   1      64.540 -23.122  -4.185  0.00  0.00    -0.390 NA
ATOM     13  C   UNL A   1      63.554 -22.956  -4.224  0.00  0.00    -0.015 C 
ATOM     14  C   UNL A   1      64.624 -22.452  -3.448  0.00  0.00    -0.015 C 
ATOM     15  C   UNL A   1      65.525 -23.288  -4.147  0.00  0.00    -0.015 C 
ENDBRANCH   5  12
TORSDOF 2
ENDMDL
MODEL 13
REMARK VINA RESULT:    -5.563     31.509     32.512
REMARK INTER + INTRA:          -6.185
REMARK INTER:                  -5.834
REMARK INTRA:                  -0.352
REMARK UNBOUND:                 0.028
REMARK  Name = cpd236.pdb
REMARK  6 active torsions:
REMARK  status: ('A' for Active; 'I' for Inactive)
REMARK    1  A    between atoms: C_1  and  C_2
REMARK    2  A    between atoms: N_4  and  C_5
REMARK    3  A    between atoms: C_9  and  N_10
REMARK    4  A    between atoms: N_10  and  C_11
REMARK    5  A    between atoms: N_10  and  C_12
REMARK    6  A    between atoms: N_10  and  C_13
REMARK                            x       y       z     vdW  Elec       q    Type
REMARK                         _______ _______ _______ _____ _____    ______ ____
ROOT
ATOM      1  C   UNL A   1      63.979 -24.597  -6.266  0.00  0.00    +0.035 A 
ATOM      2  C   UNL A   1      62.948 -25.534  -6.253  0.00  0.00    -0.040 A 
ATOM      3  C   UNL A   1      62.140 -25.760  -7.373  0.00  0.00    -0.058 A 
ATOM      4  C   UNL A   1      62.341 -25.051  -8.562  0.00  0.00    -0.042 A 
ATOM      5  C   UNL A   1      63.419 -24.023  -8.737  0.00  0.00    +0.017 A 
ATOM      6  C   UNL A   1      64.225 -23.885  -7.459  0.00  0.00    -0.021 A 
ENDROOT
BRANCH   1  10
ATOM      7  C   UNL A   1      63.453 -22.816  -3.714  0.00  0.00    +0.012 C 
ATOM      8  C   UNL A   1      64.681 -23.619  -4.020  0.00  0.00    +0.214 C 
ATOM      9  O   UNL A   1      65.627 -23.645  -3.228  0.00  0.00    -0.276 OA
ATOM     10  N   UNL A   1      64.827 -24.312  -5.185  0.00  0.00    -0.286 N 
ATOM     11  H   UNL A   1      65.726 -24.700  -5.291  0.00  0.00    +0.000 HD
ENDBRANCH   1  10
BRANCH   5  12
ATOM     12  N   UNL A   1      63.582 -23.493  -9.569  0.00  0.00    -0.390 NA
ATOM     13  C   UNL A   1      64.177 -24.219  -9.915  0.00  0.00    -0.015 C 
ATOM     14  C   UNL A   1      63.745 -22.963 -10.401  0.00  0.00    -0.015 C 
ATOM     15  C   UNL A   1      62.987 -22.767  -9.223  0.00  0.00    -0.015 C 
ENDBRANCH   5  12
TORSDOF 2
ENDMDL
MODEL 14
REMARK VINA RESULT:    -5.562     21.434     22.315
REMARK INTER + INTRA:          -6.184
REMARK INTER:                  -5.843
REMARK INTRA:                  -0.341
REMARK UNBOUND:                 0.028
REMARK  Name = cpd236.pdb
REMARK  6 active torsions:
REMARK  status: ('A' for Active; 'I' for Inactive)
REMARK    1  A    between atoms: C_1  and  C_2
REMARK    2  A    between atoms: N_4  and  C_5
REMARK    3  A    between atoms: C_9  and  N_10
REMARK    4  A    between atoms: N_10  and  C_11
REMARK    5  A    between atoms: N_10  and  C_12
REMARK    6  A    between atoms: N_10  and  C_13
REMARK                            x       y       z     vdW  Elec       q    Type
REMARK                         _______ _______ _______ _____ _____    ______ ____
ROOT
ATOM      1  C   UNL A   1      47.046 -20.109 -38.779  0.00  0.00    +0.035 A 
ATOM      2  C   UNL A   1      46.830 -18.902 -39.441  0.00  0.00    -0.040 A 
ATOM      3  C   UNL A   1      46.720 -18.834 -40.836  0.00  0.00    -0.058 A 
ATOM      4  C   UNL A   1      46.822 -19.985 -41.624  0.00  0.00    -0.042 A 
ATOM      5  C   UNL A   1      47.037 -21.356 -41.057  0.00  0.00    +0.017 A 
ATOM      6  C   UNL A   1      47.124 -21.292 -39.544  0.00  0.00    -0.021 A 
ENDROOT
BRANCH   1  10
ATOM      7  C   UNL A   1      44.821 -20.000 -36.543  0.00  0.00    +0.012 C 
ATOM      8  C   UNL A   1      46.280 -20.290 -36.354  0.00  0.00    +0.214 C 
ATOM      9  O   UNL A   1      46.732 -20.534 -35.233  0.00  0.00    -0.276 OA
ATOM     10  N   UNL A   1      47.168 -20.257 -37.389  0.00  0.00    -0.286 N 
ATOM     11  H   UNL A   1      48.103 -20.360 -37.095  0.00  0.00    +0.000 HD
ENDBRANCH   1  10
BRANCH   5  12
ATOM     12  N   UNL A   1      47.123 -22.196 -41.594  0.00  0.00    -0.390 NA
ATOM     13  C   UNL A   1      46.157 -22.399 -41.431  0.00  0.00    -0.015 C 
ATOM     14  C   UNL A   1      47.209 -23.035 -42.130  0.00  0.00    -0.015 C 
ATOM     15  C   UNL A   1      48.088 -21.993 -41.757  0.00  0.00    -0.015 C 
ENDBRANCH   5  12
TORSDOF 2
ENDMDL
MODEL 15
REMARK VINA RESULT:    -5.361     21.692     22.984
REMARK INTER + INTRA:          -5.960
REMARK INTER:                  -5.619
REMARK INTRA:                  -0.342
REMARK UNBOUND:                 0.028
REMARK  Name = cpd236.pdb
REMARK  6 active torsions:
REMARK  status: ('A' for Active; 'I' for Inactive)
REMARK    1  A    between atoms: C_1  and  C_2
REMARK    2  A    between atoms: N_4  and  C_5
REMARK    3  A    between atoms: C_9  and  N_10
REMARK    4  A    between atoms: N_10  and  C_11
REMARK    5  A    between atoms: N_10  and  C_12
REMARK    6  A    between atoms: N_10  and  C_13
REMARK                            x       y       z     vdW  Elec       q    Type
REMARK                         _______ _______ _______ _____ _____    ______ ____
ROOT
ATOM      1  C   UNL A   1      45.892 -21.309 -41.875  0.00  0.00    +0.035 A 
ATOM      2  C   UNL A   1      46.032 -19.939 -42.081  0.00  0.00    -0.040 A 
ATOM      3  C   UNL A   1      45.124 -19.015 -41.549  0.00  0.00    -0.058 A 
ATOM      4  C   UNL A   1      44.034 -19.436 -40.781  0.00  0.00    -0.042 A 
ATOM      5  C   UNL A   1      43.758 -20.874 -40.459  0.00  0.00    +0.017 A 
ATOM      6  C   UNL A   1      44.818 -21.764 -41.080  0.00  0.00    -0.021 A 
ENDROOT
BRANCH   1  10
ATOM      7  C   UNL A   1      48.560 -22.456 -40.640  0.00  0.00    +0.012 C 
ATOM      8  C   UNL A   1      47.884 -22.900 -41.903  0.00  0.00    +0.214 C 
ATOM      9  O   UNL A   1      48.355 -23.817 -42.580  0.00  0.00    -0.276 OA
ATOM     10  N   UNL A   1      46.757 -22.294 -42.376  0.00  0.00    -0.286 N 
ATOM     11  H   UNL A   1      46.491 -22.621 -43.266  0.00  0.00    +0.000 HD
ENDBRANCH   1  10
BRANCH   5  12
ATOM     12  N   UNL A   1      42.983 -21.207 -39.921  0.00  0.00    -0.390 NA
ATOM     13  C   UNL A   1      43.469 -20.975 -39.078  0.00  0.00    -0.015 C 
ATOM     14  C   UNL A   1      42.209 -21.540 -39.384  0.00  0.00    -0.015 C 
ATOM     15  C   UNL A   1      42.498 -21.439 -40.764  0.00  0.00    -0.015 C 
ENDBRANCH   5  12
TORSDOF 2
ENDMDL
MODEL 16
REMARK VINA RESULT:    -5.351     21.181     22.233
REMARK INTER + INTRA:          -5.949
REMARK INTER:                  -5.598
REMARK INTRA:                  -0.351
REMARK UNBOUND:                 0.028
REMARK  Name = cpd236.pdb
REMARK  6 active torsions:
REMARK  status: ('A' for Active; 'I' for Inactive)
REMARK    1  A    between atoms: C_1  and  C_2
REMARK    2  A    between atoms: N_4  and  C_5
REMARK    3  A    between atoms: C_9  and  N_10
REMARK    4  A    between atoms: N_10  and  C_11
REMARK    5  A    between atoms: N_10  and  C_12
REMARK    6  A    between atoms: N_10  and  C_13
REMARK                            x       y       z     vdW  Elec       q    Type
REMARK                         _______ _______ _______ _____ _____    ______ ____
ROOT
ATOM      1  C   UNL A   1      44.333 -20.957 -40.323  0.00  0.00    +0.035 A 
ATOM      2  C   UNL A   1      44.570 -19.768 -41.010  0.00  0.00    -0.040 A 
ATOM      3  C   UNL A   1      45.762 -19.543 -41.709  0.00  0.00    -0.058 A 
ATOM      4  C   UNL A   1      46.769 -20.514 -41.748  0.00  0.00    -0.042 A 
ATOM      5  C   UNL A   1      46.655 -21.848 -41.073  0.00  0.00    +0.017 A 
ATOM      6  C   UNL A   1      45.316 -21.967 -40.367  0.00  0.00    -0.021 A 
ENDROOT
BRANCH   1  10
ATOM      7  C   UNL A   1      41.549 -22.032 -41.351  0.00  0.00    +0.012 C 
ATOM      8  C   UNL A   1      41.951 -21.774 -39.930  0.00  0.00    +0.214 C 
ATOM      9  O   UNL A   1      41.164 -21.994 -39.005  0.00  0.00    -0.276 OA
ATOM     10  N   UNL A   1      43.167 -21.254 -39.600  0.00  0.00    -0.286 N 
ATOM     11  H   UNL A   1      43.246 -21.039 -38.642  0.00  0.00    +0.000 HD
ENDBRANCH   1  10
BRANCH   5  12
ATOM     12  N   UNL A   1      47.359 -22.558 -41.075  0.00  0.00    -0.390 NA
ATOM     13  C   UNL A   1      47.028 -22.884 -41.960  0.00  0.00    -0.015 C 
ATOM     14  C   UNL A   1      48.063 -23.268 -41.076  0.00  0.00    -0.015 C 
ATOM     15  C   UNL A   1      47.689 -22.232 -40.189  0.00  0.00    -0.015 C 
ENDBRANCH   5  12
TORSDOF 2
ENDMDL
MODEL 17
REMARK VINA RESULT:    -5.243      8.766     10.819
REMARK INTER + INTRA:          -5.828
REMARK INTER:                  -5.546
REMARK INTRA:                  -0.282
REMARK UNBOUND:                 0.028
REMARK  Name = cpd236.pdb
REMARK  6 active torsions:
REMARK  status: ('A' for Active; 'I' for Inactive)
REMARK    1  A    between atoms: C_1  and  C_2
REMARK    2  A    between atoms: N_4  and  C_5
REMARK    3  A    between atoms: C_9  and  N_10
REMARK    4  A    between atoms: N_10  and  C_11
REMARK    5  A    between atoms: N_10  and  C_12
REMARK    6  A    between atoms: N_10  and  C_13
REMARK                            x       y       z     vdW  Elec       q    Type
REMARK                         _______ _______ _______ _____ _____    ______ ____
ROOT
ATOM      1  C   UNL A   1      37.216 -37.198 -30.375  0.00  0.00    +0.035 A 
ATOM      2  C   UNL A   1      37.234 -36.725 -29.065  0.00  0.00    -0.040 A 
ATOM      3  C   UNL A   1      36.742 -37.486 -27.998  0.00  0.00    -0.058 A 
ATOM      4  C   UNL A   1      36.212 -38.763 -28.208  0.00  0.00    -0.042 A 
ATOM      5  C   UNL A   1      36.139 -39.415 -29.556  0.00  0.00    +0.017 A 
ATOM      6  C   UNL A   1      36.714 -38.494 -30.616  0.00  0.00    -0.021 A 
ENDROOT
BRANCH   1  10
ATOM      7  C   UNL A   1      40.177 -36.778 -31.385  0.00  0.00    +0.012 C 
ATOM      8  C   UNL A   1      38.919 -36.306 -32.049  0.00  0.00    +0.214 C 
ATOM      9  O   UNL A   1      38.965 -35.690 -33.117  0.00  0.00    -0.276 OA
ATOM     10  N   UNL A   1      37.687 -36.495 -31.495  0.00  0.00    -0.286 N 
ATOM     11  H   UNL A   1      36.969 -36.037 -31.990  0.00  0.00    +0.000 HD
ENDBRANCH   1  10
BRANCH   5  12
ATOM     12  N   UNL A   1      35.757 -40.321 -29.739  0.00  0.00    -0.390 NA
ATOM     13  C   UNL A   1      35.011 -39.902 -30.256  0.00  0.00    -0.015 C 
ATOM     14  C   UNL A   1      35.376 -41.227 -29.923  0.00  0.00    -0.015 C 
ATOM     15  C   UNL A   1      36.504 -40.740 -29.223  0.00  0.00    -0.015 C 
ENDBRANCH   5  12
TORSDOF 2
ENDMDL
MODEL 18
REMARK VINA RESULT:    -5.240     31.575     32.639
REMARK INTER + INTRA:          -5.825
REMARK INTER:                  -5.857
REMARK INTRA:                   0.032
REMARK UNBOUND:                 0.028
REMARK  Name = cpd236.pdb
REMARK  6 active torsions:
REMARK  status: ('A' for Active; 'I' for Inactive)
REMARK    1  A    between atoms: C_1  and  C_2
REMARK    2  A    between atoms: N_4  and  C_5
REMARK    3  A    between atoms: C_9  and  N_10
REMARK    4  A    between atoms: N_10  and  C_11
REMARK    5  A    between atoms: N_10  and  C_12
REMARK    6  A    between atoms: N_10  and  C_13
REMARK                            x       y       z     vdW  Elec       q    Type
REMARK                         _______ _______ _______ _____ _____    ______ ____
ROOT
ATOM      1  C   UNL A   1      64.059 -23.631  -7.099  0.00  0.00    +0.035 A 
ATOM      2  C   UNL A   1      63.176 -23.290  -8.121  0.00  0.00    -0.040 A 
ATOM      3  C   UNL A   1      62.223 -24.194  -8.606  0.00  0.00    -0.058 A 
ATOM      4  C   UNL A   1      62.119 -25.485  -8.076  0.00  0.00    -0.042 A 
ATOM      5  C   UNL A   1      62.986 -25.992  -6.963  0.00  0.00    +0.017 A 
ATOM      6  C   UNL A   1      63.960 -24.915  -6.523  0.00  0.00    -0.021 A 
ENDROOT
BRANCH   1  10
ATOM      7  C   UNL A   1      63.855 -21.584  -4.705  0.00  0.00    +0.012 C 
ATOM      8  C   UNL A   1      65.077 -21.919  -5.507  0.00  0.00    +0.214 C 
ATOM      9  O   UNL A   1      66.160 -21.386  -5.255  0.00  0.00    -0.276 OA
ATOM     10  N   UNL A   1      65.040 -22.782  -6.562  0.00  0.00    -0.286 N 
ATOM     11  H   UNL A   1      65.891 -22.819  -7.057  0.00  0.00    +0.000 HD
ENDBRANCH   1  10
BRANCH   5  12
ATOM     12  N   UNL A   1      62.942 -26.910  -6.570  0.00  0.00    -0.390 NA
ATOM     13  C   UNL A   1      63.740 -26.706  -6.003  0.00  0.00    -0.015 C 
ATOM     14  C   UNL A   1      62.898 -27.829  -6.176  0.00  0.00    -0.015 C 
ATOM     15  C   UNL A   1      62.144 -27.115  -7.136  0.00  0.00    -0.015 C 
ENDBRANCH   5  12
TORSDOF 2
ENDMDL
MODEL 19
REMARK VINA RESULT:    -5.200     22.814     23.969
REMARK INTER + INTRA:          -5.780
REMARK INTER:                  -5.437
REMARK INTRA:                  -0.343
REMARK UNBOUND:                 0.028
REMARK  Name = cpd236.pdb
REMARK  6 active torsions:
REMARK  status: ('A' for Active; 'I' for Inactive)
REMARK    1  A    between atoms: C_1  and  C_2
REMARK    2  A    between atoms: N_4  and  C_5
REMARK    3  A    between atoms: C_9  and  N_10
REMARK    4  A    between atoms: N_10  and  C_11
REMARK    5  A    between atoms: N_10  and  C_12
REMARK    6  A    between atoms: N_10  and  C_13
REMARK                            x       y       z     vdW  Elec       q    Type
REMARK                         _______ _______ _______ _____ _____    ______ ____
ROOT
ATOM      1  C   UNL A   1      45.347 -19.054 -41.010  0.00  0.00    +0.035 A 
ATOM      2  C   UNL A   1      44.527 -19.172 -42.130  0.00  0.00    -0.040 A 
ATOM      3  C   UNL A   1      44.553 -20.307 -42.950  0.00  0.00    -0.058 A 
ATOM      4  C   UNL A   1      45.409 -21.378 -42.670  0.00  0.00    -0.042 A 
ATOM      5  C   UNL A   1      46.337 -21.407 -41.493  0.00  0.00    +0.017 A 
ATOM      6  C   UNL A   1      46.201 -20.129 -40.685  0.00  0.00    -0.021 A 
ENDROOT
BRANCH   1  10
ATOM      7  C   UNL A   1      47.296 -16.572 -40.993  0.00  0.00    +0.012 C 
ATOM      8  C   UNL A   1      46.126 -16.810 -40.086  0.00  0.00    +0.214 C 
ATOM      9  O   UNL A   1      45.822 -15.983 -39.223  0.00  0.00    -0.276 OA
ATOM     10  N   UNL A   1      45.380 -17.950 -40.145  0.00  0.00    -0.286 N 
ATOM     11  H   UNL A   1      44.717 -18.012 -39.419  0.00  0.00    +0.000 HD
ENDBRANCH   1  10
BRANCH   5  12
ATOM     12  N   UNL A   1      46.967 -22.152 -41.271  0.00  0.00    -0.390 NA
ATOM     13  C   UNL A   1      46.258 -22.585 -40.714  0.00  0.00    -0.015 C 
ATOM     14  C   UNL A   1      47.596 -22.897 -41.050  0.00  0.00    -0.015 C 
ATOM     15  C   UNL A   1      47.675 -21.719 -41.829  0.00  0.00    -0.015 C 
ENDBRANCH   5  12
TORSDOF 2
ENDMDL
MODEL 20
REMARK VINA RESULT:    -4.931     21.998     23.048
REMARK INTER + INTRA:          -5.479
REMARK INTER:                  -5.141
REMARK INTRA:                  -0.339
REMARK UNBOUND:                 0.028
REMARK  Name = cpd236.pdb
REMARK  6 active torsions:
REMARK  status: ('A' for Active; 'I' for Inactive)
REMARK    1  A    between atoms: C_1  and  C_2
REMARK    2  A    between atoms: N_4  and  C_5
REMARK    3  A    between atoms: C_9  and  N_10
REMARK    4  A    between atoms: N_10  and  C_11
REMARK    5  A    between atoms: N_10  and  C_12
REMARK    6  A    between atoms: N_10  and  C_13
REMARK                            x       y       z     vdW  Elec       q    Type
REMARK                         _______ _______ _______ _____ _____    ______ ____
ROOT
ATOM      1  C   UNL A   1      45.249 -19.658 -40.907  0.00  0.00    +0.035 A 
ATOM      2  C   UNL A   1      44.320 -19.872 -41.922  0.00  0.00    -0.040 A 
ATOM      3  C   UNL A   1      44.429 -20.950 -42.809  0.00  0.00    -0.058 A 
ATOM      4  C   UNL A   1      45.483 -21.863 -42.706  0.00  0.00    -0.042 A 
ATOM      5  C   UNL A   1      46.551 -21.777 -41.657  0.00  0.00    +0.017 A 
ATOM      6  C   UNL A   1      46.308 -20.578 -40.759  0.00  0.00    -0.021 A 
ENDROOT
BRANCH   1  10
ATOM      7  C   UNL A   1      43.872 -19.521 -38.070  0.00  0.00    +0.012 C 
ATOM      8  C   UNL A   1      44.704 -18.459 -38.724  0.00  0.00    +0.214 C 
ATOM      9  O   UNL A   1      44.930 -17.393 -38.146  0.00  0.00    -0.276 OA
ATOM     10  N   UNL A   1      45.208 -18.602 -39.983  0.00  0.00    -0.286 N 
ATOM     11  H   UNL A   1      45.640 -17.783 -40.319  0.00  0.00    +0.000 HD
ENDBRANCH   1  10
BRANCH   5  12
ATOM     12  N   UNL A   1      47.321 -22.408 -41.563  0.00  0.00    -0.390 NA
ATOM     13  C   UNL A   1      46.730 -23.059 -41.087  0.00  0.00    -0.015 C 
ATOM     14  C   UNL A   1      48.091 -23.039 -41.469  0.00  0.00    -0.015 C 
ATOM     15  C   UNL A   1      47.912 -21.757 -42.040  0.00  0.00    -0.015 C 
ENDBRANCH   5  12
TORSDOF 2
ENDMDL
