REMARK  Name = cpd211.pdb
REMARK  6 active torsions:
REMARK  status: ('A' for Active; 'I' for Inactive)
REMARK    1  A    between atoms: C_2  and  C_3
REMARK    2  A    between atoms: C_3  and  C_4
REMARK    3  A    between atoms: C_4  and  N_5
REMARK    4  A    between atoms: N_5  and  C_6
REMARK    5  A    between atoms: N_5  and  C_7
REMARK    6  A    between atoms: N_5  and  C_8
REMARK                            x       y       z     vdW  Elec       q    Type
REMARK                         _______ _______ _______ _____ _____    ______ ____
ROOT
ATOM      1  C   UNL     1      -1.000  -1.000   0.000  0.00  0.00    -0.085 C 
ENDROOT
BRANCH   1   2
ATOM      2  N   UNL     1       0.000  -1.000   0.000  0.00  0.00    +0.375 N 
ATOM      3  C   UNL     1       0.000  -2.000   0.000  0.00  0.00    -0.101 C 
ATOM      4  C   UNL     1       1.000  -1.000   0.000  0.00  0.00    -0.101 C 
ATOM      5  C   UNL     1       0.000   0.000   0.000  0.00  0.00    -0.101 C 
ENDBRANCH   1   2
BRANCH   1   6
ATOM      6  C   UNL     1      -2.341  -2.176   0.014  0.00  0.00    -0.050 C 
BRANCH   6   8
ATOM      7  C   UNL     1      -4.127  -0.324  -0.021  0.00  0.00    -0.103 C 
ATOM      8  C   UNL     1      -3.741  -1.606   0.002  0.00  0.00    -0.093 C 
ENDBRANCH   6   8
ENDBRANCH   1   6
TORSDOF 3
