@<TRIPOS>MOLECULE
*****
 8 7 0 0 0
SMALL
GASTEIGER

@<TRIPOS>ATOM
      1 C          -3.0000   -1.0000    0.0000 C.2     1  UNL1       -0.0047
      2 C          -2.5000   -1.8660    0.0000 C.2     1  UNL1       -0.0200
      3 C          -1.5000   -1.8660    0.0000 C.3     1  UNL1        0.0870
      4 C          -1.0000   -1.0000    0.0000 C.3     1  UNL1        0.1140
      5 N           0.0000   -1.0000    0.0000 N.4     1  UNL1        0.3108
      6 C           0.0000   -2.0000    0.0000 C.3     1  UNL1        0.1710
      7 C           1.0000   -1.0000    0.0000 C.3     1  UNL1        0.1710
      8 C           0.0000   -0.0000    0.0000 C.3     1  UNL1        0.1710
@<TRIPOS>UNITY_ATOM_ATTR
5 1
charge 1
@<TRIPOS>BOND
     1     1     2    2
     2     2     3    1
     3     3     4    1
     4     4     5    1
     5     5     6    1
     6     5     7    1
     7     5     8    1
