MODEL 1
REMARK VINA RESULT:    -4.359      0.000      0.000
REMARK INTER + INTRA:          -3.016
REMARK INTER:                  -4.613
REMARK INTRA:                   1.597
REMARK UNBOUND:                 1.597
REMARK  Name = cpd211.pdb
REMARK  6 active torsions:
REMARK  status: ('A' for Active; 'I' for Inactive)
REMARK    1  A    between atoms: C_2  and  C_3
REMARK    2  A    between atoms: C_3  and  C_4
REMARK    3  A    between atoms: C_4  and  N_5
REMARK    4  A    between atoms: N_5  and  C_6
REMARK    5  A    between atoms: N_5  and  C_7
REMARK    6  A    between atoms: N_5  and  C_8
REMARK                            x       y       z     vdW  Elec       q    Type
REMARK                         _______ _______ _______ _____ _____    ______ ____
ROOT
ATOM      1  C   UNL     1      40.352 -35.787 -32.101  0.00  0.00    -0.085 C 
ENDROOT
BRANCH   1   2
ATOM      2  N   UNL     1      39.646 -35.080 -32.085  0.00  0.00    +0.375 N 
ATOM      3  C   UNL     1      38.997 -35.719 -32.498  0.00  0.00    -0.101 C 
ATOM      4  C   UNL     1      38.939 -34.373 -32.069  0.00  0.00    -0.101 C 
ATOM      5  C   UNL     1      40.295 -34.441 -31.673  0.00  0.00    -0.101 C 
ENDBRANCH   1   2
BRANCH   1   6
ATOM      6  C   UNL     1      41.284 -36.779 -30.948  0.00  0.00    -0.050 C 
BRANCH   6   8
ATOM      7  C   UNL     1      42.780 -38.872 -30.905  0.00  0.00    -0.103 C 
ATOM      8  C   UNL     1      42.126 -37.888 -31.535  0.00  0.00    -0.093 C 
ENDBRANCH   6   8
ENDBRANCH   1   6
TORSDOF 3
ENDMDL
MODEL 2
REMARK VINA RESULT:    -4.188      8.109      9.164
REMARK INTER + INTRA:          -2.836
REMARK INTER:                  -4.397
REMARK INTRA:                   1.560
REMARK UNBOUND:                 1.597
REMARK  Name = cpd211.pdb
REMARK  6 active torsions:
REMARK  status: ('A' for Active; 'I' for Inactive)
REMARK    1  A    between atoms: C_2  and  C_3
REMARK    2  A    between atoms: C_3  and  C_4
REMARK    3  A    between atoms: C_4  and  N_5
REMARK    4  A    between atoms: N_5  and  C_6
REMARK    5  A    between atoms: N_5  and  C_7
REMARK    6  A    between atoms: N_5  and  C_8
REMARK                            x       y       z     vdW  Elec       q    Type
REMARK                         _______ _______ _______ _____ _____    ______ ____
ROOT
ATOM      1  C   UNL     1      48.720 -38.219 -29.388  0.00  0.00    -0.085 C 
ENDROOT
BRANCH   1   2
ATOM      2  N   UNL     1      49.555 -37.669 -29.419  0.00  0.00    +0.375 N 
ATOM      3  C   UNL     1      49.222 -37.210 -30.243  0.00  0.00    -0.101 C 
ATOM      4  C   UNL     1      50.389 -37.118 -29.450  0.00  0.00    -0.101 C 
ATOM      5  C   UNL     1      49.887 -38.127 -28.595  0.00  0.00    -0.101 C 
ENDBRANCH   1   2
BRANCH   1   6
ATOM      6  C   UNL     1      48.174 -39.853 -29.850  0.00  0.00    -0.050 C 
BRANCH   6   8
ATOM      7  C   UNL     1      46.020 -41.250 -30.023  0.00  0.00    -0.103 C 
ATOM      8  C   UNL     1      46.692 -40.129 -29.734  0.00  0.00    -0.093 C 
ENDBRANCH   6   8
ENDBRANCH   1   6
TORSDOF 3
ENDMDL
MODEL 3
REMARK VINA RESULT:    -4.162      6.683      7.869
REMARK INTER + INTRA:          -2.809
REMARK INTER:                  -4.598
REMARK INTRA:                   1.789
REMARK UNBOUND:                 1.597
REMARK  Name = cpd211.pdb
REMARK  6 active torsions:
REMARK  status: ('A' for Active; 'I' for Inactive)
REMARK    1  A    between atoms: C_2  and  C_3
REMARK    2  A    between atoms: C_3  and  C_4
REMARK    3  A    between atoms: C_4  and  N_5
REMARK    4  A    between atoms: N_5  and  C_6
REMARK    5  A    between atoms: N_5  and  C_7
REMARK    6  A    between atoms: N_5  and  C_8
REMARK                            x       y       z     vdW  Elec       q    Type
REMARK                         _______ _______ _______ _____ _____    ______ ____
ROOT
ATOM      1  C   UNL     1      45.764 -41.203 -29.419  0.00  0.00    -0.085 C 
ENDROOT
BRANCH   1   2
ATOM      2  N   UNL     1      45.058 -40.643 -28.986  0.00  0.00    +0.375 N 
ATOM      3  C   UNL     1      45.445 -40.849 -28.087  0.00  0.00    -0.101 C 
ATOM      4  C   UNL     1      44.351 -40.083 -28.552  0.00  0.00    -0.101 C 
ATOM      5  C   UNL     1      44.670 -40.436 -29.884  0.00  0.00    -0.101 C 
ENDBRANCH   1   2
BRANCH   1   6
ATOM      6  C   UNL     1      47.127 -41.001 -30.552  0.00  0.00    -0.050 C 
BRANCH   6   8
ATOM      7  C   UNL     1      49.321 -39.679 -30.795  0.00  0.00    -0.103 C 
ATOM      8  C   UNL     1      48.244 -40.084 -30.109  0.00  0.00    -0.093 C 
ENDBRANCH   6   8
ENDBRANCH   1   6
TORSDOF 3
ENDMDL
MODEL 4
REMARK VINA RESULT:    -4.126     33.973     34.754
REMARK INTER + INTRA:          -2.771
REMARK INTER:                  -4.396
REMARK INTRA:                   1.626
REMARK UNBOUND:                 1.597
REMARK  Name = cpd211.pdb
REMARK  6 active torsions:
REMARK  status: ('A' for Active; 'I' for Inactive)
REMARK    1  A    between atoms: C_2  and  C_3
REMARK    2  A    between atoms: C_3  and  C_4
REMARK    3  A    between atoms: C_4  and  N_5
REMARK    4  A    between atoms: N_5  and  C_6
REMARK    5  A    between atoms: N_5  and  C_7
REMARK    6  A    between atoms: N_5  and  C_8
REMARK                            x       y       z     vdW  Elec       q    Type
REMARK                         _______ _______ _______ _____ _____    ______ ____
ROOT
ATOM      1  C   UNL     1      63.242 -25.448  -7.439  0.00  0.00    -0.085 C 
ENDROOT
BRANCH   1   2
ATOM      2  N   UNL     1      63.178 -26.305  -6.927  0.00  0.00    +0.375 N 
ATOM      3  C   UNL     1      62.181 -26.275  -7.002  0.00  0.00    -0.101 C 
ATOM      4  C   UNL     1      63.114 -27.161  -6.415  0.00  0.00    -0.101 C 
ATOM      5  C   UNL     1      64.175 -26.335  -6.853  0.00  0.00    -0.101 C 
ENDBRANCH   1   2
BRANCH   1   6
ATOM      6  C   UNL     1      62.864 -24.828  -9.068  0.00  0.00    -0.050 C 
BRANCH   6   8
ATOM      7  C   UNL     1      63.716 -22.948 -10.605  0.00  0.00    -0.103 C 
ATOM      8  C   UNL     1      63.894 -23.923  -9.704  0.00  0.00    -0.093 C 
ENDBRANCH   6   8
ENDBRANCH   1   6
TORSDOF 3
ENDMDL
MODEL 5
REMARK VINA RESULT:    -4.076     33.585     34.394
REMARK INTER + INTRA:          -2.717
REMARK INTER:                  -4.363
REMARK INTRA:                   1.646
REMARK UNBOUND:                 1.597
REMARK  Name = cpd211.pdb
REMARK  6 active torsions:
REMARK  status: ('A' for Active; 'I' for Inactive)
REMARK    1  A    between atoms: C_2  and  C_3
REMARK    2  A    between atoms: C_3  and  C_4
REMARK    3  A    between atoms: C_4  and  N_5
REMARK    4  A    between atoms: N_5  and  C_6
REMARK    5  A    between atoms: N_5  and  C_7
REMARK    6  A    between atoms: N_5  and  C_8
REMARK                            x       y       z     vdW  Elec       q    Type
REMARK                         _______ _______ _______ _____ _____    ______ ____
ROOT
ATOM      1  C   UNL     1      63.068 -24.961  -8.017  0.00  0.00    -0.085 C 
ENDROOT
BRANCH   1   2
ATOM      2  N   UNL     1      63.137 -24.610  -8.951  0.00  0.00    +0.375 N 
ATOM      3  C   UNL     1      62.141 -24.529  -8.994  0.00  0.00    -0.101 C 
ATOM      4  C   UNL     1      63.205 -24.259  -9.885  0.00  0.00    -0.101 C 
ATOM      5  C   UNL     1      64.132 -24.691  -8.909  0.00  0.00    -0.101 C 
ENDBRANCH   1   2
BRANCH   1   6
ATOM      6  C   UNL     1      62.327 -26.334  -7.152  0.00  0.00    -0.050 C 
BRANCH   6   8
ATOM      7  C   UNL     1      63.387 -28.397  -6.038  0.00  0.00    -0.103 C 
ATOM      8  C   UNL     1      63.213 -27.077  -6.177  0.00  0.00    -0.093 C 
ENDBRANCH   6   8
ENDBRANCH   1   6
TORSDOF 3
ENDMDL
MODEL 6
REMARK VINA RESULT:    -4.045     17.691     18.944
REMARK INTER + INTRA:          -2.684
REMARK INTER:                  -4.235
REMARK INTRA:                   1.550
REMARK UNBOUND:                 1.597
REMARK  Name = cpd211.pdb
REMARK  6 active torsions:
REMARK  status: ('A' for Active; 'I' for Inactive)
REMARK    1  A    between atoms: C_2  and  C_3
REMARK    2  A    between atoms: C_3  and  C_4
REMARK    3  A    between atoms: C_4  and  N_5
REMARK    4  A    between atoms: N_5  and  C_6
REMARK    5  A    between atoms: N_5  and  C_7
REMARK    6  A    between atoms: N_5  and  C_8
REMARK                            x       y       z     vdW  Elec       q    Type
REMARK                         _______ _______ _______ _____ _____    ______ ____
ROOT
ATOM      1  C   UNL     1      47.235 -22.371 -41.877  0.00  0.00    -0.085 C 
ENDROOT
BRANCH   1   2
ATOM      2  N   UNL     1      48.106 -22.391 -41.386  0.00  0.00    +0.375 N 
ATOM      3  C   UNL     1      48.329 -21.485 -41.747  0.00  0.00    -0.101 C 
ATOM      4  C   UNL     1      48.977 -22.410 -40.895  0.00  0.00    -0.101 C 
ATOM      5  C   UNL     1      47.883 -23.296 -41.025  0.00  0.00    -0.101 C 
ENDBRANCH   1   2
BRANCH   1   6
ATOM      6  C   UNL     1      45.534 -21.930 -41.572  0.00  0.00    -0.050 C 
BRANCH   6   8
ATOM      7  C   UNL     1      44.478 -19.980 -42.878  0.00  0.00    -0.103 C 
ATOM      8  C   UNL     1      44.791 -21.271 -42.712  0.00  0.00    -0.093 C 
ENDBRANCH   6   8
ENDBRANCH   1   6
TORSDOF 3
ENDMDL
MODEL 7
REMARK VINA RESULT:    -3.944      2.010      2.300
REMARK INTER + INTRA:          -2.578
REMARK INTER:                  -4.195
REMARK INTRA:                   1.617
REMARK UNBOUND:                 1.597
REMARK  Name = cpd211.pdb
REMARK  6 active torsions:
REMARK  status: ('A' for Active; 'I' for Inactive)
REMARK    1  A    between atoms: C_2  and  C_3
REMARK    2  A    between atoms: C_3  and  C_4
REMARK    3  A    between atoms: C_4  and  N_5
REMARK    4  A    between atoms: N_5  and  C_6
REMARK    5  A    between atoms: N_5  and  C_7
REMARK    6  A    between atoms: N_5  and  C_8
REMARK                            x       y       z     vdW  Elec       q    Type
REMARK                         _______ _______ _______ _____ _____    ______ ____
ROOT
ATOM      1  C   UNL     1      38.923 -36.904 -30.804  0.00  0.00    -0.085 C 
ENDROOT
BRANCH   1   2
ATOM      2  N   UNL     1      38.088 -36.407 -30.568  0.00  0.00    +0.375 N 
ATOM      3  C   UNL     1      37.987 -36.966 -29.745  0.00  0.00    -0.101 C 
ATOM      4  C   UNL     1      37.252 -35.910 -30.333  0.00  0.00    -0.101 C 
ATOM      5  C   UNL     1      38.188 -35.848 -31.391  0.00  0.00    -0.101 C 
ENDBRANCH   1   2
BRANCH   1   6
ATOM      6  C   UNL     1      40.627 -36.985 -30.283  0.00  0.00    -0.050 C 
BRANCH   6   8
ATOM      7  C   UNL     1      42.270 -37.598 -32.166  0.00  0.00    -0.103 C 
ATOM      8  C   UNL     1      41.672 -36.726 -31.344  0.00  0.00    -0.093 C 
ENDBRANCH   6   8
ENDBRANCH   1   6
TORSDOF 3
ENDMDL
MODEL 8
REMARK VINA RESULT:    -3.943      2.431      3.518
REMARK INTER + INTRA:          -2.577
REMARK INTER:                  -4.160
REMARK INTRA:                   1.583
REMARK UNBOUND:                 1.597
REMARK  Name = cpd211.pdb
REMARK  6 active torsions:
REMARK  status: ('A' for Active; 'I' for Inactive)
REMARK    1  A    between atoms: C_2  and  C_3
REMARK    2  A    between atoms: C_3  and  C_4
REMARK    3  A    between atoms: C_4  and  N_5
REMARK    4  A    between atoms: N_5  and  C_6
REMARK    5  A    between atoms: N_5  and  C_7
REMARK    6  A    between atoms: N_5  and  C_8
REMARK                            x       y       z     vdW  Elec       q    Type
REMARK                         _______ _______ _______ _____ _____    ______ ____
ROOT
ATOM      1  C   UNL     1      40.456 -36.883 -30.740  0.00  0.00    -0.085 C 
ENDROOT
BRANCH   1   2
ATOM      2  N   UNL     1      41.200 -37.060 -31.385  0.00  0.00    +0.375 N 
ATOM      3  C   UNL     1      41.495 -37.838 -30.830  0.00  0.00    -0.101 C 
ATOM      4  C   UNL     1      41.944 -37.237 -32.029  0.00  0.00    -0.101 C 
ATOM      5  C   UNL     1      40.905 -36.282 -31.939  0.00  0.00    -0.101 C 
ENDBRANCH   1   2
BRANCH   1   6
ATOM      6  C   UNL     1      38.736 -37.305 -30.529  0.00  0.00    -0.050 C 
BRANCH   6   8
ATOM      7  C   UNL     1      38.463 -38.341 -28.190  0.00  0.00    -0.103 C 
ATOM      8  C   UNL     1      38.231 -37.394 -29.107  0.00  0.00    -0.093 C 
ENDBRANCH   6   8
ENDBRANCH   1   6
TORSDOF 3
ENDMDL
MODEL 9
REMARK VINA RESULT:    -3.941     25.758     26.275
REMARK INTER + INTRA:          -2.574
REMARK INTER:                  -4.154
REMARK INTRA:                   1.580
REMARK UNBOUND:                 1.597
REMARK  Name = cpd211.pdb
REMARK  6 active torsions:
REMARK  status: ('A' for Active; 'I' for Inactive)
REMARK    1  A    between atoms: C_2  and  C_3
REMARK    2  A    between atoms: C_3  and  C_4
REMARK    3  A    between atoms: C_4  and  N_5
REMARK    4  A    between atoms: N_5  and  C_6
REMARK    5  A    between atoms: N_5  and  C_7
REMARK    6  A    between atoms: N_5  and  C_8
REMARK                            x       y       z     vdW  Elec       q    Type
REMARK                         _______ _______ _______ _____ _____    ______ ____
ROOT
ATOM      1  C   UNL     1      57.156 -22.659 -46.826  0.00  0.00    -0.085 C 
ENDROOT
BRANCH   1   2
ATOM      2  N   UNL     1      57.056 -21.750 -46.423  0.00  0.00    +0.375 N 
ATOM      3  C   UNL     1      58.049 -21.638 -46.429  0.00  0.00    -0.101 C 
ATOM      4  C   UNL     1      56.956 -20.840 -46.020  0.00  0.00    -0.101 C 
ATOM      5  C   UNL     1      56.062 -21.862 -46.417  0.00  0.00    -0.101 C 
ENDBRANCH   1   2
BRANCH   1   6
ATOM      6  C   UNL     1      57.074 -23.431 -48.433  0.00  0.00    -0.050 C 
BRANCH   6   8
ATOM      7  C   UNL     1      57.356 -25.987 -48.371  0.00  0.00    -0.103 C 
ATOM      8  C   UNL     1      56.621 -24.872 -48.469  0.00  0.00    -0.093 C 
ENDBRANCH   6   8
ENDBRANCH   1   6
TORSDOF 3
ENDMDL
MODEL 10
REMARK VINA RESULT:    -3.897      2.073      3.453
REMARK INTER + INTRA:          -2.528
REMARK INTER:                  -4.080
REMARK INTRA:                   1.552
REMARK UNBOUND:                 1.597
REMARK  Name = cpd211.pdb
REMARK  6 active torsions:
REMARK  status: ('A' for Active; 'I' for Inactive)
REMARK    1  A    between atoms: C_2  and  C_3
REMARK    2  A    between atoms: C_3  and  C_4
REMARK    3  A    between atoms: C_4  and  N_5
REMARK    4  A    between atoms: N_5  and  C_6
REMARK    5  A    between atoms: N_5  and  C_7
REMARK    6  A    between atoms: N_5  and  C_8
REMARK                            x       y       z     vdW  Elec       q    Type
REMARK                         _______ _______ _______ _____ _____    ______ ____
ROOT
ATOM      1  C   UNL     1      40.505 -36.682 -31.453  0.00  0.00    -0.085 C 
ENDROOT
BRANCH   1   2
ATOM      2  N   UNL     1      41.454 -36.369 -31.469  0.00  0.00    +0.375 N 
ATOM      3  C   UNL     1      41.343 -36.079 -32.419  0.00  0.00    -0.101 C 
ATOM      4  C   UNL     1      42.404 -36.056 -31.484  0.00  0.00    -0.101 C 
ATOM      5  C   UNL     1      41.566 -36.660 -30.518  0.00  0.00    -0.101 C 
ENDBRANCH   1   2
BRANCH   1   6
ATOM      6  C   UNL     1      38.886 -36.037 -31.073  0.00  0.00    -0.050 C 
BRANCH   6   8
ATOM      7  C   UNL     1      37.559 -37.003 -29.091  0.00  0.00    -0.103 C 
ATOM      8  C   UNL     1      37.929 -36.978 -30.378  0.00  0.00    -0.093 C 
ENDBRANCH   6   8
ENDBRANCH   1   6
TORSDOF 3
ENDMDL
MODEL 11
REMARK VINA RESULT:    -3.846      1.830      2.411
REMARK INTER + INTRA:          -2.474
REMARK INTER:                  -4.086
REMARK INTRA:                   1.612
REMARK UNBOUND:                 1.597
REMARK  Name = cpd211.pdb
REMARK  6 active torsions:
REMARK  status: ('A' for Active; 'I' for Inactive)
REMARK    1  A    between atoms: C_2  and  C_3
REMARK    2  A    between atoms: C_3  and  C_4
REMARK    3  A    between atoms: C_4  and  N_5
REMARK    4  A    between atoms: N_5  and  C_6
REMARK    5  A    between atoms: N_5  and  C_7
REMARK    6  A    between atoms: N_5  and  C_8
REMARK                            x       y       z     vdW  Elec       q    Type
REMARK                         _______ _______ _______ _____ _____    ______ ____
ROOT
ATOM      1  C   UNL     1      40.998 -36.438 -31.006  0.00  0.00    -0.085 C 
ENDROOT
BRANCH   1   2
ATOM      2  N   UNL     1      40.826 -36.121 -31.938  0.00  0.00    +0.375 N 
ATOM      3  C   UNL     1      39.849 -36.052 -31.735  0.00  0.00    -0.101 C 
ATOM      4  C   UNL     1      40.655 -35.804 -32.871  0.00  0.00    -0.101 C 
ATOM      5  C   UNL     1      41.803 -36.190 -32.142  0.00  0.00    -0.101 C 
ENDBRANCH   1   2
BRANCH   1   6
ATOM      6  C   UNL     1      41.321 -37.968 -30.148  0.00  0.00    -0.050 C 
BRANCH   6   8
ATOM      7  C   UNL     1      39.309 -38.381 -28.597  0.00  0.00    -0.103 C 
ATOM      8  C   UNL     1      40.611 -38.167 -28.828  0.00  0.00    -0.093 C 
ENDBRANCH   6   8
ENDBRANCH   1   6
TORSDOF 3
ENDMDL
MODEL 12
REMARK VINA RESULT:    -3.639     25.981     26.744
REMARK INTER + INTRA:          -2.254
REMARK INTER:                  -3.827
REMARK INTRA:                   1.572
REMARK UNBOUND:                 1.597
REMARK  Name = cpd211.pdb
REMARK  6 active torsions:
REMARK  status: ('A' for Active; 'I' for Inactive)
REMARK    1  A    between atoms: C_2  and  C_3
REMARK    2  A    between atoms: C_3  and  C_4
REMARK    3  A    between atoms: C_4  and  N_5
REMARK    4  A    between atoms: N_5  and  C_6
REMARK    5  A    between atoms: N_5  and  C_7
REMARK    6  A    between atoms: N_5  and  C_8
REMARK                            x       y       z     vdW  Elec       q    Type
REMARK                         _______ _______ _______ _____ _____    ______ ____
ROOT
ATOM      1  C   UNL     1      56.712 -22.093 -47.751  0.00  0.00    -0.085 C 
ENDROOT
BRANCH   1   2
ATOM      2  N   UNL     1      57.010 -22.948 -48.175  0.00  0.00    +0.375 N 
ATOM      3  C   UNL     1      57.937 -22.795 -47.833  0.00  0.00    -0.101 C 
ATOM      4  C   UNL     1      57.307 -23.804 -48.599  0.00  0.00    -0.101 C 
ATOM      5  C   UNL     1      56.083 -23.101 -48.517  0.00  0.00    -0.101 C 
ENDBRANCH   1   2
BRANCH   1   6
ATOM      6  C   UNL     1      55.793 -21.554 -46.321  0.00  0.00    -0.050 C 
BRANCH   6   8
ATOM      7  C   UNL     1      56.805 -19.483 -45.178  0.00  0.00    -0.103 C 
ATOM      8  C   UNL     1      55.903 -20.090 -45.959  0.00  0.00    -0.093 C 
ENDBRANCH   6   8
ENDBRANCH   1   6
TORSDOF 3
ENDMDL
MODEL 13
REMARK VINA RESULT:    -3.636     21.050     21.709
REMARK INTER + INTRA:          -2.252
REMARK INTER:                  -3.885
REMARK INTRA:                   1.633
REMARK UNBOUND:                 1.597
REMARK  Name = cpd211.pdb
REMARK  6 active torsions:
REMARK  status: ('A' for Active; 'I' for Inactive)
REMARK    1  A    between atoms: C_2  and  C_3
REMARK    2  A    between atoms: C_3  and  C_4
REMARK    3  A    between atoms: C_4  and  N_5
REMARK    4  A    between atoms: N_5  and  C_6
REMARK    5  A    between atoms: N_5  and  C_7
REMARK    6  A    between atoms: N_5  and  C_8
REMARK                            x       y       z     vdW  Elec       q    Type
REMARK                         _______ _______ _______ _____ _____    ______ ____
ROOT
ATOM      1  C   UNL     1      55.476 -34.947 -46.797  0.00  0.00    -0.085 C 
ENDROOT
BRANCH   1   2
ATOM      2  N   UNL     1      54.613 -34.987 -46.294  0.00  0.00    +0.375 N 
ATOM      3  C   UNL     1      54.296 -35.721 -46.896  0.00  0.00    -0.101 C 
ATOM      4  C   UNL     1      53.749 -35.028 -45.791  0.00  0.00    -0.101 C 
ATOM      5  C   UNL     1      54.929 -34.254 -45.692  0.00  0.00    -0.101 C 
ENDBRANCH   1   2
BRANCH   1   6
ATOM      6  C   UNL     1      56.353 -33.822 -47.867  0.00  0.00    -0.050 C 
BRANCH   6   8
ATOM      7  C   UNL     1      55.952 -33.679 -50.405  0.00  0.00    -0.103 C 
ATOM      8  C   UNL     1      56.494 -34.235 -49.314  0.00  0.00    -0.093 C 
ENDBRANCH   6   8
ENDBRANCH   1   6
TORSDOF 3
ENDMDL
MODEL 14
REMARK VINA RESULT:    -3.620     20.867     21.714
REMARK INTER + INTRA:          -2.235
REMARK INTER:                  -3.825
REMARK INTRA:                   1.590
REMARK UNBOUND:                 1.597
REMARK  Name = cpd211.pdb
REMARK  6 active torsions:
REMARK  status: ('A' for Active; 'I' for Inactive)
REMARK    1  A    between atoms: C_2  and  C_3
REMARK    2  A    between atoms: C_3  and  C_4
REMARK    3  A    between atoms: C_4  and  N_5
REMARK    4  A    between atoms: N_5  and  C_6
REMARK    5  A    between atoms: N_5  and  C_7
REMARK    6  A    between atoms: N_5  and  C_8
REMARK                            x       y       z     vdW  Elec       q    Type
REMARK                         _______ _______ _______ _____ _____    ______ ____
ROOT
ATOM      1  C   UNL     1      55.223 -36.266 -47.516  0.00  0.00    -0.085 C 
ENDROOT
BRANCH   1   2
ATOM      2  N   UNL     1      55.327 -37.183 -47.900  0.00  0.00    +0.375 N 
ATOM      3  C   UNL     1      56.299 -37.006 -48.059  0.00  0.00    -0.101 C 
ATOM      4  C   UNL     1      55.432 -38.101 -48.285  0.00  0.00    -0.101 C 
ATOM      5  C   UNL     1      54.356 -37.360 -47.742  0.00  0.00    -0.101 C 
ENDBRANCH   1   2
BRANCH   1   6
ATOM      6  C   UNL     1      55.188 -35.478 -45.916  0.00  0.00    -0.050 C 
BRANCH   6   8
ATOM      7  C   UNL     1      56.118 -33.098 -46.213  0.00  0.00    -0.103 C 
ATOM      8  C   UNL     1      55.147 -33.967 -45.907  0.00  0.00    -0.093 C 
ENDBRANCH   6   8
ENDBRANCH   1   6
TORSDOF 3
ENDMDL
MODEL 15
REMARK VINA RESULT:    -3.620     21.745     22.424
REMARK INTER + INTRA:          -2.235
REMARK INTER:                  -3.858
REMARK INTRA:                   1.624
REMARK UNBOUND:                 1.597
REMARK  Name = cpd211.pdb
REMARK  6 active torsions:
REMARK  status: ('A' for Active; 'I' for Inactive)
REMARK    1  A    between atoms: C_2  and  C_3
REMARK    2  A    between atoms: C_3  and  C_4
REMARK    3  A    between atoms: C_4  and  N_5
REMARK    4  A    between atoms: N_5  and  C_6
REMARK    5  A    between atoms: N_5  and  C_7
REMARK    6  A    between atoms: N_5  and  C_8
REMARK                            x       y       z     vdW  Elec       q    Type
REMARK                         _______ _______ _______ _____ _____    ______ ____
ROOT
ATOM      1  C   UNL     1      56.501 -34.609 -47.979  0.00  0.00    -0.085 C 
ENDROOT
BRANCH   1   2
ATOM      2  N   UNL     1      56.370 -34.583 -48.970  0.00  0.00    +0.375 N 
ATOM      3  C   UNL     1      56.744 -33.656 -48.995  0.00  0.00    -0.101 C 
ATOM      4  C   UNL     1      56.240 -34.557 -49.961  0.00  0.00    -0.101 C 
ATOM      5  C   UNL     1      55.997 -35.510 -48.945  0.00  0.00    -0.101 C 
ENDBRANCH   1   2
BRANCH   1   6
ATOM      6  C   UNL     1      55.825 -33.843 -46.517  0.00  0.00    -0.050 C 
BRANCH   6   8
ATOM      7  C   UNL     1      53.703 -34.967 -45.592  0.00  0.00    -0.103 C 
ATOM      8  C   UNL     1      55.021 -34.733 -45.596  0.00  0.00    -0.093 C 
ENDBRANCH   6   8
ENDBRANCH   1   6
TORSDOF 3
ENDMDL
MODEL 16
REMARK VINA RESULT:    -3.576     20.686     21.373
REMARK INTER + INTRA:          -2.188
REMARK INTER:                  -3.728
REMARK INTRA:                   1.540
REMARK UNBOUND:                 1.597
REMARK  Name = cpd211.pdb
REMARK  6 active torsions:
REMARK  status: ('A' for Active; 'I' for Inactive)
REMARK    1  A    between atoms: C_2  and  C_3
REMARK    2  A    between atoms: C_3  and  C_4
REMARK    3  A    between atoms: C_4  and  N_5
REMARK    4  A    between atoms: N_5  and  C_6
REMARK    5  A    between atoms: N_5  and  C_7
REMARK    6  A    between atoms: N_5  and  C_8
REMARK                            x       y       z     vdW  Elec       q    Type
REMARK                         _______ _______ _______ _____ _____    ______ ____
ROOT
ATOM      1  C   UNL     1      55.091 -35.934 -46.612  0.00  0.00    -0.085 C 
ENDROOT
BRANCH   1   2
ATOM      2  N   UNL     1      54.299 -35.463 -46.225  0.00  0.00    +0.375 N 
ATOM      3  C   UNL     1      54.879 -35.075 -45.509  0.00  0.00    -0.101 C 
ATOM      4  C   UNL     1      53.506 -34.991 -45.837  0.00  0.00    -0.101 C 
ATOM      5  C   UNL     1      53.718 -35.850 -46.941  0.00  0.00    -0.101 C 
ENDBRANCH   1   2
BRANCH   1   6
ATOM      6  C   UNL     1      56.372 -35.635 -47.816  0.00  0.00    -0.050 C 
BRANCH   6   8
ATOM      7  C   UNL     1      56.666 -37.314 -49.744  0.00  0.00    -0.103 C 
ATOM      8  C   UNL     1      56.938 -36.848 -48.518  0.00  0.00    -0.093 C 
ENDBRANCH   6   8
ENDBRANCH   1   6
TORSDOF 3
ENDMDL
MODEL 17
REMARK VINA RESULT:    -3.511     30.388     31.386
REMARK INTER + INTRA:          -2.120
REMARK INTER:                  -3.662
REMARK INTRA:                   1.542
REMARK UNBOUND:                 1.597
REMARK  Name = cpd211.pdb
REMARK  6 active torsions:
REMARK  status: ('A' for Active; 'I' for Inactive)
REMARK    1  A    between atoms: C_2  and  C_3
REMARK    2  A    between atoms: C_3  and  C_4
REMARK    3  A    between atoms: C_4  and  N_5
REMARK    4  A    between atoms: N_5  and  C_6
REMARK    5  A    between atoms: N_5  and  C_7
REMARK    6  A    between atoms: N_5  and  C_8
REMARK                            x       y       z     vdW  Elec       q    Type
REMARK                         _______ _______ _______ _____ _____    ______ ____
ROOT
ATOM      1  C   UNL     1      63.310 -14.891 -30.527  0.00  0.00    -0.085 C 
ENDROOT
BRANCH   1   2
ATOM      2  N   UNL     1      64.266 -14.929 -30.234  0.00  0.00    +0.375 N 
ATOM      3  C   UNL     1      64.095 -14.192 -29.580  0.00  0.00    -0.101 C 
ATOM      4  C   UNL     1      65.221 -14.968 -29.940  0.00  0.00    -0.101 C 
ATOM      5  C   UNL     1      64.436 -15.667 -30.887  0.00  0.00    -0.101 C 
ENDBRANCH   1   2
BRANCH   1   6
ATOM      6  C   UNL     1      62.276 -13.912 -31.601  0.00  0.00    -0.050 C 
BRANCH   6   8
ATOM      7  C   UNL     1      59.726 -13.702 -31.331  0.00  0.00    -0.103 C 
ATOM      8  C   UNL     1      60.832 -14.343 -31.727  0.00  0.00    -0.093 C 
ENDBRANCH   6   8
ENDBRANCH   1   6
TORSDOF 3
ENDMDL
MODEL 18
REMARK VINA RESULT:    -3.388     29.692     30.543
REMARK INTER + INTRA:          -1.989
REMARK INTER:                  -3.563
REMARK INTRA:                   1.574
REMARK UNBOUND:                 1.597
REMARK  Name = cpd211.pdb
REMARK  6 active torsions:
REMARK  status: ('A' for Active; 'I' for Inactive)
REMARK    1  A    between atoms: C_2  and  C_3
REMARK    2  A    between atoms: C_3  and  C_4
REMARK    3  A    between atoms: C_4  and  N_5
REMARK    4  A    between atoms: N_5  and  C_6
REMARK    5  A    between atoms: N_5  and  C_7
REMARK    6  A    between atoms: N_5  and  C_8
REMARK                            x       y       z     vdW  Elec       q    Type
REMARK                         _______ _______ _______ _____ _____    ______ ____
ROOT
ATOM      1  C   UNL     1      61.370 -14.303 -30.757  0.00  0.00    -0.085 C 
ENDROOT
BRANCH   1   2
ATOM      2  N   UNL     1      60.483 -13.844 -30.700  0.00  0.00    +0.375 N 
ATOM      3  C   UNL     1      60.688 -13.564 -29.763  0.00  0.00    -0.101 C 
ATOM      4  C   UNL     1      59.596 -13.385 -30.644  0.00  0.00    -0.101 C 
ATOM      5  C   UNL     1      60.278 -14.124 -31.638  0.00  0.00    -0.101 C 
ENDBRANCH   1   2
BRANCH   1   6
ATOM      6  C   UNL     1      62.998 -13.997 -31.418  0.00  0.00    -0.050 C 
BRANCH   6   8
ATOM      7  C   UNL     1      64.652 -15.908 -30.936  0.00  0.00    -0.103 C 
ATOM      8  C   UNL     1      64.150 -14.685 -30.723  0.00  0.00    -0.093 C 
ENDBRANCH   6   8
ENDBRANCH   1   6
TORSDOF 3
ENDMDL
MODEL 19
REMARK VINA RESULT:    -3.387     35.587     36.406
REMARK INTER + INTRA:          -1.988
REMARK INTER:                  -3.558
REMARK INTRA:                   1.571
REMARK UNBOUND:                 1.597
REMARK  Name = cpd211.pdb
REMARK  6 active torsions:
REMARK  status: ('A' for Active; 'I' for Inactive)
REMARK    1  A    between atoms: C_2  and  C_3
REMARK    2  A    between atoms: C_3  and  C_4
REMARK    3  A    between atoms: C_4  and  N_5
REMARK    4  A    between atoms: N_5  and  C_6
REMARK    5  A    between atoms: N_5  and  C_7
REMARK    6  A    between atoms: N_5  and  C_8
REMARK                            x       y       z     vdW  Elec       q    Type
REMARK                         _______ _______ _______ _____ _____    ______ ____
ROOT
ATOM      1  C   UNL     1      63.607 -25.120  -6.423  0.00  0.00    -0.085 C 
ENDROOT
BRANCH   1   2
ATOM      2  N   UNL     1      62.774 -25.213  -6.969  0.00  0.00    +0.375 N 
ATOM      3  C   UNL     1      62.714 -24.217  -7.047  0.00  0.00    -0.101 C 
ATOM      4  C   UNL     1      61.941 -25.306  -7.515  0.00  0.00    -0.101 C 
ATOM      5  C   UNL     1      62.834 -26.208  -6.891  0.00  0.00    -0.101 C 
ENDBRANCH   1   2
BRANCH   1   6
ATOM      6  C   UNL     1      64.127 -25.310  -4.728  0.00  0.00    -0.050 C 
BRANCH   6   8
ATOM      7  C   UNL     1      64.620 -23.140  -3.436  0.00  0.00    -0.103 C 
ATOM      8  C   UNL     1      64.988 -24.207  -4.157  0.00  0.00    -0.093 C 
ENDBRANCH   6   8
ENDBRANCH   1   6
TORSDOF 3
ENDMDL
MODEL 20
REMARK VINA RESULT:    -3.224     35.162     36.029
REMARK INTER + INTRA:          -1.816
REMARK INTER:                  -3.371
REMARK INTRA:                   1.556
REMARK UNBOUND:                 1.597
REMARK  Name = cpd211.pdb
REMARK  6 active torsions:
REMARK  status: ('A' for Active; 'I' for Inactive)
REMARK    1  A    between atoms: C_2  and  C_3
REMARK    2  A    between atoms: C_3  and  C_4
REMARK    3  A    between atoms: C_4  and  N_5
REMARK    4  A    between atoms: N_5  and  C_6
REMARK    5  A    between atoms: N_5  and  C_7
REMARK    6  A    between atoms: N_5  and  C_8
REMARK                            x       y       z     vdW  Elec       q    Type
REMARK                         _______ _______ _______ _____ _____    ______ ____
ROOT
ATOM      1  C   UNL     1      63.571 -25.035  -6.662  0.00  0.00    -0.085 C 
ENDROOT
BRANCH   1   2
ATOM      2  N   UNL     1      63.395 -25.919  -6.229  0.00  0.00    +0.375 N 
ATOM      3  C   UNL     1      62.506 -25.965  -6.685  0.00  0.00    -0.101 C 
ATOM      4  C   UNL     1      63.219 -26.802  -5.796  0.00  0.00    -0.101 C 
ATOM      5  C   UNL     1      64.284 -25.873  -5.773  0.00  0.00    -0.101 C 
ENDBRANCH   1   2
BRANCH   1   6
ATOM      6  C   UNL     1      63.312 -23.302  -6.328  0.00  0.00    -0.050 C 
BRANCH   6   8
ATOM      7  C   UNL     1      63.884 -21.509  -8.083  0.00  0.00    -0.103 C 
ATOM      8  C   UNL     1      63.067 -22.411  -7.525  0.00  0.00    -0.093 C 
ENDBRANCH   6   8
ENDBRANCH   1   6
TORSDOF 3
ENDMDL
