REMARK  Name = cpd129.pdb
REMARK  9 active torsions:
REMARK  status: ('A' for Active; 'I' for Inactive)
REMARK    1  A    between atoms: C_1  and  O_2
REMARK    2  A    between atoms: O_2  and  C_3
REMARK    3  A    between atoms: C_12  and  O_13
REMARK    4  A    between atoms: N_19  and  C_20
REMARK    5  A    between atoms: C_20  and  C_21
REMARK    6  A    between atoms: C_21  and  C_22
REMARK    7  A    between atoms: C_21  and  C_23
REMARK    8  A    between atoms: C_27  and  O_28
REMARK    9  A    between atoms: O_28  and  C_29
REMARK                            x       y       z     vdW  Elec       q    Type
REMARK                         _______ _______ _______ _____ _____    ______ ____
ROOT
ATOM      1  C   UNL     1       4.215  -0.821   0.352  0.00  0.00    +0.162 A 
ATOM      2  C   UNL     1       3.882   0.367  -0.302  0.00  0.00    -0.016 A 
ATOM      3  C   UNL     1       2.595   0.554  -0.849  0.00  0.00    -0.053 A 
ATOM      4  C   UNL     1       1.626  -0.461  -0.802  0.00  0.00    -0.026 A 
ATOM      5  C   UNL     1       2.010  -1.683  -0.276  0.00  0.00    +0.016 A 
ATOM      6  C   UNL     1       3.253  -1.820   0.361  0.00  0.00    +0.167 A 
ATOM      7  O   UNL     1       3.345  -2.995   1.098  0.00  0.00    -0.484 OA
ATOM      8  C   UNL     1       2.344  -3.783   0.443  0.00  0.00    +0.116 C 
ATOM      9  C   UNL     1       1.861  -5.023   1.179  0.00  0.00    +0.015 C 
ATOM     10  C   UNL     1       0.894  -5.794   0.250  0.00  0.00    +0.077 C 
ATOM     11  C   UNL     1       0.268  -4.978  -0.863  0.00  0.00    -0.059 C 
ATOM     12  C   UNL     1       0.409  -3.643  -0.997  0.00  0.00    -0.071 C 
ATOM     13  C   UNL     1       1.157  -2.862   0.054  0.00  0.00    +0.056 C 
ATOM     14  C   UNL     1       0.188  -2.391   1.164  0.00  0.00    -0.023 C 
ATOM     15  C   UNL     1      -0.979  -1.506   0.649  0.00  0.00    +0.000 C 
ATOM     16  N   UNL     1      -0.643  -0.177   0.109  0.00  0.00    -0.298 N 
ATOM     17  C   UNL     1       0.177  -0.189  -1.113  0.00  0.00    +0.024 C 
ATOM     18  H   UNL     1      -0.037   0.234   0.819  0.00  0.00    +0.000 HD
ENDROOT
BRANCH   1  20
ATOM     19  C   UNL     1       6.370  -0.062   0.994  0.00  0.00    +0.079 C 
ATOM     20  O   UNL     1       5.389  -1.089   0.992  0.00  0.00    -0.491 OA
ENDBRANCH   1  20
BRANCH  10  21
ATOM     21  O   UNL     1       1.613  -6.838  -0.403  0.00  0.00    -0.388 OA
ATOM     22  H   UNL     1       2.301  -6.453  -0.968  0.00  0.00    +0.000 HD
ENDBRANCH  10  21
BRANCH  16  23
ATOM     23  C   UNL     1      -1.832   0.694  -0.027  0.00  0.00    +0.006 C 
BRANCH  23  24
ATOM     24  C   UNL     1      -2.775   0.523  -1.255  0.00  0.00    -0.006 C 
ATOM     25  C   UNL     1      -3.762   1.700  -1.315  0.00  0.00    -0.057 C 
BRANCH  24  26
ATOM     26  C   UNL     1      -3.539  -0.789  -1.293  0.00  0.00    -0.040 A 
ATOM     27  C   UNL     1      -3.349  -1.678  -2.365  0.00  0.00    -0.058 A 
ATOM     28  C   UNL     1      -4.021  -2.902  -2.409  0.00  0.00    -0.058 A 
ATOM     29  C   UNL     1      -4.906  -3.248  -1.390  0.00  0.00    -0.019 A 
ATOM     30  C   UNL     1      -5.130  -2.361  -0.340  0.00  0.00    +0.129 A 
ATOM     31  C   UNL     1      -4.437  -1.148  -0.276  0.00  0.00    -0.016 A 
BRANCH  30  32
ATOM     32  O   UNL     1      -5.996  -2.759   0.652  0.00  0.00    -0.456 OA
BRANCH  32  33
ATOM     33  C   UNL     1      -7.007  -1.886   0.990  0.00  0.00    +0.128 A 
ATOM     34  C   UNL     1      -7.766  -1.194   0.041  0.00  0.00    -0.019 A 
ATOM     35  C   UNL     1      -8.799  -0.354   0.458  0.00  0.00    -0.058 A 
ATOM     36  C   UNL     1      -9.083  -0.217   1.818  0.00  0.00    -0.062 A 
ATOM     37  C   UNL     1      -8.339  -0.925   2.762  0.00  0.00    -0.058 A 
ATOM     38  C   UNL     1      -7.305  -1.766   2.347  0.00  0.00    -0.019 A 
ENDBRANCH  32  33
ENDBRANCH  30  32
ENDBRANCH  24  26
ENDBRANCH  23  24
ENDBRANCH  16  23
TORSDOF 7
