@<TRIPOS>MOLECULE
*****
 36 41 0 0 0
SMALL
GASTEIGER

@<TRIPOS>ATOM
      1 C           4.0476   -1.0594    0.0000 C.3     1  UNL1        0.2526
      2 O           3.2773   -1.6010    0.0000 O.3     1  UNL1       -0.4684
      3 C           2.4692   -1.1176    0.0000 C.ar    1  UNL1        0.1721
      4 C           2.4838   -0.1760    0.0000 C.ar    1  UNL1        0.0397
      5 C           1.6752    0.3077    0.0000 C.ar    1  UNL1        0.0001
      6 C           0.8524   -0.1503    0.0000 C.ar    1  UNL1       -0.0066
      7 C           0.8376   -1.0923    0.0000 C.ar    1  UNL1        0.0187
      8 C           1.6462   -1.5760    0.0000 C.ar    1  UNL1        0.1682
      9 O           1.6316   -2.5176    0.0000 O.3     1  UNL1       -0.4757
     10 C           0.8086   -2.9761    0.0000 C.3     1  UNL1        0.1762
     11 C           0.7938   -3.9180    0.0000 C.3     1  UNL1        0.0816
     12 C          -0.0290   -4.3761    0.0000 C.3     1  UNL1        0.1773
     13 O          -0.0441   -5.3463    0.0000 O.3     1  UNL1       -0.2182
     14 C          -0.8376   -3.8923    0.0000 C.2     1  UNL1        0.0021
     15 C          -0.8230   -2.9508    0.0000 C.2     1  UNL1       -0.0211
     16 C           0.0000   -2.4923    0.0000 C.3     1  UNL1        0.0780
     17 C          -0.7496   -2.0595    0.0000 C.3     1  UNL1        0.0290
     18 C          -1.0456   -1.2462    0.0000 C.3     1  UNL1        0.0732
     19 N          -0.7496   -0.4328    0.0000 N.3     1  UNL1       -0.2686
     20 C          -1.5064    0.2023    0.0000 C.3     1  UNL1        0.0767
     21 C          -2.4348   -0.1356    0.0000 C.3     1  UNL1        0.0384
     22 C          -3.1916    0.4994    0.0000 C.3     1  UNL1        0.0061
     23 C          -2.6064   -1.1086    0.0000 C.ar    1  UNL1       -0.0181
     24 C          -1.8495   -1.7436    0.0000 C.ar    1  UNL1       -0.0040
     25 C          -2.0211   -2.7166    0.0000 C.ar    1  UNL1        0.0028
     26 C          -2.9495   -3.0545    0.0000 C.ar    1  UNL1        0.0375
     27 C          -3.7063   -2.4194    0.0000 C.ar    1  UNL1        0.1450
     28 O          -4.6347   -2.7573    0.0000 O.3     1  UNL1       -0.4535
     29 C          -5.3915   -2.1223    0.0000 C.ar    1  UNL1        0.1453
     30 C          -6.3198   -2.4602    0.0000 C.ar    1  UNL1        0.0375
     31 C          -7.0767   -1.8251    0.0000 C.ar    1  UNL1        0.0031
     32 C          -6.9051   -0.8522    0.0000 C.ar    1  UNL1        0.0002
     33 C          -5.9767   -0.5143    0.0000 C.ar    1  UNL1        0.0031
     34 C          -5.2199   -1.1493    0.0000 C.ar    1  UNL1        0.0375
     35 C          -3.5347   -1.4465    0.0000 C.ar    1  UNL1        0.0333
     36 C           0.0000    0.0000    0.0000 C.3     1  UNL1        0.0990
@<TRIPOS>BOND
     1     1     2    1
     2     2     3    1
     3     3     4   ar
     4     4     5   ar
     5     5     6   ar
     6     6     7   ar
     7     7     8   ar
     8     3     8   ar
     9     8     9    1
    10     9    10    1
    11    10    11    1
    12    11    12    1
    13    12    13    1
    14    12    14    1
    15    14    15    2
    16    15    16    1
    17     7    16    1
    18    10    16    1
    19    16    17    1
    20    17    18    1
    21    18    19    1
    22    19    20    1
    23    20    21    1
    24    21    22    1
    25    21    23    1
    26    23    24   ar
    27    24    25   ar
    28    25    26   ar
    29    26    27   ar
    30    27    28    1
    31    28    29    1
    32    29    30   ar
    33    30    31   ar
    34    31    32   ar
    35    32    33   ar
    36    33    34   ar
    37    29    34   ar
    38    27    35   ar
    39    23    35   ar
    40    19    36    1
    41     6    36    1
