MODEL 1
REMARK VINA RESULT:    -8.529      0.000      0.000
REMARK INTER + INTRA:         -13.812
REMARK INTER:                 -11.769
REMARK INTRA:                  -2.042
REMARK UNBOUND:                -2.042
REMARK  Name = cpd129.pdb
REMARK  9 active torsions:
REMARK  status: ('A' for Active; 'I' for Inactive)
REMARK    1  A    between atoms: C_1  and  O_2
REMARK    2  A    between atoms: O_2  and  C_3
REMARK    3  A    between atoms: C_12  and  O_13
REMARK    4  A    between atoms: N_19  and  C_20
REMARK    5  A    between atoms: C_20  and  C_21
REMARK    6  A    between atoms: C_21  and  C_22
REMARK    7  A    between atoms: C_21  and  C_23
REMARK    8  A    between atoms: C_27  and  O_28
REMARK    9  A    between atoms: O_28  and  C_29
REMARK                            x       y       z     vdW  Elec       q    Type
REMARK                         _______ _______ _______ _____ _____    ______ ____
ROOT
ATOM      1  C   UNL     1      31.738 -32.066 -30.383  0.00  0.00    +0.162 A 
ATOM      2  C   UNL     1      32.938 -31.503 -30.820  0.00  0.00    -0.016 A 
ATOM      3  C   UNL     1      34.153 -32.211 -30.704  0.00  0.00    -0.053 A 
ATOM      4  C   UNL     1      34.206 -33.477 -30.100  0.00  0.00    -0.026 A 
ATOM      5  C   UNL     1      33.036 -33.967 -29.546  0.00  0.00    +0.016 A 
ATOM      6  C   UNL     1      31.818 -33.305 -29.764  0.00  0.00    +0.167 A 
ATOM      7  O   UNL     1      30.720 -34.084 -29.416  0.00  0.00    -0.484 OA
ATOM      8  C   UNL     1      31.337 -34.992 -28.497  0.00  0.00    +0.116 C 
ATOM      9  C   UNL     1      30.558 -36.254 -28.158  0.00  0.00    +0.015 C 
ATOM     10  C   UNL     1      31.330 -37.021 -27.058  0.00  0.00    +0.077 C 
ATOM     11  C   UNL     1      32.804 -36.687 -26.941  0.00  0.00    -0.059 C 
ATOM     12  C   UNL     1      33.470 -35.884 -27.796  0.00  0.00    -0.071 C 
ATOM     13  C   UNL     1      32.763 -35.332 -29.007  0.00  0.00    +0.056 C 
ATOM     14  C   UNL     1      32.912 -36.301 -30.204  0.00  0.00    -0.023 C 
ATOM     15  C   UNL     1      34.384 -36.592 -30.600  0.00  0.00    +0.000 C 
ATOM     16  N   UNL     1      35.177 -35.480 -31.152  0.00  0.00    -0.298 N 
ATOM     17  C   UNL     1      35.418 -34.364 -30.223  0.00  0.00    +0.024 C 
ATOM     18  H   UNL     1      34.579 -35.084 -31.877  0.00  0.00    +0.000 HD
ENDROOT
BRANCH   1  20
ATOM     19  C   UNL     1      30.311 -30.206 -30.014  0.00  0.00    +0.079 C 
ATOM     20  O   UNL     1      30.495 -31.522 -30.516  0.00  0.00    -0.491 OA
ENDBRANCH   1  20
BRANCH  10  21
ATOM     21  O   UNL     1      30.766 -36.702 -25.788  0.00  0.00    -0.388 OA
ATOM     22  H   UNL     1      31.475 -36.624 -25.130  0.00  0.00    +0.000 HD
ENDBRANCH  10  21
BRANCH  16  23
ATOM     23  C   UNL     1      36.424 -35.943 -31.801  0.00  0.00    +0.006 C 
BRANCH  23  24
ATOM     24  C   UNL     1      37.801 -35.576 -31.173  0.00  0.00    -0.006 C 
ATOM     25  C   UNL     1      38.796 -35.214 -32.288  0.00  0.00    -0.057 C 
BRANCH  24  26
ATOM     26  C   UNL     1      38.400 -36.649 -30.280  0.00  0.00    -0.040 A 
ATOM     27  C   UNL     1      39.796 -36.771 -30.174  0.00  0.00    -0.058 A 
ATOM     28  C   UNL     1      40.370 -37.733 -29.339  0.00  0.00    -0.058 A 
ATOM     29  C   UNL     1      39.556 -38.598 -28.611  0.00  0.00    -0.019 A 
ATOM     30  C   UNL     1      38.172 -38.511 -28.733  0.00  0.00    +0.129 A 
ATOM     31  C   UNL     1      37.592 -37.530 -29.544  0.00  0.00    -0.016 A 
BRANCH  30  32
ATOM     32  O   UNL     1      37.413 -39.372 -27.976  0.00  0.00    -0.456 OA
BRANCH  32  33
ATOM     33  C   UNL     1      36.221 -39.800 -28.518  0.00  0.00    +0.128 A 
ATOM     34  C   UNL     1      34.973 -39.402 -28.028  0.00  0.00    -0.019 A 
ATOM     35  C   UNL     1      33.808 -39.847 -28.652  0.00  0.00    -0.058 A 
ATOM     36  C   UNL     1      33.888 -40.677 -29.773  0.00  0.00    -0.062 A 
ATOM     37  C   UNL     1      35.134 -41.056 -30.274  0.00  0.00    -0.058 A 
ATOM     38  C   UNL     1      36.301 -40.611 -29.650  0.00  0.00    -0.019 A 
ENDBRANCH  32  33
ENDBRANCH  30  32
ENDBRANCH  24  26
ENDBRANCH  23  24
ENDBRANCH  16  23
TORSDOF 7
ENDMDL
MODEL 2
REMARK VINA RESULT:    -8.215      3.145      6.302
REMARK INTER + INTRA:         -13.379
REMARK INTER:                 -11.464
REMARK INTRA:                  -1.915
REMARK UNBOUND:                -2.042
REMARK  Name = cpd129.pdb
REMARK  9 active torsions:
REMARK  status: ('A' for Active; 'I' for Inactive)
REMARK    1  A    between atoms: C_1  and  O_2
REMARK    2  A    between atoms: O_2  and  C_3
REMARK    3  A    between atoms: C_12  and  O_13
REMARK    4  A    between atoms: N_19  and  C_20
REMARK    5  A    between atoms: C_20  and  C_21
REMARK    6  A    between atoms: C_21  and  C_22
REMARK    7  A    between atoms: C_21  and  C_23
REMARK    8  A    between atoms: C_27  and  O_28
REMARK    9  A    between atoms: O_28  and  C_29
REMARK                            x       y       z     vdW  Elec       q    Type
REMARK                         _______ _______ _______ _____ _____    ______ ____
ROOT
ATOM      1  C   UNL     1      38.368 -35.965 -31.189  0.00  0.00    +0.162 A 
ATOM      2  C   UNL     1      38.928 -36.869 -30.283  0.00  0.00    -0.016 A 
ATOM      3  C   UNL     1      38.169 -37.375 -29.206  0.00  0.00    -0.053 A 
ATOM      4  C   UNL     1      36.850 -36.952 -28.978  0.00  0.00    -0.026 A 
ATOM      5  C   UNL     1      36.352 -35.953 -29.798  0.00  0.00    +0.016 A 
ATOM      6  C   UNL     1      37.075 -35.539 -30.927  0.00  0.00    +0.167 A 
ATOM      7  O   UNL     1      36.305 -34.777 -31.799  0.00  0.00    -0.484 OA
ATOM      8  C   UNL     1      35.293 -34.309 -30.900  0.00  0.00    +0.116 C 
ATOM      9  C   UNL     1      34.033 -33.735 -31.529  0.00  0.00    +0.015 C 
ATOM     10  C   UNL     1      33.139 -33.172 -30.399  0.00  0.00    +0.077 C 
ATOM     11  C   UNL     1      33.408 -33.726 -29.015  0.00  0.00    -0.059 C 
ATOM     12  C   UNL     1      34.265 -34.736 -28.755  0.00  0.00    -0.071 C 
ATOM     13  C   UNL     1      34.953 -35.443 -29.896  0.00  0.00    +0.056 C 
ATOM     14  C   UNL     1      34.097 -36.635 -30.383  0.00  0.00    -0.023 C 
ATOM     15  C   UNL     1      33.792 -37.686 -29.282  0.00  0.00    +0.000 C 
ATOM     16  N   UNL     1      34.923 -38.466 -28.749  0.00  0.00    -0.298 N 
ATOM     17  C   UNL     1      35.937 -37.680 -28.027  0.00  0.00    +0.024 C 
ATOM     18  H   UNL     1      35.407 -38.803 -29.581  0.00  0.00    +0.000 HD
ENDROOT
BRANCH   1  20
ATOM     19  C   UNL     1      40.291 -35.907 -32.578  0.00  0.00    +0.079 C 
ATOM     20  O   UNL     1      38.966 -35.471 -32.310  0.00  0.00    -0.491 OA
ENDBRANCH   1  20
BRANCH  10  21
ATOM     21  O   UNL     1      33.357 -31.766 -30.294  0.00  0.00    -0.388 OA
ATOM     22  H   UNL     1      34.130 -31.600 -29.733  0.00  0.00    +0.000 HD
ENDBRANCH  10  21
BRANCH  16  23
ATOM     23  C   UNL     1      34.479 -39.647 -27.975  0.00  0.00    +0.006 C 
BRANCH  23  24
ATOM     24  C   UNL     1      34.493 -41.054 -28.644  0.00  0.00    -0.006 C 
ATOM     25  C   UNL     1      35.731 -41.835 -28.175  0.00  0.00    -0.057 C 
BRANCH  24  26
ATOM     26  C   UNL     1      34.441 -41.038 -30.161  0.00  0.00    -0.040 A 
ATOM     27  C   UNL     1      35.632 -41.126 -30.903  0.00  0.00    -0.058 A 
ATOM     28  C   UNL     1      35.608 -41.139 -32.300  0.00  0.00    -0.058 A 
ATOM     29  C   UNL     1      34.393 -41.048 -32.976  0.00  0.00    -0.019 A 
ATOM     30  C   UNL     1      33.209 -40.925 -32.254  0.00  0.00    +0.129 A 
ATOM     31  C   UNL     1      33.225 -40.942 -30.856  0.00  0.00    -0.016 A 
BRANCH  30  32
ATOM     32  O   UNL     1      32.035 -40.860 -32.968  0.00  0.00    -0.456 OA
BRANCH  32  33
ATOM     33  C   UNL     1      31.815 -39.722 -33.713  0.00  0.00    +0.128 A 
ATOM     34  C   UNL     1      31.481 -39.751 -35.071  0.00  0.00    -0.019 A 
ATOM     35  C   UNL     1      31.237 -38.558 -35.751  0.00  0.00    -0.058 A 
ATOM     36  C   UNL     1      31.312 -37.339 -35.074  0.00  0.00    -0.062 A 
ATOM     37  C   UNL     1      31.625 -37.313 -33.714  0.00  0.00    -0.058 A 
ATOM     38  C   UNL     1      31.869 -38.506 -33.032  0.00  0.00    -0.019 A 
ENDBRANCH  32  33
ENDBRANCH  30  32
ENDBRANCH  24  26
ENDBRANCH  23  24
ENDBRANCH  16  23
TORSDOF 7
ENDMDL
MODEL 3
REMARK VINA RESULT:    -7.928     16.542     20.350
REMARK INTER + INTRA:         -12.983
REMARK INTER:                 -10.313
REMARK INTRA:                  -2.670
REMARK UNBOUND:                -2.042
REMARK  Name = cpd129.pdb
REMARK  9 active torsions:
REMARK  status: ('A' for Active; 'I' for Inactive)
REMARK    1  A    between atoms: C_1  and  O_2
REMARK    2  A    between atoms: O_2  and  C_3
REMARK    3  A    between atoms: C_12  and  O_13
REMARK    4  A    between atoms: N_19  and  C_20
REMARK    5  A    between atoms: C_20  and  C_21
REMARK    6  A    between atoms: C_21  and  C_22
REMARK    7  A    between atoms: C_21  and  C_23
REMARK    8  A    between atoms: C_27  and  O_28
REMARK    9  A    between atoms: O_28  and  C_29
REMARK                            x       y       z     vdW  Elec       q    Type
REMARK                         _______ _______ _______ _____ _____    ______ ____
ROOT
ATOM      1  C   UNL     1      41.330 -20.838 -38.197  0.00  0.00    +0.162 A 
ATOM      2  C   UNL     1      41.124 -20.940 -36.819  0.00  0.00    -0.016 A 
ATOM      3  C   UNL     1      42.197 -20.793 -35.916  0.00  0.00    -0.053 A 
ATOM      4  C   UNL     1      43.511 -20.592 -36.367  0.00  0.00    -0.026 A 
ATOM      5  C   UNL     1      43.726 -20.630 -37.735  0.00  0.00    +0.016 A 
ATOM      6  C   UNL     1      42.639 -20.668 -38.621  0.00  0.00    +0.167 A 
ATOM      7  O   UNL     1      43.012 -20.384 -39.930  0.00  0.00    -0.484 OA
ATOM      8  C   UNL     1      44.405 -20.712 -39.873  0.00  0.00    +0.116 C 
ATOM      9  C   UNL     1      45.276 -20.192 -41.006  0.00  0.00    +0.015 C 
ATOM     10  C   UNL     1      46.702 -20.765 -40.825  0.00  0.00    +0.077 C 
ATOM     11  C   UNL     1      47.046 -21.230 -39.425  0.00  0.00    -0.059 C 
ATOM     12  C   UNL     1      46.249 -21.057 -38.350  0.00  0.00    -0.071 C 
ATOM     13  C   UNL     1      44.964 -20.280 -38.491  0.00  0.00    +0.056 C 
ATOM     14  C   UNL     1      45.215 -18.776 -38.228  0.00  0.00    -0.023 C 
ATOM     15  C   UNL     1      45.809 -18.471 -36.826  0.00  0.00    +0.000 C 
ATOM     16  N   UNL     1      44.959 -18.734 -35.651  0.00  0.00    -0.298 N 
ATOM     17  C   UNL     1      44.610 -20.148 -35.437  0.00  0.00    +0.024 C 
ATOM     18  H   UNL     1      44.073 -18.284 -35.879  0.00  0.00    +0.000 HD
ENDROOT
BRANCH   1  20
ATOM     19  C   UNL     1      39.368 -19.869 -39.116  0.00  0.00    +0.079 C 
ATOM     20  O   UNL     1      40.368 -20.877 -39.162  0.00  0.00    -0.491 OA
ENDBRANCH   1  20
BRANCH  10  21
ATOM     21  O   UNL     1      46.846 -21.917 -41.654  0.00  0.00    -0.388 OA
ATOM     22  H   UNL     1      46.202 -22.591 -41.386  0.00  0.00    +0.000 HD
ENDBRANCH  10  21
BRANCH  16  23
ATOM     23  C   UNL     1      45.483 -18.098 -34.422  0.00  0.00    +0.006 C 
BRANCH  23  24
ATOM     24  C   UNL     1      44.537 -17.230 -33.541  0.00  0.00    -0.006 C 
ATOM     25  C   UNL     1      44.948 -17.353 -32.065  0.00  0.00    -0.057 C 
BRANCH  24  26
ATOM     26  C   UNL     1      43.059 -17.548 -33.689  0.00  0.00    -0.040 A 
ATOM     27  C   UNL     1      42.316 -16.951 -34.722  0.00  0.00    -0.058 A 
ATOM     28  C   UNL     1      40.962 -17.248 -34.895  0.00  0.00    -0.058 A 
ATOM     29  C   UNL     1      40.326 -18.133 -34.026  0.00  0.00    -0.019 A 
ATOM     30  C   UNL     1      41.043 -18.704 -32.977  0.00  0.00    +0.129 A 
ATOM     31  C   UNL     1      42.406 -18.433 -32.819  0.00  0.00    -0.016 A 
BRANCH  30  32
ATOM     32  O   UNL     1      40.376 -19.588 -32.161  0.00  0.00    -0.456 OA
BRANCH  32  33
ATOM     33  C   UNL     1      40.117 -20.841 -32.672  0.00  0.00    +0.128 A 
ATOM     34  C   UNL     1      41.037 -21.893 -32.613  0.00  0.00    -0.019 A 
ATOM     35  C   UNL     1      40.690 -23.146 -33.119  0.00  0.00    -0.058 A 
ATOM     36  C   UNL     1      39.424 -23.353 -33.669  0.00  0.00    -0.062 A 
ATOM     37  C   UNL     1      38.500 -22.308 -33.707  0.00  0.00    -0.058 A 
ATOM     38  C   UNL     1      38.845 -21.053 -33.201  0.00  0.00    -0.019 A 
ENDBRANCH  32  33
ENDBRANCH  30  32
ENDBRANCH  24  26
ENDBRANCH  23  24
ENDBRANCH  16  23
TORSDOF 7
ENDMDL
MODEL 4
REMARK VINA RESULT:    -7.890     18.756     22.719
REMARK INTER + INTRA:         -12.930
REMARK INTER:                 -10.148
REMARK INTRA:                  -2.782
REMARK UNBOUND:                -2.042
REMARK  Name = cpd129.pdb
REMARK  9 active torsions:
REMARK  status: ('A' for Active; 'I' for Inactive)
REMARK    1  A    between atoms: C_1  and  O_2
REMARK    2  A    between atoms: O_2  and  C_3
REMARK    3  A    between atoms: C_12  and  O_13
REMARK    4  A    between atoms: N_19  and  C_20
REMARK    5  A    between atoms: C_20  and  C_21
REMARK    6  A    between atoms: C_21  and  C_22
REMARK    7  A    between atoms: C_21  and  C_23
REMARK    8  A    between atoms: C_27  and  O_28
REMARK    9  A    between atoms: O_28  and  C_29
REMARK                            x       y       z     vdW  Elec       q    Type
REMARK                         _______ _______ _______ _____ _____    ______ ____
ROOT
ATOM      1  C   UNL     1      42.249 -20.809 -38.662  0.00  0.00    +0.162 A 
ATOM      2  C   UNL     1      42.314 -20.411 -37.325  0.00  0.00    -0.016 A 
ATOM      3  C   UNL     1      43.558 -20.174 -36.702  0.00  0.00    -0.053 A 
ATOM      4  C   UNL     1      44.768 -20.380 -37.384  0.00  0.00    -0.026 A 
ATOM      5  C   UNL     1      44.697 -20.907 -38.662  0.00  0.00    +0.016 A 
ATOM      6  C   UNL     1      43.457 -21.033 -39.307  0.00  0.00    +0.167 A 
ATOM      7  O   UNL     1      43.589 -21.272 -40.670  0.00  0.00    -0.484 OA
ATOM      8  C   UNL     1      44.915 -21.813 -40.704  0.00  0.00    +0.116 C 
ATOM      9  C   UNL     1      45.596 -21.867 -42.063  0.00  0.00    +0.015 C 
ATOM     10  C   UNL     1      46.948 -22.602 -41.900  0.00  0.00    +0.077 C 
ATOM     11  C   UNL     1      47.508 -22.633 -40.492  0.00  0.00    -0.059 C 
ATOM     12  C   UNL     1      46.972 -21.971 -39.447  0.00  0.00    -0.071 C 
ATOM     13  C   UNL     1      45.790 -21.061 -39.666  0.00  0.00    +0.056 C 
ATOM     14  C   UNL     1      46.269 -19.628 -39.999  0.00  0.00    -0.023 C 
ATOM     15  C   UNL     1      47.166 -18.993 -38.903  0.00  0.00    +0.000 C 
ATOM     16  N   UNL     1      46.546 -18.691 -37.601  0.00  0.00    -0.298 N 
ATOM     17  C   UNL     1      46.078 -19.865 -36.846  0.00  0.00    +0.024 C 
ATOM     18  H   UNL     1      45.693 -18.187 -37.842  0.00  0.00    +0.000 HD
ENDROOT
BRANCH   1  20
ATOM     19  C   UNL     1      40.261 -22.055 -39.017  0.00  0.00    +0.079 C 
ATOM     20  O   UNL     1      41.115 -20.986 -39.398  0.00  0.00    -0.491 OA
ENDBRANCH   1  20
BRANCH  10  21
ATOM     21  O   UNL     1      46.780 -23.968 -42.273  0.00  0.00    -0.388 OA
ATOM     22  H   UNL     1      46.326 -24.017 -43.128  0.00  0.00    +0.000 HD
ENDBRANCH  10  21
BRANCH  16  23
ATOM     23  C   UNL     1      47.381 -17.793 -36.772  0.00  0.00    +0.006 C 
BRANCH  23  24
ATOM     24  C   UNL     1      46.745 -17.055 -35.557  0.00  0.00    -0.006 C 
ATOM     25  C   UNL     1      47.135 -17.774 -34.255  0.00  0.00    -0.057 C 
BRANCH  24  26
ATOM     26  C   UNL     1      45.236 -16.899 -35.625  0.00  0.00    -0.040 A 
ATOM     27  C   UNL     1      44.439 -17.339 -34.554  0.00  0.00    -0.058 A 
ATOM     28  C   UNL     1      43.051 -17.183 -34.583  0.00  0.00    -0.058 A 
ATOM     29  C   UNL     1      42.438 -16.601 -35.690  0.00  0.00    -0.019 A 
ATOM     30  C   UNL     1      43.213 -16.193 -36.773  0.00  0.00    +0.129 A 
ATOM     31  C   UNL     1      44.605 -16.319 -36.736  0.00  0.00    -0.016 A 
BRANCH  30  32
ATOM     32  O   UNL     1      42.562 -15.604 -37.832  0.00  0.00    -0.456 OA
BRANCH  32  33
ATOM     33  C   UNL     1      42.954 -15.981 -39.098  0.00  0.00    +0.128 A 
ATOM     34  C   UNL     1      43.043 -17.317 -39.502  0.00  0.00    -0.019 A 
ATOM     35  C   UNL     1      43.412 -17.622 -40.812  0.00  0.00    -0.058 A 
ATOM     36  C   UNL     1      43.676 -16.595 -41.721  0.00  0.00    -0.062 A 
ATOM     37  C   UNL     1      43.565 -15.263 -41.322  0.00  0.00    -0.058 A 
ATOM     38  C   UNL     1      43.196 -14.956 -40.011  0.00  0.00    -0.019 A 
ENDBRANCH  32  33
ENDBRANCH  30  32
ENDBRANCH  24  26
ENDBRANCH  23  24
ENDBRANCH  16  23
TORSDOF 7
ENDMDL
MODEL 5
REMARK VINA RESULT:    -7.871      1.610      4.576
REMARK INTER + INTRA:         -12.904
REMARK INTER:                 -10.067
REMARK INTRA:                  -2.837
REMARK UNBOUND:                -2.042
REMARK  Name = cpd129.pdb
REMARK  9 active torsions:
REMARK  status: ('A' for Active; 'I' for Inactive)
REMARK    1  A    between atoms: C_1  and  O_2
REMARK    2  A    between atoms: O_2  and  C_3
REMARK    3  A    between atoms: C_12  and  O_13
REMARK    4  A    between atoms: N_19  and  C_20
REMARK    5  A    between atoms: C_20  and  C_21
REMARK    6  A    between atoms: C_21  and  C_22
REMARK    7  A    between atoms: C_21  and  C_23
REMARK    8  A    between atoms: C_27  and  O_28
REMARK    9  A    between atoms: O_28  and  C_29
REMARK                            x       y       z     vdW  Elec       q    Type
REMARK                         _______ _______ _______ _____ _____    ______ ____
ROOT
ATOM      1  C   UNL     1      30.705 -36.920 -29.467  0.00  0.00    +0.162 A 
ATOM      2  C   UNL     1      31.528 -37.782 -30.196  0.00  0.00    -0.016 A 
ATOM      3  C   UNL     1      32.629 -37.284 -30.925  0.00  0.00    -0.053 A 
ATOM      4  C   UNL     1      32.904 -35.909 -30.987  0.00  0.00    -0.026 A 
ATOM      5  C   UNL     1      32.003 -35.052 -30.377  0.00  0.00    +0.016 A 
ATOM      6  C   UNL     1      30.978 -35.564 -29.566  0.00  0.00    +0.167 A 
ATOM      7  O   UNL     1      30.374 -34.581 -28.790  0.00  0.00    -0.484 OA
ATOM      8  C   UNL     1      30.702 -33.417 -29.558  0.00  0.00    +0.116 C 
ATOM      9  C   UNL     1      30.544 -32.073 -28.863  0.00  0.00    +0.015 C 
ATOM     10  C   UNL     1      30.816 -30.956 -29.897  0.00  0.00    +0.077 C 
ATOM     11  C   UNL     1      31.623 -31.371 -31.110  0.00  0.00    -0.059 C 
ATOM     12  C   UNL     1      32.199 -32.582 -31.261  0.00  0.00    -0.071 C 
ATOM     13  C   UNL     1      32.132 -33.585 -30.137  0.00  0.00    +0.056 C 
ATOM     14  C   UNL     1      33.342 -33.411 -29.190  0.00  0.00    -0.023 C 
ATOM     15  C   UNL     1      34.719 -33.567 -29.890  0.00  0.00    +0.000 C 
ATOM     16  N   UNL     1      35.074 -34.897 -30.415  0.00  0.00    -0.298 N 
ATOM     17  C   UNL     1      34.217 -35.385 -31.507  0.00  0.00    +0.024 C 
ATOM     18  H   UNL     1      34.883 -35.530 -29.638  0.00  0.00    +0.000 HD
ENDROOT
BRANCH   1  20
ATOM     19  C   UNL     1      29.902 -38.354 -27.756  0.00  0.00    +0.079 C 
ATOM     20  O   UNL     1      29.668 -37.284 -28.660  0.00  0.00    -0.491 OA
ENDBRANCH   1  20
BRANCH  10  21
ATOM     21  O   UNL     1      29.571 -30.488 -30.411  0.00  0.00    -0.388 OA
ATOM     22  H   UNL     1      28.848 -31.018 -30.039  0.00  0.00    +0.000 HD
ENDBRANCH  10  21
BRANCH  16  23
ATOM     23  C   UNL     1      36.513 -35.009 -30.743  0.00  0.00    +0.006 C 
BRANCH  23  24
ATOM     24  C   UNL     1      37.376 -36.107 -30.053  0.00  0.00    -0.006 C 
ATOM     25  C   UNL     1      38.444 -36.616 -31.036  0.00  0.00    -0.057 C 
BRANCH  24  26
ATOM     26  C   UNL     1      36.588 -37.281 -29.499  0.00  0.00    -0.040 A 
ATOM     27  C   UNL     1      36.277 -38.370 -30.332  0.00  0.00    -0.058 A 
ATOM     28  C   UNL     1      35.576 -39.473 -29.838  0.00  0.00    -0.058 A 
ATOM     29  C   UNL     1      35.161 -39.496 -28.508  0.00  0.00    -0.019 A 
ATOM     30  C   UNL     1      35.432 -38.408 -27.681  0.00  0.00    +0.129 A 
ATOM     31  C   UNL     1      36.160 -37.316 -28.163  0.00  0.00    -0.016 A 
BRANCH  30  32
ATOM     32  O   UNL     1      35.021 -38.490 -26.371  0.00  0.00    -0.456 OA
BRANCH  32  33
ATOM     33  C   UNL     1      34.126 -37.538 -25.934  0.00  0.00    +0.128 A 
ATOM     34  C   UNL     1      33.289 -36.825 -26.798  0.00  0.00    -0.019 A 
ATOM     35  C   UNL     1      32.381 -35.902 -26.278  0.00  0.00    -0.058 A 
ATOM     36  C   UNL     1      32.298 -35.703 -24.899  0.00  0.00    -0.062 A 
ATOM     37  C   UNL     1      33.118 -36.432 -24.037  0.00  0.00    -0.058 A 
ATOM     38  C   UNL     1      34.027 -37.356 -24.555  0.00  0.00    -0.019 A 
ENDBRANCH  32  33
ENDBRANCH  30  32
ENDBRANCH  24  26
ENDBRANCH  23  24
ENDBRANCH  16  23
TORSDOF 7
ENDMDL
MODEL 6
REMARK VINA RESULT:    -7.838     17.748     21.095
REMARK INTER + INTRA:         -12.858
REMARK INTER:                 -11.277
REMARK INTRA:                  -1.581
REMARK UNBOUND:                -2.042
REMARK  Name = cpd129.pdb
REMARK  9 active torsions:
REMARK  status: ('A' for Active; 'I' for Inactive)
REMARK    1  A    between atoms: C_1  and  O_2
REMARK    2  A    between atoms: O_2  and  C_3
REMARK    3  A    between atoms: C_12  and  O_13
REMARK    4  A    between atoms: N_19  and  C_20
REMARK    5  A    between atoms: C_20  and  C_21
REMARK    6  A    between atoms: C_21  and  C_22
REMARK    7  A    between atoms: C_21  and  C_23
REMARK    8  A    between atoms: C_27  and  O_28
REMARK    9  A    between atoms: O_28  and  C_29
REMARK                            x       y       z     vdW  Elec       q    Type
REMARK                         _______ _______ _______ _____ _____    ______ ____
ROOT
ATOM      1  C   UNL     1      42.467 -20.897 -39.133  0.00  0.00    +0.162 A 
ATOM      2  C   UNL     1      43.087 -19.824 -39.776  0.00  0.00    -0.016 A 
ATOM      3  C   UNL     1      43.480 -18.678 -39.053  0.00  0.00    -0.053 A 
ATOM      4  C   UNL     1      43.217 -18.554 -37.680  0.00  0.00    -0.026 A 
ATOM      5  C   UNL     1      42.480 -19.561 -37.080  0.00  0.00    +0.016 A 
ATOM      6  C   UNL     1      42.191 -20.741 -37.782  0.00  0.00    +0.167 A 
ATOM      7  O   UNL     1      41.732 -21.756 -36.950  0.00  0.00    -0.484 OA
ATOM      8  C   UNL     1      41.252 -20.979 -35.846  0.00  0.00    +0.116 C 
ATOM      9  C   UNL     1      41.000 -21.724 -34.545  0.00  0.00    +0.015 C 
ATOM     10  C   UNL     1      40.365 -20.740 -33.536  0.00  0.00    +0.077 C 
ATOM     11  C   UNL     1      40.596 -19.270 -33.823  0.00  0.00    -0.059 C 
ATOM     12  C   UNL     1      41.401 -18.805 -34.802  0.00  0.00    -0.071 C 
ATOM     13  C   UNL     1      42.207 -19.775 -35.628  0.00  0.00    +0.056 C 
ATOM     14  C   UNL     1      43.583 -20.029 -34.968  0.00  0.00    -0.023 C 
ATOM     15  C   UNL     1      44.434 -18.745 -34.770  0.00  0.00    +0.000 C 
ATOM     16  N   UNL     1      44.922 -18.055 -35.976  0.00  0.00    -0.298 N 
ATOM     17  C   UNL     1      43.873 -17.489 -36.839  0.00  0.00    +0.024 C 
ATOM     18  H   UNL     1      45.341 -18.798 -36.536  0.00  0.00    +0.000 HD
ENDROOT
BRANCH   1  20
ATOM     19  C   UNL     1      41.317 -22.031 -40.872  0.00  0.00    +0.079 C 
ATOM     20  O   UNL     1      42.118 -22.087 -39.700  0.00  0.00    -0.491 OA
ENDBRANCH   1  20
BRANCH  10  21
ATOM     21  O   UNL     1      38.949 -20.911 -33.549  0.00  0.00    -0.388 OA
ATOM     22  H   UNL     1      38.738 -21.857 -33.537  0.00  0.00    +0.000 HD
ENDBRANCH  10  21
BRANCH  16  23
ATOM     23  C   UNL     1      45.984 -17.069 -35.671  0.00  0.00    +0.006 C 
BRANCH  23  24
ATOM     24  C   UNL     1      47.192 -16.914 -36.641  0.00  0.00    -0.006 C 
ATOM     25  C   UNL     1      47.355 -15.436 -37.030  0.00  0.00    -0.057 C 
BRANCH  24  26
ATOM     26  C   UNL     1      47.116 -17.769 -37.895  0.00  0.00    -0.040 A 
ATOM     27  C   UNL     1      47.050 -17.154 -39.157  0.00  0.00    -0.058 A 
ATOM     28  C   UNL     1      47.005 -17.919 -40.325  0.00  0.00    -0.058 A 
ATOM     29  C   UNL     1      47.007 -19.310 -40.248  0.00  0.00    -0.019 A 
ATOM     30  C   UNL     1      47.036 -19.932 -39.002  0.00  0.00    +0.129 A 
ATOM     31  C   UNL     1      47.112 -19.171 -37.831  0.00  0.00    -0.016 A 
BRANCH  30  32
ATOM     32  O   UNL     1      47.059 -21.307 -38.981  0.00  0.00    -0.456 OA
BRANCH  32  33
ATOM     33  C   UNL     1      46.935 -21.956 -40.190  0.00  0.00    +0.128 A 
ATOM     34  C   UNL     1      45.849 -21.763 -41.050  0.00  0.00    -0.019 A 
ATOM     35  C   UNL     1      45.810 -22.428 -42.276  0.00  0.00    -0.058 A 
ATOM     36  C   UNL     1      46.859 -23.271 -42.649  0.00  0.00    -0.062 A 
ATOM     37  C   UNL     1      47.951 -23.444 -41.799  0.00  0.00    -0.058 A 
ATOM     38  C   UNL     1      47.992 -22.780 -40.571  0.00  0.00    -0.019 A 
ENDBRANCH  32  33
ENDBRANCH  30  32
ENDBRANCH  24  26
ENDBRANCH  23  24
ENDBRANCH  16  23
TORSDOF 7
ENDMDL
MODEL 7
REMARK VINA RESULT:    -7.793      3.453      6.338
REMARK INTER + INTRA:         -12.797
REMARK INTER:                 -11.377
REMARK INTRA:                  -1.420
REMARK UNBOUND:                -2.042
REMARK  Name = cpd129.pdb
REMARK  9 active torsions:
REMARK  status: ('A' for Active; 'I' for Inactive)
REMARK    1  A    between atoms: C_1  and  O_2
REMARK    2  A    between atoms: O_2  and  C_3
REMARK    3  A    between atoms: C_12  and  O_13
REMARK    4  A    between atoms: N_19  and  C_20
REMARK    5  A    between atoms: C_20  and  C_21
REMARK    6  A    between atoms: C_21  and  C_22
REMARK    7  A    between atoms: C_21  and  C_23
REMARK    8  A    between atoms: C_27  and  O_28
REMARK    9  A    between atoms: O_28  and  C_29
REMARK                            x       y       z     vdW  Elec       q    Type
REMARK                         _______ _______ _______ _____ _____    ______ ____
ROOT
ATOM      1  C   UNL     1      38.309 -36.053 -30.947  0.00  0.00    +0.162 A 
ATOM      2  C   UNL     1      38.834 -36.974 -30.038  0.00  0.00    -0.016 A 
ATOM      3  C   UNL     1      38.032 -37.511 -29.009  0.00  0.00    -0.053 A 
ATOM      4  C   UNL     1      36.701 -37.101 -28.830  0.00  0.00    -0.026 A 
ATOM      5  C   UNL     1      36.233 -36.087 -29.647  0.00  0.00    +0.016 A 
ATOM      6  C   UNL     1      37.002 -35.641 -30.733  0.00  0.00    +0.167 A 
ATOM      7  O   UNL     1      36.267 -34.863 -31.620  0.00  0.00    -0.484 OA
ATOM      8  C   UNL     1      35.212 -34.424 -30.757  0.00  0.00    +0.116 C 
ATOM      9  C   UNL     1      33.977 -33.842 -31.428  0.00  0.00    +0.015 C 
ATOM     10  C   UNL     1      33.030 -33.312 -30.327  0.00  0.00    +0.077 C 
ATOM     11  C   UNL     1      33.241 -33.898 -28.945  0.00  0.00    -0.059 C 
ATOM     12  C   UNL     1      34.092 -34.908 -28.671  0.00  0.00    -0.071 C 
ATOM     13  C   UNL     1      34.836 -35.583 -29.796  0.00  0.00    +0.056 C 
ATOM     14  C   UNL     1      34.011 -36.769 -30.350  0.00  0.00    -0.023 C 
ATOM     15  C   UNL     1      33.665 -37.847 -29.288  0.00  0.00    +0.000 C 
ATOM     16  N   UNL     1      34.777 -38.632 -28.723  0.00  0.00    -0.298 N 
ATOM     17  C   UNL     1      35.752 -37.858 -27.938  0.00  0.00    +0.024 C 
ATOM     18  H   UNL     1      35.299 -38.947 -29.540  0.00  0.00    +0.000 HD
ENDROOT
BRANCH   1  20
ATOM     19  C   UNL     1      39.693 -34.335 -31.821  0.00  0.00    +0.079 C 
ATOM     20  O   UNL     1      38.953 -35.528 -32.028  0.00  0.00    -0.491 OA
ENDBRANCH   1  20
BRANCH  10  21
ATOM     21  O   UNL     1      33.232 -31.908 -30.179  0.00  0.00    -0.388 OA
ATOM     22  H   UNL     1      33.056 -31.465 -31.023  0.00  0.00    +0.000 HD
ENDBRANCH  10  21
BRANCH  16  23
ATOM     23  C   UNL     1      34.307 -39.835 -27.999  0.00  0.00    +0.006 C 
BRANCH  23  24
ATOM     24  C   UNL     1      34.508 -41.243 -28.633  0.00  0.00    -0.006 C 
ATOM     25  C   UNL     1      35.814 -41.862 -28.111  0.00  0.00    -0.057 C 
BRANCH  24  26
ATOM     26  C   UNL     1      34.502 -41.263 -30.152  0.00  0.00    -0.040 A 
ATOM     27  C   UNL     1      35.697 -41.043 -30.859  0.00  0.00    -0.058 A 
ATOM     28  C   UNL     1      35.721 -41.083 -32.255  0.00  0.00    -0.058 A 
ATOM     29  C   UNL     1      34.548 -41.326 -32.966  0.00  0.00    -0.019 A 
ATOM     30  C   UNL     1      33.350 -41.511 -32.279  0.00  0.00    +0.129 A 
ATOM     31  C   UNL     1      33.326 -41.502 -30.881  0.00  0.00    -0.016 A 
BRANCH  30  32
ATOM     32  O   UNL     1      32.224 -41.770 -33.026  0.00  0.00    -0.456 OA
BRANCH  32  33
ATOM     33  C   UNL     1      32.274 -42.847 -33.883  0.00  0.00    +0.128 A 
ATOM     34  C   UNL     1      32.280 -42.715 -35.275  0.00  0.00    -0.019 A 
ATOM     35  C   UNL     1      32.369 -43.851 -36.080  0.00  0.00    -0.058 A 
ATOM     36  C   UNL     1      32.467 -45.115 -35.496  0.00  0.00    -0.062 A 
ATOM     37  C   UNL     1      32.484 -45.244 -34.107  0.00  0.00    -0.058 A 
ATOM     38  C   UNL     1      32.395 -44.108 -33.300  0.00  0.00    -0.019 A 
ENDBRANCH  32  33
ENDBRANCH  30  32
ENDBRANCH  24  26
ENDBRANCH  23  24
ENDBRANCH  16  23
TORSDOF 7
ENDMDL
MODEL 8
REMARK VINA RESULT:    -7.770     16.175     19.709
REMARK INTER + INTRA:         -12.765
REMARK INTER:                 -10.738
REMARK INTRA:                  -2.027
REMARK UNBOUND:                -2.042
REMARK  Name = cpd129.pdb
REMARK  9 active torsions:
REMARK  status: ('A' for Active; 'I' for Inactive)
REMARK    1  A    between atoms: C_1  and  O_2
REMARK    2  A    between atoms: O_2  and  C_3
REMARK    3  A    between atoms: C_12  and  O_13
REMARK    4  A    between atoms: N_19  and  C_20
REMARK    5  A    between atoms: C_20  and  C_21
REMARK    6  A    between atoms: C_21  and  C_22
REMARK    7  A    between atoms: C_21  and  C_23
REMARK    8  A    between atoms: C_27  and  O_28
REMARK    9  A    between atoms: O_28  and  C_29
REMARK                            x       y       z     vdW  Elec       q    Type
REMARK                         _______ _______ _______ _____ _____    ______ ____
ROOT
ATOM      1  C   UNL     1      42.748 -19.160 -33.900  0.00  0.00    +0.162 A 
ATOM      2  C   UNL     1      43.686 -19.693 -34.786  0.00  0.00    -0.016 A 
ATOM      3  C   UNL     1      43.307 -20.652 -35.749  0.00  0.00    -0.053 A 
ATOM      4  C   UNL     1      41.992 -21.141 -35.816  0.00  0.00    -0.026 A 
ATOM      5  C   UNL     1      41.104 -20.711 -34.845  0.00  0.00    +0.016 A 
ATOM      6  C   UNL     1      41.463 -19.678 -33.965  0.00  0.00    +0.167 A 
ATOM      7  O   UNL     1      40.369 -19.160 -33.281  0.00  0.00    -0.484 OA
ATOM      8  C   UNL     1      39.462 -20.264 -33.381  0.00  0.00    +0.116 C 
ATOM      9  C   UNL     1      38.000 -19.976 -33.078  0.00  0.00    +0.015 C 
ATOM     10  C   UNL     1      37.224 -21.314 -33.110  0.00  0.00    +0.077 C 
ATOM     11  C   UNL     1      37.889 -22.436 -33.882  0.00  0.00    -0.059 C 
ATOM     12  C   UNL     1      39.012 -22.291 -34.616  0.00  0.00    -0.071 C 
ATOM     13  C   UNL     1      39.629 -20.924 -34.775  0.00  0.00    +0.056 C 
ATOM     14  C   UNL     1      39.035 -20.208 -36.011  0.00  0.00    -0.023 C 
ATOM     15  C   UNL     1      39.231 -20.982 -37.343  0.00  0.00    +0.000 C 
ATOM     16  N   UNL     1      40.606 -21.133 -37.850  0.00  0.00    -0.298 N 
ATOM     17  C   UNL     1      41.500 -21.934 -36.999  0.00  0.00    +0.024 C 
ATOM     18  H   UNL     1      40.992 -20.190 -37.808  0.00  0.00    +0.000 HD
ENDROOT
BRANCH   1  20
ATOM     19  C   UNL     1      44.214 -17.492 -33.064  0.00  0.00    +0.079 C 
ATOM     20  O   UNL     1      42.969 -18.172 -32.987  0.00  0.00    -0.491 OA
ENDBRANCH   1  20
BRANCH  10  21
ATOM     21  O   UNL     1      37.085 -21.800 -31.777  0.00  0.00    -0.388 OA
ATOM     22  H   UNL     1      36.401 -22.488 -31.753  0.00  0.00    +0.000 HD
ENDBRANCH  10  21
BRANCH  16  23
ATOM     23  C   UNL     1      40.642 -21.572 -39.263  0.00  0.00    +0.006 C 
BRANCH  23  24
ATOM     24  C   UNL     1      41.558 -20.825 -40.278  0.00  0.00    -0.006 C 
ATOM     25  C   UNL     1      42.159 -21.834 -41.269  0.00  0.00    -0.057 C 
BRANCH  24  26
ATOM     26  C   UNL     1      42.668 -20.002 -39.648  0.00  0.00    -0.040 A 
ATOM     27  C   UNL     1      42.419 -18.676 -39.255  0.00  0.00    -0.058 A 
ATOM     28  C   UNL     1      43.416 -17.908 -38.650  0.00  0.00    -0.058 A 
ATOM     29  C   UNL     1      44.684 -18.449 -38.443  0.00  0.00    -0.019 A 
ATOM     30  C   UNL     1      44.954 -19.750 -38.860  0.00  0.00    +0.129 A 
ATOM     31  C   UNL     1      43.950 -20.533 -39.438  0.00  0.00    -0.016 A 
BRANCH  30  32
ATOM     32  O   UNL     1      46.214 -20.245 -38.613  0.00  0.00    -0.456 OA
BRANCH  32  33
ATOM     33  C   UNL     1      46.876 -20.830 -39.671  0.00  0.00    +0.128 A 
ATOM     34  C   UNL     1      47.276 -22.170 -39.673  0.00  0.00    -0.019 A 
ATOM     35  C   UNL     1      47.911 -22.702 -40.796  0.00  0.00    -0.058 A 
ATOM     36  C   UNL     1      48.131 -21.902 -41.919  0.00  0.00    -0.062 A 
ATOM     37  C   UNL     1      47.712 -20.572 -41.923  0.00  0.00    -0.058 A 
ATOM     38  C   UNL     1      47.077 -20.037 -40.801  0.00  0.00    -0.019 A 
ENDBRANCH  32  33
ENDBRANCH  30  32
ENDBRANCH  24  26
ENDBRANCH  23  24
ENDBRANCH  16  23
TORSDOF 7
ENDMDL
MODEL 9
REMARK VINA RESULT:    -7.744     17.567     21.285
REMARK INTER + INTRA:         -12.729
REMARK INTER:                 -10.869
REMARK INTRA:                  -1.860
REMARK UNBOUND:                -2.042
REMARK  Name = cpd129.pdb
REMARK  9 active torsions:
REMARK  status: ('A' for Active; 'I' for Inactive)
REMARK    1  A    between atoms: C_1  and  O_2
REMARK    2  A    between atoms: O_2  and  C_3
REMARK    3  A    between atoms: C_12  and  O_13
REMARK    4  A    between atoms: N_19  and  C_20
REMARK    5  A    between atoms: C_20  and  C_21
REMARK    6  A    between atoms: C_21  and  C_22
REMARK    7  A    between atoms: C_21  and  C_23
REMARK    8  A    between atoms: C_27  and  O_28
REMARK    9  A    between atoms: O_28  and  C_29
REMARK                            x       y       z     vdW  Elec       q    Type
REMARK                         _______ _______ _______ _____ _____    ______ ____
ROOT
ATOM      1  C   UNL     1      43.326 -17.133 -40.671  0.00  0.00    +0.162 A 
ATOM      2  C   UNL     1      42.380 -17.094 -39.644  0.00  0.00    -0.016 A 
ATOM      3  C   UNL     1      42.429 -18.021 -38.582  0.00  0.00    -0.053 A 
ATOM      4  C   UNL     1      43.393 -19.042 -38.546  0.00  0.00    -0.026 A 
ATOM      5  C   UNL     1      44.238 -19.157 -39.637  0.00  0.00    +0.016 A 
ATOM      6  C   UNL     1      44.250 -18.166 -40.631  0.00  0.00    +0.167 A 
ATOM      7  O   UNL     1      45.355 -18.267 -41.468  0.00  0.00    -0.484 OA
ATOM      8  C   UNL     1      45.692 -19.646 -41.276  0.00  0.00    +0.116 C 
ATOM      9  C   UNL     1      47.076 -20.081 -41.732  0.00  0.00    +0.015 C 
ATOM     10  C   UNL     1      47.185 -21.614 -41.561  0.00  0.00    +0.077 C 
ATOM     11  C   UNL     1      46.209 -22.233 -40.581  0.00  0.00    -0.059 C 
ATOM     12  C   UNL     1      45.374 -21.526 -39.791  0.00  0.00    -0.071 C 
ATOM     13  C   UNL     1      45.446 -20.019 -39.790  0.00  0.00    +0.056 C 
ATOM     14  C   UNL     1      46.457 -19.531 -38.725  0.00  0.00    -0.023 C 
ATOM     15  C   UNL     1      46.126 -19.997 -37.281  0.00  0.00    +0.000 C 
ATOM     16  N   UNL     1      44.907 -19.460 -36.651  0.00  0.00    -0.298 N 
ATOM     17  C   UNL     1      43.645 -19.851 -37.301  0.00  0.00    +0.024 C 
ATOM     18  H   UNL     1      44.971 -18.454 -36.803  0.00  0.00    +0.000 HD
ENDROOT
BRANCH   1  20
ATOM     19  C   UNL     1      43.969 -14.966 -41.395  0.00  0.00    +0.079 C 
ATOM     20  O   UNL     1      43.436 -16.246 -41.701  0.00  0.00    -0.491 OA
ENDBRANCH   1  20
BRANCH  10  21
ATOM     21  O   UNL     1      46.913 -22.240 -42.813  0.00  0.00    -0.388 OA
ATOM     22  H   UNL     1      45.996 -22.555 -42.826  0.00  0.00    +0.000 HD
ENDBRANCH  10  21
BRANCH  16  23
ATOM     23  C   UNL     1      44.877 -19.694 -35.190  0.00  0.00    +0.006 C 
BRANCH  23  24
ATOM     24  C   UNL     1      43.783 -19.003 -34.322  0.00  0.00    -0.006 C 
ATOM     25  C   UNL     1      44.392 -18.561 -32.982  0.00  0.00    -0.057 C 
BRANCH  24  26
ATOM     26  C   UNL     1      42.545 -19.845 -34.070  0.00  0.00    -0.040 A 
ATOM     27  C   UNL     1      41.896 -19.779 -32.825  0.00  0.00    -0.058 A 
ATOM     28  C   UNL     1      40.741 -20.525 -32.578  0.00  0.00    -0.058 A 
ATOM     29  C   UNL     1      40.226 -21.361 -33.567  0.00  0.00    -0.019 A 
ATOM     30  C   UNL     1      40.879 -21.462 -34.793  0.00  0.00    +0.129 A 
ATOM     31  C   UNL     1      42.019 -20.695 -35.055  0.00  0.00    -0.016 A 
BRANCH  30  32
ATOM     32  O   UNL     1      40.319 -22.284 -35.743  0.00  0.00    -0.456 OA
BRANCH  32  33
ATOM     33  C   UNL     1      40.421 -21.883 -37.058  0.00  0.00    +0.128 A 
ATOM     34  C   UNL     1      41.284 -22.491 -37.975  0.00  0.00    -0.019 A 
ATOM     35  C   UNL     1      41.305 -22.055 -39.300  0.00  0.00    -0.058 A 
ATOM     36  C   UNL     1      40.457 -21.025 -39.712  0.00  0.00    -0.062 A 
ATOM     37  C   UNL     1      39.581 -20.435 -38.800  0.00  0.00    -0.058 A 
ATOM     38  C   UNL     1      39.558 -20.870 -37.474  0.00  0.00    -0.019 A 
ENDBRANCH  32  33
ENDBRANCH  30  32
ENDBRANCH  24  26
ENDBRANCH  23  24
ENDBRANCH  16  23
TORSDOF 7
ENDMDL
MODEL 10
REMARK VINA RESULT:    -7.621     18.666     22.387
REMARK INTER + INTRA:         -12.558
REMARK INTER:                 -10.183
REMARK INTRA:                  -2.375
REMARK UNBOUND:                -2.042
REMARK  Name = cpd129.pdb
REMARK  9 active torsions:
REMARK  status: ('A' for Active; 'I' for Inactive)
REMARK    1  A    between atoms: C_1  and  O_2
REMARK    2  A    between atoms: O_2  and  C_3
REMARK    3  A    between atoms: C_12  and  O_13
REMARK    4  A    between atoms: N_19  and  C_20
REMARK    5  A    between atoms: C_20  and  C_21
REMARK    6  A    between atoms: C_21  and  C_22
REMARK    7  A    between atoms: C_21  and  C_23
REMARK    8  A    between atoms: C_27  and  O_28
REMARK    9  A    between atoms: O_28  and  C_29
REMARK                            x       y       z     vdW  Elec       q    Type
REMARK                         _______ _______ _______ _____ _____    ______ ____
ROOT
ATOM      1  C   UNL     1      45.491 -16.409 -40.092  0.00  0.00    +0.162 A 
ATOM      2  C   UNL     1      44.190 -15.937 -39.905  0.00  0.00    -0.016 A 
ATOM      3  C   UNL     1      43.107 -16.833 -39.781  0.00  0.00    -0.053 A 
ATOM      4  C   UNL     1      43.290 -18.221 -39.894  0.00  0.00    -0.026 A 
ATOM      5  C   UNL     1      44.559 -18.671 -40.218  0.00  0.00    +0.016 A 
ATOM      6  C   UNL     1      45.644 -17.780 -40.230  0.00  0.00    +0.167 A 
ATOM      7  O   UNL     1      46.869 -18.437 -40.258  0.00  0.00    -0.484 OA
ATOM      8  C   UNL     1      46.466 -19.699 -40.803  0.00  0.00    +0.116 C 
ATOM      9  C   UNL     1      47.448 -20.851 -40.657  0.00  0.00    +0.015 C 
ATOM     10  C   UNL     1      46.885 -22.071 -41.423  0.00  0.00    +0.077 C 
ATOM     11  C   UNL     1      45.391 -22.049 -41.676  0.00  0.00    -0.059 C 
ATOM     12  C   UNL     1      44.549 -21.121 -41.176  0.00  0.00    -0.071 C 
ATOM     13  C   UNL     1      45.073 -20.071 -40.229  0.00  0.00    +0.056 C 
ATOM     14  C   UNL     1      44.982 -20.572 -38.768  0.00  0.00    -0.023 C 
ATOM     15  C   UNL     1      43.545 -20.948 -38.319  0.00  0.00    +0.000 C 
ATOM     16  N   UNL     1      42.555 -19.862 -38.213  0.00  0.00    -0.298 N 
ATOM     17  C   UNL     1      42.219 -19.197 -39.483  0.00  0.00    +0.024 C 
ATOM     18  H   UNL     1      43.031 -19.144 -37.667  0.00  0.00    +0.000 HD
ENDROOT
BRANCH   1  20
ATOM     19  C   UNL     1      46.693 -14.536 -39.267  0.00  0.00    +0.079 C 
ATOM     20  O   UNL     1      46.625 -15.653 -40.141  0.00  0.00    -0.491 OA
ENDBRANCH   1  20
BRANCH  10  21
ATOM     21  O   UNL     1      47.488 -22.126 -42.714  0.00  0.00    -0.388 OA
ATOM     22  H   UNL     1      48.077 -21.364 -42.829  0.00  0.00    +0.000 HD
ENDBRANCH  10  21
BRANCH  16  23
ATOM     23  C   UNL     1      41.346 -20.271 -37.462  0.00  0.00    +0.006 C 
BRANCH  23  24
ATOM     24  C   UNL     1      41.498 -21.087 -36.144  0.00  0.00    -0.006 C 
ATOM     25  C   UNL     1      40.145 -21.708 -35.764  0.00  0.00    -0.057 C 
BRANCH  24  26
ATOM     26  C   UNL     1      42.050 -20.300 -34.968  0.00  0.00    -0.040 A 
ATOM     27  C   UNL     1      41.183 -19.857 -33.955  0.00  0.00    -0.058 A 
ATOM     28  C   UNL     1      41.671 -19.154 -32.851  0.00  0.00    -0.058 A 
ATOM     29  C   UNL     1      43.031 -18.869 -32.751  0.00  0.00    -0.019 A 
ATOM     30  C   UNL     1      43.896 -19.272 -33.766  0.00  0.00    +0.129 A 
ATOM     31  C   UNL     1      43.417 -20.002 -34.858  0.00  0.00    -0.016 A 
BRANCH  30  32
ATOM     32  O   UNL     1      45.232 -18.985 -33.610  0.00  0.00    -0.456 OA
BRANCH  32  33
ATOM     33  C   UNL     1      45.904 -18.504 -34.713  0.00  0.00    +0.128 A 
ATOM     34  C   UNL     1      45.682 -17.230 -35.245  0.00  0.00    -0.019 A 
ATOM     35  C   UNL     1      46.427 -16.797 -36.342  0.00  0.00    -0.058 A 
ATOM     36  C   UNL     1      47.401 -17.628 -36.897  0.00  0.00    -0.062 A 
ATOM     37  C   UNL     1      47.637 -18.890 -36.351  0.00  0.00    -0.058 A 
ATOM     38  C   UNL     1      46.893 -19.325 -35.253  0.00  0.00    -0.019 A 
ENDBRANCH  32  33
ENDBRANCH  30  32
ENDBRANCH  24  26
ENDBRANCH  23  24
ENDBRANCH  16  23
TORSDOF 7
ENDMDL
MODEL 11
REMARK VINA RESULT:    -7.597     17.398     20.832
REMARK INTER + INTRA:         -12.526
REMARK INTER:                 -10.865
REMARK INTRA:                  -1.661
REMARK UNBOUND:                -2.042
REMARK  Name = cpd129.pdb
REMARK  9 active torsions:
REMARK  status: ('A' for Active; 'I' for Inactive)
REMARK    1  A    between atoms: C_1  and  O_2
REMARK    2  A    between atoms: O_2  and  C_3
REMARK    3  A    between atoms: C_12  and  O_13
REMARK    4  A    between atoms: N_19  and  C_20
REMARK    5  A    between atoms: C_20  and  C_21
REMARK    6  A    between atoms: C_21  and  C_22
REMARK    7  A    between atoms: C_21  and  C_23
REMARK    8  A    between atoms: C_27  and  O_28
REMARK    9  A    between atoms: O_28  and  C_29
REMARK                            x       y       z     vdW  Elec       q    Type
REMARK                         _______ _______ _______ _____ _____    ______ ____
ROOT
ATOM      1  C   UNL     1      41.750 -21.895 -38.099  0.00  0.00    +0.162 A 
ATOM      2  C   UNL     1      42.438 -20.943 -38.855  0.00  0.00    -0.016 A 
ATOM      3  C   UNL     1      42.954 -19.777 -38.251  0.00  0.00    -0.053 A 
ATOM      4  C   UNL     1      42.751 -19.509 -36.887  0.00  0.00    -0.026 A 
ATOM      5  C   UNL     1      41.950 -20.388 -36.178  0.00  0.00    +0.016 A 
ATOM      6  C   UNL     1      41.536 -21.596 -36.762  0.00  0.00    +0.167 A 
ATOM      7  O   UNL     1      41.021 -22.487 -35.828  0.00  0.00    -0.484 OA
ATOM      8  C   UNL     1      40.649 -21.576 -34.787  0.00  0.00    +0.116 C 
ATOM      9  C   UNL     1      40.379 -22.178 -33.417  0.00  0.00    +0.015 C 
ATOM     10  C   UNL     1      39.867 -21.054 -32.485  0.00  0.00    +0.077 C 
ATOM     11  C   UNL     1      40.214 -19.642 -32.913  0.00  0.00    -0.059 C 
ATOM     12  C   UNL     1      41.021 -19.340 -33.951  0.00  0.00    -0.071 C 
ATOM     13  C   UNL     1      41.711 -20.448 -34.707  0.00  0.00    +0.056 C 
ATOM     14  C   UNL     1      43.082 -20.763 -34.064  0.00  0.00    -0.023 C 
ATOM     15  C   UNL     1      44.047 -19.548 -34.006  0.00  0.00    +0.000 C 
ATOM     16  N   UNL     1      44.551 -19.014 -35.284  0.00  0.00    -0.298 N 
ATOM     17  C   UNL     1      43.525 -18.436 -36.166  0.00  0.00    +0.024 C 
ATOM     18  H   UNL     1      44.884 -19.838 -35.784  0.00  0.00    +0.000 HD
ENDROOT
BRANCH   1  20
ATOM     19  C   UNL     1      40.503 -23.079 -39.735  0.00  0.00    +0.079 C 
ATOM     20  O   UNL     1      41.280 -23.095 -38.546  0.00  0.00    -0.491 OA
ENDBRANCH   1  20
BRANCH  10  21
ATOM     21  O   UNL     1      38.442 -21.099 -32.445  0.00  0.00    -0.388 OA
ATOM     22  H   UNL     1      38.139 -20.946 -31.537  0.00  0.00    +0.000 HD
ENDBRANCH  10  21
BRANCH  16  23
ATOM     23  C   UNL     1      45.704 -18.104 -35.099  0.00  0.00    +0.006 C 
BRANCH  23  24
ATOM     24  C   UNL     1      47.004 -18.331 -35.927  0.00  0.00    -0.006 C 
ATOM     25  C   UNL     1      48.208 -17.760 -35.161  0.00  0.00    -0.057 C 
BRANCH  24  26
ATOM     26  C   UNL     1      46.971 -17.757 -37.332  0.00  0.00    -0.040 A 
ATOM     27  C   UNL     1      47.428 -16.448 -37.564  0.00  0.00    -0.058 A 
ATOM     28  C   UNL     1      47.432 -15.908 -38.852  0.00  0.00    -0.058 A 
ATOM     29  C   UNL     1      46.964 -16.662 -39.926  0.00  0.00    -0.019 A 
ATOM     30  C   UNL     1      46.476 -17.948 -39.705  0.00  0.00    +0.129 A 
ATOM     31  C   UNL     1      46.498 -18.504 -38.422  0.00  0.00    -0.016 A 
BRANCH  30  32
ATOM     32  O   UNL     1      46.046 -18.660 -40.801  0.00  0.00    -0.456 OA
BRANCH  32  33
ATOM     33  C   UNL     1      46.558 -19.928 -40.965  0.00  0.00    +0.128 A 
ATOM     34  C   UNL     1      47.727 -20.192 -41.687  0.00  0.00    -0.019 A 
ATOM     35  C   UNL     1      48.204 -21.499 -41.779  0.00  0.00    -0.058 A 
ATOM     36  C   UNL     1      47.526 -22.539 -41.141  0.00  0.00    -0.062 A 
ATOM     37  C   UNL     1      46.372 -22.271 -40.403  0.00  0.00    -0.058 A 
ATOM     38  C   UNL     1      45.892 -20.964 -40.309  0.00  0.00    -0.019 A 
ENDBRANCH  32  33
ENDBRANCH  30  32
ENDBRANCH  24  26
ENDBRANCH  23  24
ENDBRANCH  16  23
TORSDOF 7
ENDMDL
MODEL 12
REMARK VINA RESULT:    -7.568     16.413     19.801
REMARK INTER + INTRA:         -12.486
REMARK INTER:                 -10.230
REMARK INTRA:                  -2.256
REMARK UNBOUND:                -2.042
REMARK  Name = cpd129.pdb
REMARK  9 active torsions:
REMARK  status: ('A' for Active; 'I' for Inactive)
REMARK    1  A    between atoms: C_1  and  O_2
REMARK    2  A    between atoms: O_2  and  C_3
REMARK    3  A    between atoms: C_12  and  O_13
REMARK    4  A    between atoms: N_19  and  C_20
REMARK    5  A    between atoms: C_20  and  C_21
REMARK    6  A    between atoms: C_21  and  C_22
REMARK    7  A    between atoms: C_21  and  C_23
REMARK    8  A    between atoms: C_27  and  O_28
REMARK    9  A    between atoms: O_28  and  C_29
REMARK                            x       y       z     vdW  Elec       q    Type
REMARK                         _______ _______ _______ _____ _____    ______ ____
ROOT
ATOM      1  C   UNL     1      41.251 -17.396 -34.825  0.00  0.00    +0.162 A 
ATOM      2  C   UNL     1      42.523 -17.513 -35.388  0.00  0.00    -0.016 A 
ATOM      3  C   UNL     1      42.953 -18.732 -35.956  0.00  0.00    -0.053 A 
ATOM      4  C   UNL     1      42.141 -19.878 -35.927  0.00  0.00    -0.026 A 
ATOM      5  C   UNL     1      40.940 -19.790 -35.244  0.00  0.00    +0.016 A 
ATOM      6  C   UNL     1      40.479 -18.548 -34.781  0.00  0.00    +0.167 A 
ATOM      7  O   UNL     1      39.140 -18.584 -34.410  0.00  0.00    -0.484 OA
ATOM      8  C   UNL     1      38.985 -19.985 -34.160  0.00  0.00    +0.116 C 
ATOM      9  C   UNL     1      37.560 -20.512 -34.083  0.00  0.00    +0.015 C 
ATOM     10  C   UNL     1      37.614 -22.003 -33.675  0.00  0.00    +0.077 C 
ATOM     11  C   UNL     1      38.933 -22.704 -33.936  0.00  0.00    -0.059 C 
ATOM     12  C   UNL     1      39.971 -22.148 -34.594  0.00  0.00    -0.071 C 
ATOM     13  C   UNL     1      39.821 -20.776 -35.201  0.00  0.00    +0.056 C 
ATOM     14  C   UNL     1      39.292 -20.885 -36.650  0.00  0.00    -0.023 C 
ATOM     15  C   UNL     1      40.194 -21.729 -37.590  0.00  0.00    +0.000 C 
ATOM     16  N   UNL     1      41.531 -21.200 -37.912  0.00  0.00    -0.298 N 
ATOM     17  C   UNL     1      42.451 -21.089 -36.768  0.00  0.00    +0.024 C 
ATOM     18  H   UNL     1      41.356 -20.235 -38.192  0.00  0.00    +0.000 HD
ENDROOT
BRANCH   1  20
ATOM     19  C   UNL     1      41.002 -15.926 -32.978  0.00  0.00    +0.079 C 
ATOM     20  O   UNL     1      40.691 -16.258 -34.324  0.00  0.00    -0.491 OA
ENDBRANCH   1  20
BRANCH  10  21
ATOM     21  O   UNL     1      37.401 -22.107 -32.269  0.00  0.00    -0.388 OA
ATOM     22  H   UNL     1      38.254 -22.080 -31.809  0.00  0.00    +0.000 HD
ENDBRANCH  10  21
BRANCH  16  23
ATOM     23  C   UNL     1      42.153 -21.897 -39.060  0.00  0.00    +0.006 C 
BRANCH  23  24
ATOM     24  C   UNL     1      42.962 -21.079 -40.110  0.00  0.00    -0.006 C 
ATOM     25  C   UNL     1      42.615 -21.570 -41.525  0.00  0.00    -0.057 C 
BRANCH  24  26
ATOM     26  C   UNL     1      44.468 -21.105 -39.914  0.00  0.00    -0.040 A 
ATOM     27  C   UNL     1      45.222 -22.171 -40.434  0.00  0.00    -0.058 A 
ATOM     28  C   UNL     1      46.612 -22.204 -40.288  0.00  0.00    -0.058 A 
ATOM     29  C   UNL     1      47.265 -21.180 -39.606  0.00  0.00    -0.019 A 
ATOM     30  C   UNL     1      46.526 -20.137 -39.055  0.00  0.00    +0.129 A 
ATOM     31  C   UNL     1      45.139 -20.084 -39.224  0.00  0.00    -0.016 A 
BRANCH  30  32
ATOM     32  O   UNL     1      47.220 -19.140 -38.410  0.00  0.00    -0.456 OA
BRANCH  32  33
ATOM     33  C   UNL     1      46.870 -18.875 -37.104  0.00  0.00    +0.128 A 
ATOM     34  C   UNL     1      46.705 -19.876 -36.141  0.00  0.00    -0.019 A 
ATOM     35  C   UNL     1      46.385 -19.529 -34.828  0.00  0.00    -0.058 A 
ATOM     36  C   UNL     1      46.247 -18.185 -34.474  0.00  0.00    -0.062 A 
ATOM     37  C   UNL     1      46.433 -17.188 -35.430  0.00  0.00    -0.058 A 
ATOM     38  C   UNL     1      46.753 -17.533 -36.745  0.00  0.00    -0.019 A 
ENDBRANCH  32  33
ENDBRANCH  30  32
ENDBRANCH  24  26
ENDBRANCH  23  24
ENDBRANCH  16  23
TORSDOF 7
ENDMDL
MODEL 13
REMARK VINA RESULT:    -7.467     18.289     21.933
REMARK INTER + INTRA:         -12.347
REMARK INTER:                  -9.334
REMARK INTRA:                  -3.013
REMARK UNBOUND:                -2.042
REMARK  Name = cpd129.pdb
REMARK  9 active torsions:
REMARK  status: ('A' for Active; 'I' for Inactive)
REMARK    1  A    between atoms: C_1  and  O_2
REMARK    2  A    between atoms: O_2  and  C_3
REMARK    3  A    between atoms: C_12  and  O_13
REMARK    4  A    between atoms: N_19  and  C_20
REMARK    5  A    between atoms: C_20  and  C_21
REMARK    6  A    between atoms: C_21  and  C_22
REMARK    7  A    between atoms: C_21  and  C_23
REMARK    8  A    between atoms: C_27  and  O_28
REMARK    9  A    between atoms: O_28  and  C_29
REMARK                            x       y       z     vdW  Elec       q    Type
REMARK                         _______ _______ _______ _____ _____    ______ ____
ROOT
ATOM      1  C   UNL     1      44.906 -18.272 -36.205  0.00  0.00    +0.162 A 
ATOM      2  C   UNL     1      45.910 -18.690 -37.082  0.00  0.00    -0.016 A 
ATOM      3  C   UNL     1      45.682 -19.747 -37.988  0.00  0.00    -0.053 A 
ATOM      4  C   UNL     1      44.464 -20.446 -38.006  0.00  0.00    -0.026 A 
ATOM      5  C   UNL     1      43.528 -20.116 -37.040  0.00  0.00    +0.016 A 
ATOM      6  C   UNL     1      43.723 -18.995 -36.219  0.00  0.00    +0.167 A 
ATOM      7  O   UNL     1      42.567 -18.626 -35.541  0.00  0.00    -0.484 OA
ATOM      8  C   UNL     1      41.851 -19.867 -35.569  0.00  0.00    +0.116 C 
ATOM      9  C   UNL     1      40.365 -19.805 -35.253  0.00  0.00    +0.015 C 
ATOM     10  C   UNL     1      39.818 -21.251 -35.204  0.00  0.00    +0.077 C 
ATOM     11  C   UNL     1      40.649 -22.288 -35.933  0.00  0.00    -0.059 C 
ATOM     12  C   UNL     1      41.725 -22.001 -36.694  0.00  0.00    -0.071 C 
ATOM     13  C   UNL     1      42.108 -20.562 -36.932  0.00  0.00    +0.056 C 
ATOM     14  C   UNL     1      41.392 -20.017 -38.190  0.00  0.00    -0.023 C 
ATOM     15  C   UNL     1      41.697 -20.815 -39.486  0.00  0.00    +0.000 C 
ATOM     16  N   UNL     1      43.073 -20.767 -40.011  0.00  0.00    -0.298 N 
ATOM     17  C   UNL     1      44.095 -21.368 -39.139  0.00  0.00    +0.024 C 
ATOM     18  H   UNL     1      43.300 -19.773 -40.023  0.00  0.00    +0.000 HD
ENDROOT
BRANCH   1  20
ATOM     19  C   UNL     1      45.012 -15.918 -35.922  0.00  0.00    +0.079 C 
ATOM     20  O   UNL     1      44.974 -17.215 -35.346  0.00  0.00    -0.491 OA
ENDBRANCH   1  20
BRANCH  10  21
ATOM     21  O   UNL     1      39.774 -21.684 -33.847  0.00  0.00    -0.388 OA
ATOM     22  H   UNL     1      40.347 -22.459 -33.736  0.00  0.00    +0.000 HD
ENDBRANCH  10  21
BRANCH  16  23
ATOM     23  C   UNL     1      43.164 -21.267 -41.401  0.00  0.00    +0.006 C 
BRANCH  23  24
ATOM     24  C   UNL     1      44.149 -20.588 -42.400  0.00  0.00    -0.006 C 
ATOM     25  C   UNL     1      45.153 -21.628 -42.922  0.00  0.00    -0.057 C 
BRANCH  24  26
ATOM     26  C   UNL     1      44.897 -19.390 -41.841  0.00  0.00    -0.040 A 
ATOM     27  C   UNL     1      46.278 -19.480 -41.596  0.00  0.00    -0.058 A 
ATOM     28  C   UNL     1      46.992 -18.383 -41.106  0.00  0.00    -0.058 A 
ATOM     29  C   UNL     1      46.332 -17.185 -40.839  0.00  0.00    -0.019 A 
ATOM     30  C   UNL     1      44.958 -17.094 -41.045  0.00  0.00    +0.129 A 
ATOM     31  C   UNL     1      44.244 -18.179 -41.563  0.00  0.00    -0.016 A 
BRANCH  30  32
ATOM     32  O   UNL     1      44.358 -15.883 -40.786  0.00  0.00    -0.456 OA
BRANCH  32  33
ATOM     33  C   UNL     1      43.148 -15.910 -40.128  0.00  0.00    +0.128 A 
ATOM     34  C   UNL     1      42.988 -16.446 -38.847  0.00  0.00    -0.019 A 
ATOM     35  C   UNL     1      41.738 -16.404 -38.228  0.00  0.00    -0.058 A 
ATOM     36  C   UNL     1      40.654 -15.816 -38.882  0.00  0.00    -0.062 A 
ATOM     37  C   UNL     1      40.820 -15.262 -40.151  0.00  0.00    -0.058 A 
ATOM     38  C   UNL     1      42.070 -15.302 -40.772  0.00  0.00    -0.019 A 
ENDBRANCH  32  33
ENDBRANCH  30  32
ENDBRANCH  24  26
ENDBRANCH  23  24
ENDBRANCH  16  23
TORSDOF 7
ENDMDL
MODEL 14
REMARK VINA RESULT:    -7.415     19.404     23.299
REMARK INTER + INTRA:         -12.275
REMARK INTER:                  -9.843
REMARK INTRA:                  -2.433
REMARK UNBOUND:                -2.042
REMARK  Name = cpd129.pdb
REMARK  9 active torsions:
REMARK  status: ('A' for Active; 'I' for Inactive)
REMARK    1  A    between atoms: C_1  and  O_2
REMARK    2  A    between atoms: O_2  and  C_3
REMARK    3  A    between atoms: C_12  and  O_13
REMARK    4  A    between atoms: N_19  and  C_20
REMARK    5  A    between atoms: C_20  and  C_21
REMARK    6  A    between atoms: C_21  and  C_22
REMARK    7  A    between atoms: C_21  and  C_23
REMARK    8  A    between atoms: C_27  and  O_28
REMARK    9  A    between atoms: O_28  and  C_29
REMARK                            x       y       z     vdW  Elec       q    Type
REMARK                         _______ _______ _______ _____ _____    ______ ____
ROOT
ATOM      1  C   UNL     1      46.979 -18.308 -36.861  0.00  0.00    +0.162 A 
ATOM      2  C   UNL     1      46.780 -16.932 -36.990  0.00  0.00    -0.016 A 
ATOM      3  C   UNL     1      46.500 -16.358 -38.248  0.00  0.00    -0.053 A 
ATOM      4  C   UNL     1      46.463 -17.137 -39.415  0.00  0.00    -0.026 A 
ATOM      5  C   UNL     1      46.798 -18.475 -39.298  0.00  0.00    +0.016 A 
ATOM      6  C   UNL     1      46.967 -19.053 -38.030  0.00  0.00    +0.167 A 
ATOM      7  O   UNL     1      46.983 -20.443 -38.078  0.00  0.00    -0.484 OA
ATOM      8  C   UNL     1      47.360 -20.643 -39.446  0.00  0.00    +0.116 C 
ATOM      9  C   UNL     1      47.134 -22.033 -40.020  0.00  0.00    +0.015 C 
ATOM     10  C   UNL     1      47.726 -22.072 -41.448  0.00  0.00    +0.077 C 
ATOM     11  C   UNL     1      47.904 -20.725 -42.118  0.00  0.00    -0.059 C 
ATOM     12  C   UNL     1      47.470 -19.557 -41.601  0.00  0.00    -0.071 C 
ATOM     13  C   UNL     1      46.676 -19.557 -40.318  0.00  0.00    +0.056 C 
ATOM     14  C   UNL     1      45.165 -19.690 -40.621  0.00  0.00    -0.023 C 
ATOM     15  C   UNL     1      44.603 -18.566 -41.532  0.00  0.00    +0.000 C 
ATOM     16  N   UNL     1      44.571 -17.197 -40.989  0.00  0.00    -0.298 N 
ATOM     17  C   UNL     1      45.889 -16.608 -40.704  0.00  0.00    +0.024 C 
ATOM     18  H   UNL     1      44.136 -17.303 -40.073  0.00  0.00    +0.000 HD
ENDROOT
BRANCH   1  20
ATOM     19  C   UNL     1      48.440 -18.853 -35.072  0.00  0.00    +0.079 C 
ATOM     20  O   UNL     1      47.171 -18.990 -35.696  0.00  0.00    -0.491 OA
ENDBRANCH   1  20
BRANCH  10  21
ATOM     21  O   UNL     1      49.032 -22.643 -41.392  0.00  0.00    -0.388 OA
ATOM     22  H   UNL     1      49.006 -23.545 -41.747  0.00  0.00    +0.000 HD
ENDBRANCH  10  21
BRANCH  16  23
ATOM     23  C   UNL     1      43.718 -16.291 -41.791  0.00  0.00    +0.006 C 
BRANCH  23  24
ATOM     24  C   UNL     1      42.547 -15.528 -41.103  0.00  0.00    -0.006 C 
ATOM     25  C   UNL     1      42.827 -14.016 -41.138  0.00  0.00    -0.057 C 
BRANCH  24  26
ATOM     26  C   UNL     1      42.254 -15.962 -39.678  0.00  0.00    -0.040 A 
ATOM     27  C   UNL     1      42.788 -15.233 -38.601  0.00  0.00    -0.058 A 
ATOM     28  C   UNL     1      42.512 -15.598 -37.281  0.00  0.00    -0.058 A 
ATOM     29  C   UNL     1      41.710 -16.707 -37.018  0.00  0.00    -0.019 A 
ATOM     30  C   UNL     1      41.203 -17.458 -38.076  0.00  0.00    +0.129 A 
ATOM     31  C   UNL     1      41.453 -17.079 -39.399  0.00  0.00    -0.016 A 
BRANCH  30  32
ATOM     32  O   UNL     1      40.400 -18.530 -37.764  0.00  0.00    -0.456 OA
BRANCH  32  33
ATOM     33  C   UNL     1      40.783 -19.763 -38.245  0.00  0.00    +0.128 A 
ATOM     34  C   UNL     1      40.026 -20.490 -39.169  0.00  0.00    -0.019 A 
ATOM     35  C   UNL     1      40.497 -21.716 -39.639  0.00  0.00    -0.058 A 
ATOM     36  C   UNL     1      41.727 -22.208 -39.199  0.00  0.00    -0.062 A 
ATOM     37  C   UNL     1      42.491 -21.472 -38.294  0.00  0.00    -0.058 A 
ATOM     38  C   UNL     1      42.022 -20.244 -37.822  0.00  0.00    -0.019 A 
ENDBRANCH  32  33
ENDBRANCH  30  32
ENDBRANCH  24  26
ENDBRANCH  23  24
ENDBRANCH  16  23
TORSDOF 7
ENDMDL
MODEL 15
REMARK VINA RESULT:    -7.397     15.881     19.284
REMARK INTER + INTRA:         -12.250
REMARK INTER:                 -11.129
REMARK INTRA:                  -1.121
REMARK UNBOUND:                -2.042
REMARK  Name = cpd129.pdb
REMARK  9 active torsions:
REMARK  status: ('A' for Active; 'I' for Inactive)
REMARK    1  A    between atoms: C_1  and  O_2
REMARK    2  A    between atoms: O_2  and  C_3
REMARK    3  A    between atoms: C_12  and  O_13
REMARK    4  A    between atoms: N_19  and  C_20
REMARK    5  A    between atoms: C_20  and  C_21
REMARK    6  A    between atoms: C_21  and  C_22
REMARK    7  A    between atoms: C_21  and  C_23
REMARK    8  A    between atoms: C_27  and  O_28
REMARK    9  A    between atoms: O_28  and  C_29
REMARK                            x       y       z     vdW  Elec       q    Type
REMARK                         _______ _______ _______ _____ _____    ______ ____
ROOT
ATOM      1  C   UNL     1      38.005 -18.151 -33.233  0.00  0.00    +0.162 A 
ATOM      2  C   UNL     1      38.948 -17.224 -32.787  0.00  0.00    -0.016 A 
ATOM      3  C   UNL     1      40.299 -17.594 -32.613  0.00  0.00    -0.053 A 
ATOM      4  C   UNL     1      40.729 -18.913 -32.830  0.00  0.00    -0.026 A 
ATOM      5  C   UNL     1      39.761 -19.855 -33.137  0.00  0.00    +0.016 A 
ATOM      6  C   UNL     1      38.445 -19.454 -33.413  0.00  0.00    +0.167 A 
ATOM      7  O   UNL     1      37.695 -20.464 -34.004  0.00  0.00    -0.484 OA
ATOM      8  C   UNL     1      38.435 -21.613 -33.572  0.00  0.00    +0.116 C 
ATOM      9  C   UNL     1      38.162 -22.916 -34.307  0.00  0.00    +0.015 C 
ATOM     10  C   UNL     1      38.953 -24.045 -33.604  0.00  0.00    +0.077 C 
ATOM     11  C   UNL     1      40.130 -23.592 -32.764  0.00  0.00    -0.059 C 
ATOM     12  C   UNL     1      40.576 -22.320 -32.705  0.00  0.00    -0.071 C 
ATOM     13  C   UNL     1      39.948 -21.267 -33.583  0.00  0.00    +0.056 C 
ATOM     14  C   UNL     1      40.682 -21.193 -34.942  0.00  0.00    -0.023 C 
ATOM     15  C   UNL     1      42.198 -20.876 -34.824  0.00  0.00    +0.000 C 
ATOM     16  N   UNL     1      42.581 -19.544 -34.323  0.00  0.00    -0.298 N 
ATOM     17  C   UNL     1      42.191 -19.264 -32.932  0.00  0.00    +0.024 C 
ATOM     18  H   UNL     1      42.022 -18.899 -34.880  0.00  0.00    +0.000 HD
ENDROOT
BRANCH   1  20
ATOM     19  C   UNL     1      36.415 -16.715 -34.256  0.00  0.00    +0.079 C 
ATOM     20  O   UNL     1      36.696 -17.897 -33.520  0.00  0.00    -0.491 OA
ENDBRANCH   1  20
BRANCH  10  21
ATOM     21  O   UNL     1      38.084 -24.728 -32.704  0.00  0.00    -0.388 OA
ATOM     22  H   UNL     1      38.607 -25.301 -32.121  0.00  0.00    +0.000 HD
ENDBRANCH  10  21
BRANCH  16  23
ATOM     23  C   UNL     1      44.007 -19.236 -34.574  0.00  0.00    +0.006 C 
BRANCH  23  24
ATOM     24  C   UNL     1      44.820 -20.114 -35.571  0.00  0.00    -0.006 C 
ATOM     25  C   UNL     1      46.225 -20.373 -35.003  0.00  0.00    -0.057 C 
BRANCH  24  26
ATOM     26  C   UNL     1      44.932 -19.545 -36.975  0.00  0.00    -0.040 A 
ATOM     27  C   UNL     1      43.983 -18.614 -37.429  0.00  0.00    -0.058 A 
ATOM     28  C   UNL     1      44.080 -18.057 -38.707  0.00  0.00    -0.058 A 
ATOM     29  C   UNL     1      45.118 -18.437 -39.556  0.00  0.00    -0.019 A 
ATOM     30  C   UNL     1      46.044 -19.386 -39.131  0.00  0.00    +0.129 A 
ATOM     31  C   UNL     1      45.969 -19.923 -37.842  0.00  0.00    -0.016 A 
BRANCH  30  32
ATOM     32  O   UNL     1      47.062 -19.710 -39.997  0.00  0.00    -0.456 OA
BRANCH  32  33
ATOM     33  C   UNL     1      46.965 -20.917 -40.655  0.00  0.00    +0.128 A 
ATOM     34  C   UNL     1      45.993 -21.181 -41.625  0.00  0.00    -0.019 A 
ATOM     35  C   UNL     1      45.980 -22.415 -42.276  0.00  0.00    -0.058 A 
ATOM     36  C   UNL     1      46.944 -23.377 -41.970  0.00  0.00    -0.062 A 
ATOM     37  C   UNL     1      47.927 -23.103 -41.018  0.00  0.00    -0.058 A 
ATOM     38  C   UNL     1      47.942 -21.870 -40.366  0.00  0.00    -0.019 A 
ENDBRANCH  32  33
ENDBRANCH  30  32
ENDBRANCH  24  26
ENDBRANCH  23  24
ENDBRANCH  16  23
TORSDOF 7
ENDMDL
MODEL 16
REMARK VINA RESULT:    -7.378     15.356     18.713
REMARK INTER + INTRA:         -12.224
REMARK INTER:                  -9.930
REMARK INTRA:                  -2.294
REMARK UNBOUND:                -2.042
REMARK  Name = cpd129.pdb
REMARK  9 active torsions:
REMARK  status: ('A' for Active; 'I' for Inactive)
REMARK    1  A    between atoms: C_1  and  O_2
REMARK    2  A    between atoms: O_2  and  C_3
REMARK    3  A    between atoms: C_12  and  O_13
REMARK    4  A    between atoms: N_19  and  C_20
REMARK    5  A    between atoms: C_20  and  C_21
REMARK    6  A    between atoms: C_21  and  C_22
REMARK    7  A    between atoms: C_21  and  C_23
REMARK    8  A    between atoms: C_27  and  O_28
REMARK    9  A    between atoms: O_28  and  C_29
REMARK                            x       y       z     vdW  Elec       q    Type
REMARK                         _______ _______ _______ _____ _____    ______ ____
ROOT
ATOM      1  C   UNL     1      38.602 -17.801 -33.510  0.00  0.00    +0.162 A 
ATOM      2  C   UNL     1      39.585 -16.939 -33.020  0.00  0.00    -0.016 A 
ATOM      3  C   UNL     1      40.895 -17.403 -32.775  0.00  0.00    -0.053 A 
ATOM      4  C   UNL     1      41.241 -18.750 -32.963  0.00  0.00    -0.026 A 
ATOM      5  C   UNL     1      40.226 -19.624 -33.315  0.00  0.00    +0.016 A 
ATOM      6  C   UNL     1      38.958 -19.133 -33.661  0.00  0.00    +0.167 A 
ATOM      7  O   UNL     1      38.169 -20.093 -34.284  0.00  0.00    -0.484 OA
ATOM      8  C   UNL     1      38.802 -21.287 -33.810  0.00  0.00    +0.116 C 
ATOM      9  C   UNL     1      38.476 -22.574 -34.551  0.00  0.00    +0.015 C 
ATOM     10  C   UNL     1      39.148 -23.750 -33.804  0.00  0.00    +0.077 C 
ATOM     11  C   UNL     1      40.309 -23.374 -32.906  0.00  0.00    -0.059 C 
ATOM     12  C   UNL     1      40.841 -22.137 -32.830  0.00  0.00    -0.071 C 
ATOM     13  C   UNL     1      40.334 -21.049 -33.744  0.00  0.00    +0.056 C 
ATOM     14  C   UNL     1      41.141 -21.038 -35.064  0.00  0.00    -0.023 C 
ATOM     15  C   UNL     1      42.667 -20.828 -34.869  0.00  0.00    +0.000 C 
ATOM     16  N   UNL     1      43.118 -19.523 -34.356  0.00  0.00    -0.298 N 
ATOM     17  C   UNL     1      42.677 -19.204 -32.988  0.00  0.00    +0.024 C 
ATOM     18  H   UNL     1      42.635 -18.844 -34.944  0.00  0.00    +0.000 HD
ENDROOT
BRANCH   1  20
ATOM     19  C   UNL     1      36.331 -17.566 -32.862  0.00  0.00    +0.079 C 
ATOM     20  O   UNL     1      37.330 -17.458 -33.865  0.00  0.00    -0.491 OA
ENDBRANCH   1  20
BRANCH  10  21
ATOM     21  O   UNL     1      38.187 -24.363 -32.946  0.00  0.00    -0.388 OA
ATOM     22  H   UNL     1      37.394 -24.588 -33.457  0.00  0.00    +0.000 HD
ENDBRANCH  10  21
BRANCH  16  23
ATOM     23  C   UNL     1      44.573 -19.319 -34.534  0.00  0.00    +0.006 C 
BRANCH  23  24
ATOM     24  C   UNL     1      45.097 -18.587 -35.805  0.00  0.00    -0.006 C 
ATOM     25  C   UNL     1      44.328 -17.270 -35.996  0.00  0.00    -0.057 C 
BRANCH  24  26
ATOM     26  C   UNL     1      45.035 -19.406 -37.082  0.00  0.00    -0.040 A 
ATOM     27  C   UNL     1      46.139 -20.188 -37.466  0.00  0.00    -0.058 A 
ATOM     28  C   UNL     1      46.096 -20.970 -38.623  0.00  0.00    -0.058 A 
ATOM     29  C   UNL     1      44.955 -20.968 -39.423  0.00  0.00    -0.019 A 
ATOM     30  C   UNL     1      43.868 -20.171 -39.073  0.00  0.00    +0.129 A 
ATOM     31  C   UNL     1      43.895 -19.410 -37.900  0.00  0.00    -0.016 A 
BRANCH  30  32
ATOM     32  O   UNL     1      42.758 -20.222 -39.884  0.00  0.00    -0.456 OA
BRANCH  32  33
ATOM     33  C   UNL     1      41.578 -20.637 -39.307  0.00  0.00    +0.128 A 
ATOM     34  C   UNL     1      40.499 -19.778 -39.076  0.00  0.00    -0.019 A 
ATOM     35  C   UNL     1      39.321 -20.279 -38.521  0.00  0.00    -0.058 A 
ATOM     36  C   UNL     1      39.215 -21.636 -38.211  0.00  0.00    -0.062 A 
ATOM     37  C   UNL     1      40.285 -22.495 -38.462  0.00  0.00    -0.058 A 
ATOM     38  C   UNL     1      41.465 -21.996 -39.017  0.00  0.00    -0.019 A 
ENDBRANCH  32  33
ENDBRANCH  30  32
ENDBRANCH  24  26
ENDBRANCH  23  24
ENDBRANCH  16  23
TORSDOF 7
ENDMDL
MODEL 17
REMARK VINA RESULT:    -7.361     18.617     22.124
REMARK INTER + INTRA:         -12.200
REMARK INTER:                  -9.503
REMARK INTRA:                  -2.697
REMARK UNBOUND:                -2.042
REMARK  Name = cpd129.pdb
REMARK  9 active torsions:
REMARK  status: ('A' for Active; 'I' for Inactive)
REMARK    1  A    between atoms: C_1  and  O_2
REMARK    2  A    between atoms: O_2  and  C_3
REMARK    3  A    between atoms: C_12  and  O_13
REMARK    4  A    between atoms: N_19  and  C_20
REMARK    5  A    between atoms: C_20  and  C_21
REMARK    6  A    between atoms: C_21  and  C_22
REMARK    7  A    between atoms: C_21  and  C_23
REMARK    8  A    between atoms: C_27  and  O_28
REMARK    9  A    between atoms: O_28  and  C_29
REMARK                            x       y       z     vdW  Elec       q    Type
REMARK                         _______ _______ _______ _____ _____    ______ ____
ROOT
ATOM      1  C   UNL     1      46.351 -19.830 -35.634  0.00  0.00    +0.162 A 
ATOM      2  C   UNL     1      46.590 -19.877 -37.009  0.00  0.00    -0.016 A 
ATOM      3  C   UNL     1      45.539 -19.686 -37.931  0.00  0.00    -0.053 A 
ATOM      4  C   UNL     1      44.216 -19.495 -37.503  0.00  0.00    -0.026 A 
ATOM      5  C   UNL     1      43.968 -19.589 -36.144  0.00  0.00    +0.016 A 
ATOM      6  C   UNL     1      45.033 -19.670 -35.234  0.00  0.00    +0.167 A 
ATOM      7  O   UNL     1      44.631 -19.439 -33.923  0.00  0.00    -0.484 OA
ATOM      8  C   UNL     1      43.238 -19.755 -34.027  0.00  0.00    +0.116 C 
ATOM      9  C   UNL     1      42.342 -19.277 -32.895  0.00  0.00    +0.015 C 
ATOM     10  C   UNL     1      40.919 -19.833 -33.133  0.00  0.00    +0.077 C 
ATOM     11  C   UNL     1      40.606 -20.238 -34.559  0.00  0.00    -0.059 C 
ATOM     12  C   UNL     1      41.429 -20.025 -35.606  0.00  0.00    -0.071 C 
ATOM     13  C   UNL     1      42.714 -19.263 -35.403  0.00  0.00    +0.056 C 
ATOM     14  C   UNL     1      42.478 -17.748 -35.609  0.00  0.00    -0.023 C 
ATOM     15  C   UNL     1      41.919 -17.381 -37.011  0.00  0.00    +0.000 C 
ATOM     16  N   UNL     1      42.795 -17.601 -38.175  0.00  0.00    -0.298 N 
ATOM     17  C   UNL     1      43.142 -19.006 -38.439  0.00  0.00    +0.024 C 
ATOM     18  H   UNL     1      43.678 -17.166 -37.907  0.00  0.00    +0.000 HD
ENDROOT
BRANCH   1  20
ATOM     19  C   UNL     1      48.429 -19.077 -34.770  0.00  0.00    +0.079 C 
ATOM     20  O   UNL     1      47.290 -19.915 -34.648  0.00  0.00    -0.491 OA
ENDBRANCH   1  20
BRANCH  10  21
ATOM     21  O   UNL     1      40.748 -21.017 -32.356  0.00  0.00    -0.388 OA
ATOM     22  H   UNL     1      40.489 -20.778 -31.453  0.00  0.00    +0.000 HD
ENDBRANCH  10  21
BRANCH  16  23
ATOM     23  C   UNL     1      42.304 -16.911 -39.389  0.00  0.00    +0.006 C 
BRANCH  23  24
ATOM     24  C   UNL     1      43.255 -15.955 -40.169  0.00  0.00    -0.006 C 
ATOM     25  C   UNL     1      42.764 -15.810 -41.619  0.00  0.00    -0.057 C 
BRANCH  24  26
ATOM     26  C   UNL     1      44.717 -16.365 -40.161  0.00  0.00    -0.040 A 
ATOM     27  C   UNL     1      45.621 -15.715 -39.303  0.00  0.00    -0.058 A 
ATOM     28  C   UNL     1      46.965 -16.092 -39.259  0.00  0.00    -0.058 A 
ATOM     29  C   UNL     1      47.429 -17.114 -40.085  0.00  0.00    -0.019 A 
ATOM     30  C   UNL     1      46.552 -17.743 -40.965  0.00  0.00    +0.129 A 
ATOM     31  C   UNL     1      45.199 -17.389 -40.990  0.00  0.00    -0.016 A 
BRANCH  30  32
ATOM     32  O   UNL     1      47.054 -18.760 -41.742  0.00  0.00    -0.456 OA
BRANCH  32  33
ATOM     33  C   UNL     1      46.791 -20.050 -41.335  0.00  0.00    +0.128 A 
ATOM     34  C   UNL     1      47.744 -20.863 -40.714  0.00  0.00    -0.019 A 
ATOM     35  C   UNL     1      47.394 -22.147 -40.296  0.00  0.00    -0.058 A 
ATOM     36  C   UNL     1      46.091 -22.612 -40.484  0.00  0.00    -0.062 A 
ATOM     37  C   UNL     1      45.136 -21.791 -41.083  0.00  0.00    -0.058 A 
ATOM     38  C   UNL     1      45.484 -20.506 -41.503  0.00  0.00    -0.019 A 
ENDBRANCH  32  33
ENDBRANCH  30  32
ENDBRANCH  24  26
ENDBRANCH  23  24
ENDBRANCH  16  23
TORSDOF 7
ENDMDL
MODEL 18
REMARK VINA RESULT:    -7.334     19.009     22.735
REMARK INTER + INTRA:         -12.163
REMARK INTER:                  -9.389
REMARK INTRA:                  -2.774
REMARK UNBOUND:                -2.042
REMARK  Name = cpd129.pdb
REMARK  9 active torsions:
REMARK  status: ('A' for Active; 'I' for Inactive)
REMARK    1  A    between atoms: C_1  and  O_2
REMARK    2  A    between atoms: O_2  and  C_3
REMARK    3  A    between atoms: C_12  and  O_13
REMARK    4  A    between atoms: N_19  and  C_20
REMARK    5  A    between atoms: C_20  and  C_21
REMARK    6  A    between atoms: C_21  and  C_22
REMARK    7  A    between atoms: C_21  and  C_23
REMARK    8  A    between atoms: C_27  and  O_28
REMARK    9  A    between atoms: O_28  and  C_29
REMARK                            x       y       z     vdW  Elec       q    Type
REMARK                         _______ _______ _______ _____ _____    ______ ____
ROOT
ATOM      1  C   UNL     1      42.329 -20.302 -39.146  0.00  0.00    +0.162 A 
ATOM      2  C   UNL     1      42.488 -19.529 -37.993  0.00  0.00    -0.016 A 
ATOM      3  C   UNL     1      43.763 -19.069 -37.603  0.00  0.00    -0.053 A 
ATOM      4  C   UNL     1      44.917 -19.412 -38.324  0.00  0.00    -0.026 A 
ATOM      5  C   UNL     1      44.767 -20.291 -39.383  0.00  0.00    +0.016 A 
ATOM      6  C   UNL     1      43.485 -20.653 -39.826  0.00  0.00    +0.167 A 
ATOM      7  O   UNL     1      43.509 -21.273 -41.071  0.00  0.00    -0.484 OA
ATOM      8  C   UNL     1      44.862 -21.743 -41.092  0.00  0.00    +0.116 C 
ATOM      9  C   UNL     1      45.418 -22.162 -42.445  0.00  0.00    +0.015 C 
ATOM     10  C   UNL     1      46.828 -22.759 -42.227  0.00  0.00    +0.077 C 
ATOM     11  C   UNL     1      47.516 -22.355 -40.938  0.00  0.00    -0.059 C 
ATOM     12  C   UNL     1      47.032 -21.440 -40.074  0.00  0.00    -0.071 C 
ATOM     13  C   UNL     1      45.772 -20.685 -40.414  0.00  0.00    +0.056 C 
ATOM     14  C   UNL     1      46.114 -19.392 -41.192  0.00  0.00    -0.023 C 
ATOM     15  C   UNL     1      47.060 -18.427 -40.427  0.00  0.00    +0.000 C 
ATOM     16  N   UNL     1      46.541 -17.786 -39.206  0.00  0.00    -0.298 N 
ATOM     17  C   UNL     1      46.230 -18.708 -38.102  0.00  0.00    +0.024 C 
ATOM     18  H   UNL     1      45.636 -17.411 -39.488  0.00  0.00    +0.000 HD
ENDROOT
BRANCH   1  20
ATOM     19  C   UNL     1      40.551 -21.871 -39.066  0.00  0.00    +0.079 C 
ATOM     20  O   UNL     1      41.148 -20.734 -39.672  0.00  0.00    -0.491 OA
ENDBRANCH   1  20
BRANCH  10  21
ATOM     21  O   UNL     1      46.727 -24.180 -42.173  0.00  0.00    -0.388 OA
ATOM     22  H   UNL     1      47.264 -24.516 -41.439  0.00  0.00    +0.000 HD
ENDBRANCH  10  21
BRANCH  16  23
ATOM     23  C   UNL     1      47.382 -16.651 -38.764  0.00  0.00    +0.006 C 
BRANCH  23  24
ATOM     24  C   UNL     1      46.733 -15.252 -38.546  0.00  0.00    -0.006 C 
ATOM     25  C   UNL     1      47.671 -14.374 -37.702  0.00  0.00    -0.057 C 
BRANCH  24  26
ATOM     26  C   UNL     1      45.353 -15.283 -37.912  0.00  0.00    -0.040 A 
ATOM     27  C   UNL     1      44.220 -14.982 -38.689  0.00  0.00    -0.058 A 
ATOM     28  C   UNL     1      42.938 -15.029 -38.135  0.00  0.00    -0.058 A 
ATOM     29  C   UNL     1      42.771 -15.360 -36.793  0.00  0.00    -0.019 A 
ATOM     30  C   UNL     1      43.887 -15.626 -36.003  0.00  0.00    +0.129 A 
ATOM     31  C   UNL     1      45.170 -15.610 -36.560  0.00  0.00    -0.016 A 
BRANCH  30  32
ATOM     32  O   UNL     1      43.667 -15.970 -34.690  0.00  0.00    -0.456 OA
BRANCH  32  33
ATOM     33  C   UNL     1      43.524 -17.311 -34.407  0.00  0.00    +0.128 A 
ATOM     34  C   UNL     1      44.606 -18.150 -34.125  0.00  0.00    -0.019 A 
ATOM     35  C   UNL     1      44.381 -19.491 -33.812  0.00  0.00    -0.058 A 
ATOM     36  C   UNL     1      43.077 -19.989 -33.766  0.00  0.00    -0.062 A 
ATOM     37  C   UNL     1      41.997 -19.144 -34.026  0.00  0.00    -0.058 A 
ATOM     38  C   UNL     1      42.221 -17.803 -34.340  0.00  0.00    -0.019 A 
ENDBRANCH  32  33
ENDBRANCH  30  32
ENDBRANCH  24  26
ENDBRANCH  23  24
ENDBRANCH  16  23
TORSDOF 7
ENDMDL
MODEL 19
REMARK VINA RESULT:    -7.307     17.430     20.818
REMARK INTER + INTRA:         -12.126
REMARK INTER:                 -10.326
REMARK INTRA:                  -1.800
REMARK UNBOUND:                -2.042
REMARK  Name = cpd129.pdb
REMARK  9 active torsions:
REMARK  status: ('A' for Active; 'I' for Inactive)
REMARK    1  A    between atoms: C_1  and  O_2
REMARK    2  A    between atoms: O_2  and  C_3
REMARK    3  A    between atoms: C_12  and  O_13
REMARK    4  A    between atoms: N_19  and  C_20
REMARK    5  A    between atoms: C_20  and  C_21
REMARK    6  A    between atoms: C_21  and  C_22
REMARK    7  A    between atoms: C_21  and  C_23
REMARK    8  A    between atoms: C_27  and  O_28
REMARK    9  A    between atoms: O_28  and  C_29
REMARK                            x       y       z     vdW  Elec       q    Type
REMARK                         _______ _______ _______ _____ _____    ______ ____
ROOT
ATOM      1  C   UNL     1      41.395 -20.826 -38.292  0.00  0.00    +0.162 A 
ATOM      2  C   UNL     1      41.896 -19.643 -38.839  0.00  0.00    -0.016 A 
ATOM      3  C   UNL     1      42.292 -18.573 -38.009  0.00  0.00    -0.053 A 
ATOM      4  C   UNL     1      42.148 -18.639 -36.614  0.00  0.00    -0.026 A 
ATOM      5  C   UNL     1      41.522 -19.758 -36.091  0.00  0.00    +0.016 A 
ATOM      6  C   UNL     1      41.234 -20.857 -36.914  0.00  0.00    +0.167 A 
ATOM      7  O   UNL     1      40.908 -21.995 -36.186  0.00  0.00    -0.484 OA
ATOM      8  C   UNL     1      40.489 -21.395 -34.954  0.00  0.00    +0.116 C 
ATOM      9  C   UNL     1      40.396 -22.311 -33.745  0.00  0.00    +0.015 C 
ATOM     10  C   UNL     1      39.803 -21.503 -32.567  0.00  0.00    +0.077 C 
ATOM     11  C   UNL     1      39.928 -19.997 -32.679  0.00  0.00    -0.059 C 
ATOM     12  C   UNL     1      40.615 -19.363 -33.652  0.00  0.00    -0.071 C 
ATOM     13  C   UNL     1      41.394 -20.168 -34.662  0.00  0.00    +0.056 C 
ATOM     14  C   UNL     1      42.835 -20.413 -34.157  0.00  0.00    -0.023 C 
ATOM     15  C   UNL     1      43.631 -19.112 -33.864  0.00  0.00    +0.000 C 
ATOM     16  N   UNL     1      43.971 -18.247 -35.007  0.00  0.00    -0.298 N 
ATOM     17  C   UNL     1      42.819 -17.647 -35.700  0.00  0.00    +0.024 C 
ATOM     18  H   UNL     1      44.376 -18.886 -35.691  0.00  0.00    +0.000 HD
ENDROOT
BRANCH   1  20
ATOM     19  C   UNL     1      41.433 -22.011 -40.347  0.00  0.00    +0.079 C 
ATOM     20  O   UNL     1      41.060 -21.955 -38.978  0.00  0.00    -0.491 OA
ENDBRANCH   1  20
BRANCH  10  21
ATOM     21  O   UNL     1      38.403 -21.762 -32.485  0.00  0.00    -0.388 OA
ATOM     22  H   UNL     1      38.257 -22.631 -32.079  0.00  0.00    +0.000 HD
ENDBRANCH  10  21
BRANCH  16  23
ATOM     23  C   UNL     1      45.001 -17.241 -34.666  0.00  0.00    +0.006 C 
BRANCH  23  24
ATOM     24  C   UNL     1      46.145 -16.936 -35.679  0.00  0.00    -0.006 C 
ATOM     25  C   UNL     1      45.817 -15.649 -36.454  0.00  0.00    -0.057 C 
BRANCH  24  26
ATOM     26  C   UNL     1      46.447 -18.059 -36.655  0.00  0.00    -0.040 A 
ATOM     27  C   UNL     1      46.489 -19.388 -36.199  0.00  0.00    -0.058 A 
ATOM     28  C   UNL     1      46.740 -20.441 -37.082  0.00  0.00    -0.058 A 
ATOM     29  C   UNL     1      46.969 -20.179 -38.432  0.00  0.00    -0.019 A 
ATOM     30  C   UNL     1      46.965 -18.864 -38.890  0.00  0.00    +0.129 A 
ATOM     31  C   UNL     1      46.684 -17.810 -38.015  0.00  0.00    -0.016 A 
BRANCH  30  32
ATOM     32  O   UNL     1      47.174 -18.661 -40.234  0.00  0.00    -0.456 OA
BRANCH  32  33
ATOM     33  C   UNL     1      46.150 -19.008 -41.088  0.00  0.00    +0.128 A 
ATOM     34  C   UNL     1      44.971 -18.266 -41.207  0.00  0.00    -0.019 A 
ATOM     35  C   UNL     1      43.994 -18.659 -42.122  0.00  0.00    -0.058 A 
ATOM     36  C   UNL     1      44.199 -19.782 -42.925  0.00  0.00    -0.062 A 
ATOM     37  C   UNL     1      45.386 -20.509 -42.820  0.00  0.00    -0.058 A 
ATOM     38  C   UNL     1      46.365 -20.117 -41.906  0.00  0.00    -0.019 A 
ENDBRANCH  32  33
ENDBRANCH  30  32
ENDBRANCH  24  26
ENDBRANCH  23  24
ENDBRANCH  16  23
TORSDOF 7
ENDMDL
MODEL 20
REMARK VINA RESULT:    -7.202     17.317     21.161
REMARK INTER + INTRA:         -11.981
REMARK INTER:                 -10.179
REMARK INTRA:                  -1.802
REMARK UNBOUND:                -2.042
REMARK  Name = cpd129.pdb
REMARK  9 active torsions:
REMARK  status: ('A' for Active; 'I' for Inactive)
REMARK    1  A    between atoms: C_1  and  O_2
REMARK    2  A    between atoms: O_2  and  C_3
REMARK    3  A    between atoms: C_12  and  O_13
REMARK    4  A    between atoms: N_19  and  C_20
REMARK    5  A    between atoms: C_20  and  C_21
REMARK    6  A    between atoms: C_21  and  C_22
REMARK    7  A    between atoms: C_21  and  C_23
REMARK    8  A    between atoms: C_27  and  O_28
REMARK    9  A    between atoms: O_28  and  C_29
REMARK                            x       y       z     vdW  Elec       q    Type
REMARK                         _______ _______ _______ _____ _____    ______ ____
ROOT
ATOM      1  C   UNL     1      46.980 -18.562 -36.797  0.00  0.00    +0.162 A 
ATOM      2  C   UNL     1      46.125 -17.498 -36.500  0.00  0.00    -0.016 A 
ATOM      3  C   UNL     1      44.974 -17.258 -37.280  0.00  0.00    -0.053 A 
ATOM      4  C   UNL     1      44.677 -18.041 -38.407  0.00  0.00    -0.026 A 
ATOM      5  C   UNL     1      45.602 -19.004 -38.774  0.00  0.00    +0.016 A 
ATOM      6  C   UNL     1      46.683 -19.304 -37.930  0.00  0.00    +0.167 A 
ATOM      7  O   UNL     1      47.320 -20.488 -38.285  0.00  0.00    -0.484 OA
ATOM      8  C   UNL     1      46.929 -20.583 -39.660  0.00  0.00    +0.116 C 
ATOM      9  C   UNL     1      47.112 -21.935 -40.331  0.00  0.00    +0.015 C 
ATOM     10  C   UNL     1      46.761 -21.786 -41.830  0.00  0.00    +0.077 C 
ATOM     11  C   UNL     1      45.886 -20.600 -42.181  0.00  0.00    -0.059 C 
ATOM     12  C   UNL     1      45.318 -19.780 -41.272  0.00  0.00    -0.071 C 
ATOM     13  C   UNL     1      45.469 -20.077 -39.801  0.00  0.00    +0.056 C 
ATOM     14  C   UNL     1      44.317 -20.991 -39.318  0.00  0.00    -0.023 C 
ATOM     15  C   UNL     1      42.902 -20.394 -39.544  0.00  0.00    +0.000 C 
ATOM     16  N   UNL     1      42.534 -19.194 -38.773  0.00  0.00    -0.298 N 
ATOM     17  C   UNL     1      43.327 -17.992 -39.074  0.00  0.00    +0.024 C 
ATOM     18  H   UNL     1      42.781 -19.430 -37.812  0.00  0.00    +0.000 HD
ENDROOT
BRANCH   1  20
ATOM     19  C   UNL     1      48.219 -18.380 -34.781  0.00  0.00    +0.079 C 
ATOM     20  O   UNL     1      48.070 -18.948 -36.074  0.00  0.00    -0.491 OA
ENDBRANCH   1  20
BRANCH  10  21
ATOM     21  O   UNL     1      47.965 -21.601 -42.571  0.00  0.00    -0.388 OA
ATOM     22  H   UNL     1      48.307 -22.464 -42.853  0.00  0.00    +0.000 HD
ENDBRANCH  10  21
BRANCH  16  23
ATOM     23  C   UNL     1      41.079 -18.925 -38.809  0.00  0.00    +0.006 C 
BRANCH  23  24
ATOM     24  C   UNL     1      40.362 -18.394 -37.532  0.00  0.00    -0.006 C 
ATOM     25  C   UNL     1      40.168 -16.873 -37.645  0.00  0.00    -0.057 C 
BRANCH  24  26
ATOM     26  C   UNL     1      41.061 -18.726 -36.226  0.00  0.00    -0.040 A 
ATOM     27  C   UNL     1      41.914 -17.781 -35.629  0.00  0.00    -0.058 A 
ATOM     28  C   UNL     1      42.548 -18.053 -34.415  0.00  0.00    -0.058 A 
ATOM     29  C   UNL     1      42.352 -19.281 -33.786  0.00  0.00    -0.019 A 
ATOM     30  C   UNL     1      41.538 -20.240 -34.384  0.00  0.00    +0.129 A 
ATOM     31  C   UNL     1      40.877 -19.960 -35.585  0.00  0.00    -0.016 A 
BRANCH  30  32
ATOM     32  O   UNL     1      41.359 -21.427 -33.713  0.00  0.00    -0.456 OA
BRANCH  32  33
ATOM     33  C   UNL     1      40.072 -21.909 -33.622  0.00  0.00    +0.128 A 
ATOM     34  C   UNL     1      39.680 -23.143 -34.152  0.00  0.00    -0.019 A 
ATOM     35  C   UNL     1      38.366 -23.582 -33.989  0.00  0.00    -0.058 A 
ATOM     36  C   UNL     1      37.449 -22.798 -33.286  0.00  0.00    -0.062 A 
ATOM     37  C   UNL     1      37.847 -21.578 -32.739  0.00  0.00    -0.058 A 
ATOM     38  C   UNL     1      39.162 -21.137 -32.901  0.00  0.00    -0.019 A 
ENDBRANCH  32  33
ENDBRANCH  30  32
ENDBRANCH  24  26
ENDBRANCH  23  24
ENDBRANCH  16  23
TORSDOF 7
ENDMDL
