REMARK  Name = cpd189.pdb
REMARK  13 active torsions:
REMARK  status: ('A' for Active; 'I' for Inactive)
REMARK    1  A    between atoms: C_1  and  C_2
REMARK    2  A    between atoms: C_2  and  O_4
REMARK    3  A    between atoms: O_4  and  C_5
REMARK    4  A    between atoms: C_6  and  N_7
REMARK    5  A    between atoms: C_8  and  C_10
REMARK    6  A    between atoms: C_16  and  O_17
REMARK    7  A    between atoms: C_19  and  C_20
REMARK    8  A    between atoms: C_24  and  C_25
REMARK    9  A    between atoms: C_26  and  C_27
REMARK   10  A    between atoms: C_27  and  C_28
REMARK   11  A    between atoms: C_27  and  N_29
REMARK   12  A    between atoms: N_29  and  C_30
REMARK   13  A    between atoms: N_29  and  C_31
REMARK                            x       y       z     vdW  Elec       q    Type
REMARK                         _______ _______ _______ _____ _____    ______ ____
ROOT
ATOM      1  C   UNL     1       1.702  -1.087  -0.163  0.00  0.00    +0.127 C 
ATOM      2  C   UNL     1       2.949  -0.202  -0.361  0.00  0.00    +0.086 C 
ATOM      3  C   UNL     1       2.911   1.009   0.600  0.00  0.00    +0.077 C 
ATOM      4  C   UNL     1       1.488   1.431   1.008  0.00  0.00    -0.019 C 
ATOM      5  C   UNL     1       0.385   1.205  -0.079  0.00  0.00    -0.020 C 
ATOM      6  C   UNL     1       0.715   2.111  -1.288  0.00  0.00    -0.059 C 
ATOM      7  C   UNL     1      -1.025   1.576   0.548  0.00  0.00    -0.032 C 
ATOM      8  C   UNL     1      -1.255   3.051   0.935  0.00  0.00    -0.049 C 
ATOM      9  C   UNL     1      -1.769   3.947  -0.186  0.00  0.00    -0.047 C 
ATOM     10  C   UNL     1      -3.013   3.429  -0.928  0.00  0.00    -0.025 C 
ATOM     11  C   UNL     1      -3.165   4.276  -2.217  0.00  0.00    -0.059 C 
ATOM     12  C   UNL     1      -4.339   3.423  -0.093  0.00  0.00    -0.020 C 
ATOM     13  C   UNL     1      -5.209   2.353  -0.797  0.00  0.00    -0.048 C 
ATOM     14  C   UNL     1      -4.283   1.506  -1.666  0.00  0.00    -0.049 C 
ATOM     15  C   UNL     1      -2.852   1.929  -1.303  0.00  0.00    -0.032 C 
ATOM     16  C   UNL     1      -2.273   1.020  -0.183  0.00  0.00    -0.034 C 
ATOM     17  C   UNL     1      -2.077  -0.418  -0.700  0.00  0.00    -0.049 C 
ATOM     18  C   UNL     1      -0.833  -1.089  -0.146  0.00  0.00    -0.046 C 
ATOM     19  C   UNL     1       0.419  -0.301  -0.560  0.00  0.00    +0.004 C 
ENDROOT
BRANCH   2  20
ATOM     20  N   UNL     1       4.195  -0.973  -0.246  0.00  0.00    -0.302 N 
ATOM     21  C   UNL     1       5.425  -0.462  -0.593  0.00  0.00    +0.244 C 
ATOM     22  O   UNL     1       5.578   0.709  -0.927  0.00  0.00    -0.270 OA
ATOM     23  H   UNL     1       4.148  -1.896   0.094  0.00  0.00    +0.000 HD
BRANCH  21  24
ATOM     24  C   UNL     1       6.596  -1.381  -0.517  0.00  0.00    +0.037 A 
ATOM     25  C   UNL     1       6.470  -2.774  -0.606  0.00  0.00    -0.050 A 
ATOM     26  C   UNL     1       7.607  -3.584  -0.546  0.00  0.00    -0.061 A 
ATOM     27  C   UNL     1       8.871  -3.011  -0.403  0.00  0.00    -0.062 A 
ATOM     28  C   UNL     1       9.004  -1.626  -0.326  0.00  0.00    -0.061 A 
ATOM     29  C   UNL     1       7.871  -0.813  -0.387  0.00  0.00    -0.050 A 
ENDBRANCH  21  24
ENDBRANCH   2  20
BRANCH   3  30
ATOM     30  O   UNL     1       3.549   2.144   0.004  0.00  0.00    -0.390 OA
ATOM     31  H   UNL     1       3.058   2.412  -0.788  0.00  0.00    +0.000 HD
ENDBRANCH   3  30
BRANCH  12  32
ATOM     32  C   UNL     1      -5.118   4.770   0.076  0.00  0.00    +0.010 C 
ATOM     33  C   UNL     1      -6.443   4.556   0.836  0.00  0.00    -0.049 C 
BRANCH  32  34
ATOM     34  N   UNL     1      -4.273   5.825   0.671  0.00  0.00    -0.305 N 
ATOM     35  C   UNL     1      -4.088   5.723   2.117  0.00  0.00    -0.013 C 
ATOM     36  C   UNL     1      -4.718   7.170   0.306  0.00  0.00    -0.013 C 
ATOM     37  H   UNL     1      -3.355   5.659   0.258  0.00  0.00    +0.000 HD
ENDBRANCH  32  34
ENDBRANCH  12  32
BRANCH   1  38
ATOM     38  O   UNL     1       1.572  -1.532   1.211  0.00  0.00    -0.459 OA
BRANCH  38  40
ATOM     39  C   UNL     1       1.955  -3.008   2.992  0.00  0.00    +0.033 C 
ATOM     40  C   UNL     1       2.278  -2.633   1.579  0.00  0.00    +0.304 C 
ATOM     41  O   UNL     1       3.086  -3.221   0.872  0.00  0.00    -0.251 OA
ENDBRANCH  38  40
ENDBRANCH   1  38
TORSDOF 7
