MODEL 1
REMARK VINA RESULT:    -8.996      0.000      0.000
REMARK INTER + INTRA:         -14.116
REMARK INTER:                 -12.414
REMARK INTRA:                  -1.702
REMARK UNBOUND:                -1.702
REMARK  Name = cpd189.pdb
REMARK  13 active torsions:
REMARK  status: ('A' for Active; 'I' for Inactive)
REMARK    1  A    between atoms: C_1  and  C_2
REMARK    2  A    between atoms: C_2  and  O_4
REMARK    3  A    between atoms: O_4  and  C_5
REMARK    4  A    between atoms: C_6  and  N_7
REMARK    5  A    between atoms: C_8  and  C_10
REMARK    6  A    between atoms: C_16  and  O_17
REMARK    7  A    between atoms: C_19  and  C_20
REMARK    8  A    between atoms: C_24  and  C_25
REMARK    9  A    between atoms: C_26  and  C_27
REMARK   10  A    between atoms: C_27  and  C_28
REMARK   11  A    between atoms: C_27  and  N_29
REMARK   12  A    between atoms: N_29  and  C_30
REMARK   13  A    between atoms: N_29  and  C_31
REMARK                            x       y       z     vdW  Elec       q    Type
REMARK                         _______ _______ _______ _____ _____    ______ ____
ROOT
ATOM      1  C   UNL     1      35.192 -36.180 -30.008  0.00  0.00    +0.127 C 
ATOM      2  C   UNL     1      36.216 -35.400 -30.856  0.00  0.00    +0.086 C 
ATOM      3  C   UNL     1      36.215 -33.904 -30.465  0.00  0.00    +0.077 C 
ATOM      4  C   UNL     1      34.873 -33.415 -29.891  0.00  0.00    -0.019 C 
ATOM      5  C   UNL     1      33.600 -34.118 -30.471  0.00  0.00    -0.020 C 
ATOM      6  C   UNL     1      33.513 -33.777 -31.977  0.00  0.00    -0.059 C 
ATOM      7  C   UNL     1      32.328 -33.586 -29.687  0.00  0.00    -0.032 C 
ATOM      8  C   UNL     1      31.973 -32.094 -29.854  0.00  0.00    -0.049 C 
ATOM      9  C   UNL     1      31.093 -31.764 -31.055  0.00  0.00    -0.047 C 
ATOM     10  C   UNL     1      29.806 -32.597 -31.180  0.00  0.00    -0.025 C 
ATOM     11  C   UNL     1      29.245 -32.364 -32.606  0.00  0.00    -0.059 C 
ATOM     12  C   UNL     1      28.717 -32.318 -30.089  0.00  0.00    -0.020 C 
ATOM     13  C   UNL     1      27.881 -33.621 -30.066  0.00  0.00    -0.048 C 
ATOM     14  C   UNL     1      28.704 -34.708 -30.751  0.00  0.00    -0.049 C 
ATOM     15  C   UNL     1      30.101 -34.109 -30.974  0.00  0.00    -0.032 C 
ATOM     16  C   UNL     1      31.045 -34.449 -29.787  0.00  0.00    -0.034 C 
ATOM     17  C   UNL     1      31.332 -35.962 -29.739  0.00  0.00    -0.049 C 
ATOM     18  C   UNL     1      32.754 -36.289 -29.320  0.00  0.00    -0.046 C 
ATOM     19  C   UNL     1      33.750 -35.686 -30.322  0.00  0.00    +0.004 C 
ENDROOT
BRANCH   2  20
ATOM     20  N   UNL     1      37.557 -35.998 -30.786  0.00  0.00    -0.302 N 
ATOM     21  C   UNL     1      38.509 -35.814 -31.763  0.00  0.00    +0.244 C 
ATOM     22  O   UNL     1      38.338 -35.053 -32.710  0.00  0.00    -0.270 OA
ATOM     23  H   UNL     1      37.784 -36.556 -30.007  0.00  0.00    +0.000 HD
BRANCH  21  24
ATOM     24  C   UNL     1      39.795 -36.553 -31.616  0.00  0.00    +0.037 A 
ATOM     25  C   UNL     1      40.758 -36.604 -32.633  0.00  0.00    -0.050 A 
ATOM     26  C   UNL     1      41.953 -37.299 -32.430  0.00  0.00    -0.061 A 
ATOM     27  C   UNL     1      42.195 -37.940 -31.215  0.00  0.00    -0.062 A 
ATOM     28  C   UNL     1      41.247 -37.884 -30.195  0.00  0.00    -0.061 A 
ATOM     29  C   UNL     1      40.052 -37.189 -30.393  0.00  0.00    -0.050 A 
ENDBRANCH  21  24
ENDBRANCH   2  20
BRANCH   3  30
ATOM     30  O   UNL     1      36.527 -33.087 -31.600  0.00  0.00    -0.390 OA
ATOM     31  H   UNL     1      37.294 -32.531 -31.396  0.00  0.00    +0.000 HD
ENDBRANCH   3  30
BRANCH  12  32
ATOM     32  C   UNL     1      27.804 -31.058 -30.254  0.00  0.00    +0.010 C 
ATOM     33  C   UNL     1      26.314 -31.426 -30.104  0.00  0.00    -0.049 C 
BRANCH  32  34
ATOM     34  N   UNL     1      28.220 -29.954 -29.364  0.00  0.00    -0.305 N 
ATOM     35  C   UNL     1      28.920 -28.858 -30.030  0.00  0.00    -0.013 C 
ATOM     36  C   UNL     1      28.987 -30.425 -28.211  0.00  0.00    -0.013 C 
ATOM     37  H   UNL     1      27.337 -29.565 -29.035  0.00  0.00    +0.000 HD
ENDBRANCH  32  34
ENDBRANCH  12  32
BRANCH   1  38
ATOM     38  O   UNL     1      35.440 -36.024 -28.588  0.00  0.00    -0.459 OA
BRANCH  38  40
ATOM     39  C   UNL     1      35.161 -37.595 -26.869  0.00  0.00    +0.033 C 
ATOM     40  C   UNL     1      36.051 -37.055 -27.946  0.00  0.00    +0.304 C 
ATOM     41  O   UNL     1      37.178 -37.467 -28.187  0.00  0.00    -0.251 OA
ENDBRANCH  38  40
ENDBRANCH   1  38
TORSDOF 7
ENDMDL
MODEL 2
REMARK VINA RESULT:    -8.010      1.752      2.183
REMARK INTER + INTRA:         -12.756
REMARK INTER:                 -11.083
REMARK INTRA:                  -1.673
REMARK UNBOUND:                -1.702
REMARK  Name = cpd189.pdb
REMARK  13 active torsions:
REMARK  status: ('A' for Active; 'I' for Inactive)
REMARK    1  A    between atoms: C_1  and  C_2
REMARK    2  A    between atoms: C_2  and  O_4
REMARK    3  A    between atoms: O_4  and  C_5
REMARK    4  A    between atoms: C_6  and  N_7
REMARK    5  A    between atoms: C_8  and  C_10
REMARK    6  A    between atoms: C_16  and  O_17
REMARK    7  A    between atoms: C_19  and  C_20
REMARK    8  A    between atoms: C_24  and  C_25
REMARK    9  A    between atoms: C_26  and  C_27
REMARK   10  A    between atoms: C_27  and  C_28
REMARK   11  A    between atoms: C_27  and  N_29
REMARK   12  A    between atoms: N_29  and  C_30
REMARK   13  A    between atoms: N_29  and  C_31
REMARK                            x       y       z     vdW  Elec       q    Type
REMARK                         _______ _______ _______ _____ _____    ______ ____
ROOT
ATOM      1  C   UNL     1      34.408 -36.207 -32.011  0.00  0.00    +0.127 C 
ATOM      2  C   UNL     1      35.505 -35.242 -31.519  0.00  0.00    +0.086 C 
ATOM      3  C   UNL     1      35.134 -34.660 -30.135  0.00  0.00    +0.077 C 
ATOM      4  C   UNL     1      33.618 -34.607 -29.873  0.00  0.00    -0.019 C 
ATOM      5  C   UNL     1      32.728 -34.361 -31.136  0.00  0.00    -0.020 C 
ATOM      6  C   UNL     1      33.065 -32.958 -31.691  0.00  0.00    -0.059 C 
ATOM      7  C   UNL     1      31.204 -34.457 -30.706  0.00  0.00    -0.032 C 
ATOM      8  C   UNL     1      30.680 -33.382 -29.732  0.00  0.00    -0.049 C 
ATOM      9  C   UNL     1      30.182 -32.098 -30.385  0.00  0.00    -0.047 C 
ATOM     10  C   UNL     1      29.156 -32.286 -31.515  0.00  0.00    -0.025 C 
ATOM     11  C   UNL     1      29.043 -30.933 -32.263  0.00  0.00    -0.059 C 
ATOM     12  C   UNL     1      27.748 -32.805 -31.064  0.00  0.00    -0.020 C 
ATOM     13  C   UNL     1      27.173 -33.461 -32.344  0.00  0.00    -0.048 C 
ATOM     14  C   UNL     1      28.338 -33.700 -33.301  0.00  0.00    -0.049 C 
ATOM     15  C   UNL     1      29.615 -33.394 -32.504  0.00  0.00    -0.032 C 
ATOM     16  C   UNL     1      30.178 -34.684 -31.845  0.00  0.00    -0.034 C 
ATOM     17  C   UNL     1      30.680 -35.667 -32.921  0.00  0.00    -0.049 C 
ATOM     18  C   UNL     1      31.931 -36.420 -32.505  0.00  0.00    -0.046 C 
ATOM     19  C   UNL     1      33.079 -35.433 -32.245  0.00  0.00    +0.004 C 
ENDROOT
BRANCH   2  20
ATOM     20  N   UNL     1      36.835 -35.868 -31.529  0.00  0.00    -0.302 N 
ATOM     21  C   UNL     1      37.998 -35.150 -31.689  0.00  0.00    +0.244 C 
ATOM     22  O   UNL     1      38.011 -33.924 -31.732  0.00  0.00    -0.270 OA
ATOM     23  H   UNL     1      36.896 -36.844 -31.416  0.00  0.00    +0.000 HD
BRANCH  21  24
ATOM     24  C   UNL     1      39.272 -35.919 -31.774  0.00  0.00    +0.037 A 
ATOM     25  C   UNL     1      40.111 -35.869 -32.896  0.00  0.00    -0.050 A 
ATOM     26  C   UNL     1      41.303 -36.598 -32.911  0.00  0.00    -0.061 A 
ATOM     27  C   UNL     1      41.665 -37.374 -31.809  0.00  0.00    -0.062 A 
ATOM     28  C   UNL     1      40.842 -37.419 -30.686  0.00  0.00    -0.061 A 
ATOM     29  C   UNL     1      39.651 -36.690 -30.666  0.00  0.00    -0.050 A 
ENDBRANCH  21  24
ENDBRANCH   2  20
BRANCH   3  30
ATOM     30  O   UNL     1      35.649 -33.332 -29.993  0.00  0.00    -0.390 OA
ATOM     31  H   UNL     1      36.475 -33.250 -30.495  0.00  0.00    +0.000 HD
ENDBRANCH   3  30
BRANCH  12  32
ATOM     32  C   UNL     1      26.739 -31.778 -30.448  0.00  0.00    +0.010 C 
ATOM     33  C   UNL     1      25.348 -31.903 -31.103  0.00  0.00    -0.049 C 
BRANCH  32  34
ATOM     34  N   UNL     1      26.695 -31.864 -28.975  0.00  0.00    -0.305 N 
ATOM     35  C   UNL     1      27.410 -30.799 -28.275  0.00  0.00    -0.013 C 
ATOM     36  C   UNL     1      27.117 -33.175 -28.478  0.00  0.00    -0.013 C 
ATOM     37  H   UNL     1      25.708 -31.731 -28.755  0.00  0.00    +0.000 HD
ENDBRANCH  32  34
ENDBRANCH  12  32
BRANCH   1  38
ATOM     38  O   UNL     1      34.167 -37.275 -31.059  0.00  0.00    -0.459 OA
BRANCH  38  40
ATOM     39  C   UNL     1      33.844 -39.419 -31.950  0.00  0.00    +0.033 C 
ATOM     40  C   UNL     1      34.785 -38.463 -31.286  0.00  0.00    +0.304 C 
ATOM     41  O   UNL     1      35.937 -38.731 -30.968  0.00  0.00    -0.251 OA
ENDBRANCH  38  40
ENDBRANCH   1  38
TORSDOF 7
ENDMDL
MODEL 3
REMARK VINA RESULT:    -7.841      0.938      1.253
REMARK INTER + INTRA:         -12.523
REMARK INTER:                 -10.921
REMARK INTRA:                  -1.602
REMARK UNBOUND:                -1.702
REMARK  Name = cpd189.pdb
REMARK  13 active torsions:
REMARK  status: ('A' for Active; 'I' for Inactive)
REMARK    1  A    between atoms: C_1  and  C_2
REMARK    2  A    between atoms: C_2  and  O_4
REMARK    3  A    between atoms: O_4  and  C_5
REMARK    4  A    between atoms: C_6  and  N_7
REMARK    5  A    between atoms: C_8  and  C_10
REMARK    6  A    between atoms: C_16  and  O_17
REMARK    7  A    between atoms: C_19  and  C_20
REMARK    8  A    between atoms: C_24  and  C_25
REMARK    9  A    between atoms: C_26  and  C_27
REMARK   10  A    between atoms: C_27  and  C_28
REMARK   11  A    between atoms: C_27  and  N_29
REMARK   12  A    between atoms: N_29  and  C_30
REMARK   13  A    between atoms: N_29  and  C_31
REMARK                            x       y       z     vdW  Elec       q    Type
REMARK                         _______ _______ _______ _____ _____    ______ ____
ROOT
ATOM      1  C   UNL     1      34.341 -35.961 -29.812  0.00  0.00    +0.127 C 
ATOM      2  C   UNL     1      35.484 -35.189 -30.501  0.00  0.00    +0.086 C 
ATOM      3  C   UNL     1      35.478 -33.707 -30.059  0.00  0.00    +0.077 C 
ATOM      4  C   UNL     1      34.091 -33.193 -29.634  0.00  0.00    -0.019 C 
ATOM      5  C   UNL     1      32.879 -33.834 -30.389  0.00  0.00    -0.020 C 
ATOM      6  C   UNL     1      32.986 -33.441 -31.881  0.00  0.00    -0.059 C 
ATOM      7  C   UNL     1      31.536 -33.285 -29.746  0.00  0.00    -0.032 C 
ATOM      8  C   UNL     1      31.248 -31.778 -29.901  0.00  0.00    -0.049 C 
ATOM      9  C   UNL     1      30.532 -31.379 -31.186  0.00  0.00    -0.047 C 
ATOM     10  C   UNL     1      29.246 -32.164 -31.496  0.00  0.00    -0.025 C 
ATOM     11  C   UNL     1      28.870 -31.866 -32.970  0.00  0.00    -0.059 C 
ATOM     12  C   UNL     1      28.040 -31.885 -30.535  0.00  0.00    -0.020 C 
ATOM     13  C   UNL     1      27.170 -33.159 -30.662  0.00  0.00    -0.048 C 
ATOM     14  C   UNL     1      28.039 -34.251 -31.282  0.00  0.00    -0.049 C 
ATOM     15  C   UNL     1      29.469 -33.692 -31.311  0.00  0.00    -0.032 C 
ATOM     16  C   UNL     1      30.250 -34.102 -30.032  0.00  0.00    -0.034 C 
ATOM     17  C   UNL     1      30.485 -35.624 -30.005  0.00  0.00    -0.049 C 
ATOM     18  C   UNL     1      31.835 -36.011 -29.429  0.00  0.00    -0.046 C 
ATOM     19  C   UNL     1      32.963 -35.410 -30.281  0.00  0.00    +0.004 C 
ENDROOT
BRANCH   2  20
ATOM     20  N   UNL     1      36.788 -35.834 -30.291  0.00  0.00    -0.302 N 
ATOM     21  C   UNL     1      37.840 -35.694 -31.168  0.00  0.00    +0.244 C 
ATOM     22  O   UNL     1      37.794 -34.937 -32.133  0.00  0.00    -0.270 OA
ATOM     23  H   UNL     1      36.915 -36.391 -29.489  0.00  0.00    +0.000 HD
BRANCH  21  24
ATOM     24  C   UNL     1      39.077 -36.477 -30.886  0.00  0.00    +0.037 A 
ATOM     25  C   UNL     1      39.249 -37.218 -29.709  0.00  0.00    -0.050 A 
ATOM     26  C   UNL     1      40.424 -37.948 -29.508  0.00  0.00    -0.061 A 
ATOM     27  C   UNL     1      41.427 -37.946 -30.478  0.00  0.00    -0.062 A 
ATOM     28  C   UNL     1      41.256 -37.220 -31.656  0.00  0.00    -0.061 A 
ATOM     29  C   UNL     1      40.083 -36.491 -31.861  0.00  0.00    -0.050 A 
ENDBRANCH  21  24
ENDBRANCH   2  20
BRANCH   3  30
ATOM     30  O   UNL     1      35.950 -32.865 -31.117  0.00  0.00    -0.390 OA
ATOM     31  H   UNL     1      36.644 -33.327 -31.613  0.00  0.00    +0.000 HD
ENDBRANCH   3  30
BRANCH  12  32
ATOM     32  C   UNL     1      27.191 -30.590 -30.764  0.00  0.00    +0.010 C 
ATOM     33  C   UNL     1      25.760 -30.936 -31.223  0.00  0.00    -0.049 C 
BRANCH  32  34
ATOM     34  N   UNL     1      27.222 -29.696 -29.589  0.00  0.00    -0.305 N 
ATOM     35  C   UNL     1      27.504 -28.294 -29.890  0.00  0.00    -0.013 C 
ATOM     36  C   UNL     1      28.117 -30.183 -28.539  0.00  0.00    -0.013 C 
ATOM     37  H   UNL     1      26.263 -29.722 -29.242  0.00  0.00    +0.000 HD
ENDBRANCH  32  34
ENDBRANCH  12  32
BRANCH   1  38
ATOM     38  O   UNL     1      34.419 -35.861 -28.368  0.00  0.00    -0.459 OA
BRANCH  38  40
ATOM     39  C   UNL     1      34.330 -36.997 -26.319  0.00  0.00    +0.033 C 
ATOM     40  C   UNL     1      34.916 -36.931 -27.695  0.00  0.00    +0.304 C 
ATOM     41  O   UNL     1      35.747 -37.716 -28.133  0.00  0.00    -0.251 OA
ENDBRANCH  38  40
ENDBRANCH   1  38
TORSDOF 7
ENDMDL
MODEL 4
REMARK VINA RESULT:    -7.447      1.842      2.657
REMARK INTER + INTRA:         -11.979
REMARK INTER:                 -10.236
REMARK INTRA:                  -1.744
REMARK UNBOUND:                -1.702
REMARK  Name = cpd189.pdb
REMARK  13 active torsions:
REMARK  status: ('A' for Active; 'I' for Inactive)
REMARK    1  A    between atoms: C_1  and  C_2
REMARK    2  A    between atoms: C_2  and  O_4
REMARK    3  A    between atoms: O_4  and  C_5
REMARK    4  A    between atoms: C_6  and  N_7
REMARK    5  A    between atoms: C_8  and  C_10
REMARK    6  A    between atoms: C_16  and  O_17
REMARK    7  A    between atoms: C_19  and  C_20
REMARK    8  A    between atoms: C_24  and  C_25
REMARK    9  A    between atoms: C_26  and  C_27
REMARK   10  A    between atoms: C_27  and  C_28
REMARK   11  A    between atoms: C_27  and  N_29
REMARK   12  A    between atoms: N_29  and  C_30
REMARK   13  A    between atoms: N_29  and  C_31
REMARK                            x       y       z     vdW  Elec       q    Type
REMARK                         _______ _______ _______ _____ _____    ______ ____
ROOT
ATOM      1  C   UNL     1      32.848 -35.315 -29.265  0.00  0.00    +0.127 C 
ATOM      2  C   UNL     1      34.131 -34.785 -29.935  0.00  0.00    +0.086 C 
ATOM      3  C   UNL     1      34.277 -33.264 -29.698  0.00  0.00    +0.077 C 
ATOM      4  C   UNL     1      32.936 -32.540 -29.482  0.00  0.00    -0.019 C 
ATOM      5  C   UNL     1      31.718 -33.141 -30.260  0.00  0.00    -0.020 C 
ATOM      6  C   UNL     1      31.994 -32.982 -31.774  0.00  0.00    -0.059 C 
ATOM      7  C   UNL     1      30.407 -32.356 -29.830  0.00  0.00    -0.032 C 
ATOM      8  C   UNL     1      30.326 -30.864 -30.212  0.00  0.00    -0.049 C 
ATOM      9  C   UNL     1      29.772 -30.576 -31.603  0.00  0.00    -0.047 C 
ATOM     10  C   UNL     1      28.426 -31.246 -31.930  0.00  0.00    -0.025 C 
ATOM     11  C   UNL     1      28.212 -31.123 -33.460  0.00  0.00    -0.059 C 
ATOM     12  C   UNL     1      27.192 -30.696 -31.137  0.00  0.00    -0.020 C 
ATOM     13  C   UNL     1      26.180 -31.868 -31.177  0.00  0.00    -0.048 C 
ATOM     14  C   UNL     1      26.952 -33.128 -31.558  0.00  0.00    -0.049 C 
ATOM     15  C   UNL     1      28.439 -32.746 -31.522  0.00  0.00    -0.032 C 
ATOM     16  C   UNL     1      29.056 -33.053 -30.129  0.00  0.00    -0.034 C 
ATOM     17  C   UNL     1      29.094 -34.573 -29.877  0.00  0.00    -0.049 C 
ATOM     18  C   UNL     1      30.333 -35.024 -29.125  0.00  0.00    -0.046 C 
ATOM     19  C   UNL     1      31.593 -34.684 -29.935  0.00  0.00    +0.004 C 
ENDROOT
BRANCH   2  20
ATOM     20  N   UNL     1      35.322 -35.537 -29.515  0.00  0.00    -0.302 N 
ATOM     21  C   UNL     1      36.414 -35.724 -30.332  0.00  0.00    +0.244 C 
ATOM     22  O   UNL     1      36.510 -35.189 -31.432  0.00  0.00    -0.270 OA
ATOM     23  H   UNL     1      35.340 -35.924 -28.610  0.00  0.00    +0.000 HD
BRANCH  21  24
ATOM     24  C   UNL     1      37.516 -36.586 -29.817  0.00  0.00    +0.037 A 
ATOM     25  C   UNL     1      38.771 -36.657 -30.436  0.00  0.00    -0.050 A 
ATOM     26  C   UNL     1      39.772 -37.470 -29.897  0.00  0.00    -0.061 A 
ATOM     27  C   UNL     1      39.528 -38.209 -28.738  0.00  0.00    -0.062 A 
ATOM     28  C   UNL     1      38.286 -38.133 -28.111  0.00  0.00    -0.061 A 
ATOM     29  C   UNL     1      37.284 -37.321 -28.646  0.00  0.00    -0.050 A 
ENDBRANCH  21  24
ENDBRANCH   2  20
BRANCH   3  30
ATOM     30  O   UNL     1      34.935 -32.643 -30.807  0.00  0.00    -0.390 OA
ATOM     31  H   UNL     1      35.452 -31.885 -30.493  0.00  0.00    +0.000 HD
ENDBRANCH   3  30
BRANCH  12  32
ATOM     32  C   UNL     1      26.534 -29.359 -31.618  0.00  0.00    +0.010 C 
ATOM     33  C   UNL     1      25.054 -29.570 -31.995  0.00  0.00    -0.049 C 
BRANCH  32  34
ATOM     34  N   UNL     1      26.734 -28.265 -30.647  0.00  0.00    -0.305 N 
ATOM     35  C   UNL     1      27.505 -27.129 -31.148  0.00  0.00    -0.013 C 
ATOM     36  C   UNL     1      27.288 -28.739 -29.378  0.00  0.00    -0.013 C 
ATOM     37  H   UNL     1      25.791 -27.914 -30.483  0.00  0.00    +0.000 HD
ENDBRANCH  32  34
ENDBRANCH  12  32
BRANCH   1  38
ATOM     38  O   UNL     1      32.820 -35.017 -27.846  0.00  0.00    -0.459 OA
BRANCH  38  40
ATOM     39  C   UNL     1      32.024 -35.986 -25.865  0.00  0.00    +0.033 C 
ATOM     40  C   UNL     1      33.012 -36.053 -26.988  0.00  0.00    +0.304 C 
ATOM     41  O   UNL     1      33.885 -36.904 -27.095  0.00  0.00    -0.251 OA
ENDBRANCH  38  40
ENDBRANCH   1  38
TORSDOF 7
ENDMDL
MODEL 5
REMARK VINA RESULT:    -7.344     18.886     20.802
REMARK INTER + INTRA:         -11.837
REMARK INTER:                 -10.255
REMARK INTRA:                  -1.582
REMARK UNBOUND:                -1.702
REMARK  Name = cpd189.pdb
REMARK  13 active torsions:
REMARK  status: ('A' for Active; 'I' for Inactive)
REMARK    1  A    between atoms: C_1  and  C_2
REMARK    2  A    between atoms: C_2  and  O_4
REMARK    3  A    between atoms: O_4  and  C_5
REMARK    4  A    between atoms: C_6  and  N_7
REMARK    5  A    between atoms: C_8  and  C_10
REMARK    6  A    between atoms: C_16  and  O_17
REMARK    7  A    between atoms: C_19  and  C_20
REMARK    8  A    between atoms: C_24  and  C_25
REMARK    9  A    between atoms: C_26  and  C_27
REMARK   10  A    between atoms: C_27  and  C_28
REMARK   11  A    between atoms: C_27  and  N_29
REMARK   12  A    between atoms: N_29  and  C_30
REMARK   13  A    between atoms: N_29  and  C_31
REMARK                            x       y       z     vdW  Elec       q    Type
REMARK                         _______ _______ _______ _____ _____    ______ ____
ROOT
ATOM      1  C   UNL     1      45.316 -18.734 -39.953  0.00  0.00    +0.127 C 
ATOM      2  C   UNL     1      45.787 -17.484 -39.184  0.00  0.00    +0.086 C 
ATOM      3  C   UNL     1      46.102 -17.841 -37.712  0.00  0.00    +0.077 C 
ATOM      4  C   UNL     1      45.310 -19.052 -37.186  0.00  0.00    -0.019 C 
ATOM      5  C   UNL     1      43.877 -19.228 -37.790  0.00  0.00    -0.020 C 
ATOM      6  C   UNL     1      43.027 -18.008 -37.365  0.00  0.00    -0.059 C 
ATOM      7  C   UNL     1      43.258 -20.580 -37.235  0.00  0.00    -0.032 C 
ATOM      8  C   UNL     1      42.978 -20.654 -35.720  0.00  0.00    -0.049 C 
ATOM      9  C   UNL     1      41.622 -20.115 -35.280  0.00  0.00    -0.047 C 
ATOM     10  C   UNL     1      40.409 -20.682 -36.037  0.00  0.00    -0.025 C 
ATOM     11  C   UNL     1      39.194 -19.780 -35.700  0.00  0.00    -0.059 C 
ATOM     12  C   UNL     1      40.090 -22.191 -35.761  0.00  0.00    -0.020 C 
ATOM     13  C   UNL     1      39.302 -22.634 -37.018  0.00  0.00    -0.048 C 
ATOM     14  C   UNL     1      39.553 -21.596 -38.108  0.00  0.00    -0.049 C 
ATOM     15  C   UNL     1      40.657 -20.672 -37.572  0.00  0.00    -0.032 C 
ATOM     16  C   UNL     1      42.060 -21.166 -38.023  0.00  0.00    -0.034 C 
ATOM     17  C   UNL     1      42.218 -21.026 -39.550  0.00  0.00    -0.049 C 
ATOM     18  C   UNL     1      43.617 -20.615 -39.972  0.00  0.00    -0.046 C 
ATOM     19  C   UNL     1      43.968 -19.247 -39.369  0.00  0.00    +0.004 C 
ENDROOT
BRANCH   2  20
ATOM     20  N   UNL     1      46.912 -16.816 -39.854  0.00  0.00    -0.302 N 
ATOM     21  C   UNL     1      47.140 -15.462 -39.761  0.00  0.00    +0.244 C 
ATOM     22  O   UNL     1      46.477 -14.734 -39.029  0.00  0.00    -0.270 OA
ATOM     23  H   UNL     1      47.530 -17.361 -40.393  0.00  0.00    +0.000 HD
BRANCH  21  24
ATOM     24  C   UNL     1      48.260 -14.898 -40.566  0.00  0.00    +0.037 A 
ATOM     25  C   UNL     1      49.241 -14.062 -40.015  0.00  0.00    -0.050 A 
ATOM     26  C   UNL     1      50.278 -13.578 -40.816  0.00  0.00    -0.061 A 
ATOM     27  C   UNL     1      50.346 -13.928 -42.165  0.00  0.00    -0.062 A 
ATOM     28  C   UNL     1      49.381 -14.768 -42.716  0.00  0.00    -0.061 A 
ATOM     29  C   UNL     1      48.343 -15.255 -41.919  0.00  0.00    -0.050 A 
ENDBRANCH  21  24
ENDBRANCH   2  20
BRANCH   3  30
ATOM     30  O   UNL     1      45.821 -16.730 -36.854  0.00  0.00    -0.390 OA
ATOM     31  H   UNL     1      46.626 -16.202 -36.735  0.00  0.00    +0.000 HD
ENDBRANCH   3  30
BRANCH  12  32
ATOM     32  C   UNL     1      39.323 -22.561 -34.448  0.00  0.00    +0.010 C 
ATOM     33  C   UNL     1      38.538 -23.878 -34.613  0.00  0.00    -0.049 C 
BRANCH  32  34
ATOM     34  N   UNL     1      40.215 -22.562 -33.270  0.00  0.00    -0.305 N 
ATOM     35  C   UNL     1      40.403 -23.868 -32.642  0.00  0.00    -0.013 C 
ATOM     36  C   UNL     1      39.824 -21.566 -32.272  0.00  0.00    -0.013 C 
ATOM     37  H   UNL     1      41.123 -22.302 -33.656  0.00  0.00    +0.000 HD
ENDBRANCH  32  34
ENDBRANCH  12  32
BRANCH   1  38
ATOM     38  O   UNL     1      46.292 -19.804 -39.887  0.00  0.00    -0.459 OA
BRANCH  38  40
ATOM     39  C   UNL     1      47.047 -21.539 -41.272  0.00  0.00    +0.033 C 
ATOM     40  C   UNL     1      47.008 -20.065 -41.013  0.00  0.00    +0.304 C 
ATOM     41  O   UNL     1      47.568 -19.224 -41.703  0.00  0.00    -0.251 OA
ENDBRANCH  38  40
ENDBRANCH   1  38
TORSDOF 7
ENDMDL
MODEL 6
REMARK VINA RESULT:    -7.082      2.080      3.746
REMARK INTER + INTRA:         -11.476
REMARK INTER:                  -9.815
REMARK INTRA:                  -1.661
REMARK UNBOUND:                -1.702
REMARK  Name = cpd189.pdb
REMARK  13 active torsions:
REMARK  status: ('A' for Active; 'I' for Inactive)
REMARK    1  A    between atoms: C_1  and  C_2
REMARK    2  A    between atoms: C_2  and  O_4
REMARK    3  A    between atoms: O_4  and  C_5
REMARK    4  A    between atoms: C_6  and  N_7
REMARK    5  A    between atoms: C_8  and  C_10
REMARK    6  A    between atoms: C_16  and  O_17
REMARK    7  A    between atoms: C_19  and  C_20
REMARK    8  A    between atoms: C_24  and  C_25
REMARK    9  A    between atoms: C_26  and  C_27
REMARK   10  A    between atoms: C_27  and  C_28
REMARK   11  A    between atoms: C_27  and  N_29
REMARK   12  A    between atoms: N_29  and  C_30
REMARK   13  A    between atoms: N_29  and  C_31
REMARK                            x       y       z     vdW  Elec       q    Type
REMARK                         _______ _______ _______ _____ _____    ______ ____
ROOT
ATOM      1  C   UNL     1      32.480 -34.578 -31.566  0.00  0.00    +0.127 C 
ATOM      2  C   UNL     1      33.654 -33.869 -30.862  0.00  0.00    +0.086 C 
ATOM      3  C   UNL     1      33.220 -33.355 -29.470  0.00  0.00    +0.077 C 
ATOM      4  C   UNL     1      31.714 -33.056 -29.363  0.00  0.00    -0.019 C 
ATOM      5  C   UNL     1      31.037 -32.546 -30.679  0.00  0.00    -0.020 C 
ATOM      6  C   UNL     1      31.668 -31.182 -31.041  0.00  0.00    -0.059 C 
ATOM      7  C   UNL     1      29.477 -32.407 -30.423  0.00  0.00    -0.032 C 
ATOM      8  C   UNL     1      29.025 -31.346 -29.400  0.00  0.00    -0.049 C 
ATOM      9  C   UNL     1      28.832 -29.941 -29.959  0.00  0.00    -0.047 C 
ATOM     10  C   UNL     1      27.934 -29.844 -31.204  0.00  0.00    -0.025 C 
ATOM     11  C   UNL     1      28.139 -28.432 -31.810  0.00  0.00    -0.059 C 
ATOM     12  C   UNL     1      26.414 -30.141 -30.961  0.00  0.00    -0.020 C 
ATOM     13  C   UNL     1      25.899 -30.570 -32.357  0.00  0.00    -0.048 C 
ATOM     14  C   UNL     1      27.115 -30.927 -33.207  0.00  0.00    -0.049 C 
ATOM     15  C   UNL     1      28.318 -30.925 -32.253  0.00  0.00    -0.032 C 
ATOM     16  C   UNL     1      28.574 -32.347 -31.681  0.00  0.00    -0.034 C 
ATOM     17  C   UNL     1      29.033 -33.305 -32.798  0.00  0.00    -0.049 C 
ATOM     18  C   UNL     1      30.081 -34.303 -32.338  0.00  0.00    -0.046 C 
ATOM     19  C   UNL     1      31.336 -33.562 -31.854  0.00  0.00    +0.004 C 
ENDROOT
BRANCH   2  20
ATOM     20  N   UNL     1      34.852 -34.719 -30.800  0.00  0.00    -0.302 N 
ATOM     21  C   UNL     1      36.128 -34.223 -30.939  0.00  0.00    +0.244 C 
ATOM     22  O   UNL     1      36.359 -33.021 -31.024  0.00  0.00    -0.270 OA
ATOM     23  H   UNL     1      34.736 -35.686 -30.653  0.00  0.00    +0.000 HD
BRANCH  21  24
ATOM     24  C   UNL     1      37.249 -35.206 -30.950  0.00  0.00    +0.037 A 
ATOM     25  C   UNL     1      38.299 -35.144 -31.877  0.00  0.00    -0.050 A 
ATOM     26  C   UNL     1      39.332 -36.084 -31.826  0.00  0.00    -0.061 A 
ATOM     27  C   UNL     1      39.326 -37.083 -30.852  0.00  0.00    -0.062 A 
ATOM     28  C   UNL     1      38.291 -37.142 -29.921  0.00  0.00    -0.061 A 
ATOM     29  C   UNL     1      37.258 -36.205 -29.967  0.00  0.00    -0.050 A 
ENDBRANCH  21  24
ENDBRANCH   2  20
BRANCH   3  30
ATOM     30  O   UNL     1      33.928 -32.157 -29.133  0.00  0.00    -0.390 OA
ATOM     31  H   UNL     1      33.514 -31.401 -29.576  0.00  0.00    +0.000 HD
ENDBRANCH   3  30
BRANCH  12  32
ATOM     32  C   UNL     1      25.523 -29.010 -30.348  0.00  0.00    +0.010 C 
ATOM     33  C   UNL     1      24.306 -28.710 -31.246  0.00  0.00    -0.049 C 
BRANCH  32  34
ATOM     34  N   UNL     1      25.153 -29.299 -28.947  0.00  0.00    -0.305 N 
ATOM     35  C   UNL     1      25.399 -30.673 -28.516  0.00  0.00    -0.013 C 
ATOM     36  C   UNL     1      23.778 -28.905 -28.640  0.00  0.00    -0.013 C 
ATOM     37  H   UNL     1      25.791 -28.715 -28.405  0.00  0.00    +0.000 HD
ENDBRANCH  32  34
ENDBRANCH  12  32
BRANCH   1  38
ATOM     38  O   UNL     1      31.950 -35.664 -30.766  0.00  0.00    -0.459 OA
BRANCH  38  40
ATOM     39  C   UNL     1      31.037 -37.758 -31.292  0.00  0.00    +0.033 C 
ATOM     40  C   UNL     1      32.274 -36.930 -31.140  0.00  0.00    +0.304 C 
ATOM     41  O   UNL     1      33.413 -37.347 -31.302  0.00  0.00    -0.251 OA
ENDBRANCH  38  40
ENDBRANCH   1  38
TORSDOF 7
ENDMDL
MODEL 7
REMARK VINA RESULT:    -6.740     16.419     18.254
REMARK INTER + INTRA:         -11.003
REMARK INTER:                  -9.416
REMARK INTRA:                  -1.588
REMARK UNBOUND:                -1.702
REMARK  Name = cpd189.pdb
REMARK  13 active torsions:
REMARK  status: ('A' for Active; 'I' for Inactive)
REMARK    1  A    between atoms: C_1  and  C_2
REMARK    2  A    between atoms: C_2  and  O_4
REMARK    3  A    between atoms: O_4  and  C_5
REMARK    4  A    between atoms: C_6  and  N_7
REMARK    5  A    between atoms: C_8  and  C_10
REMARK    6  A    between atoms: C_16  and  O_17
REMARK    7  A    between atoms: C_19  and  C_20
REMARK    8  A    between atoms: C_24  and  C_25
REMARK    9  A    between atoms: C_26  and  C_27
REMARK   10  A    between atoms: C_27  and  C_28
REMARK   11  A    between atoms: C_27  and  N_29
REMARK   12  A    between atoms: N_29  and  C_30
REMARK   13  A    between atoms: N_29  and  C_31
REMARK                            x       y       z     vdW  Elec       q    Type
REMARK                         _______ _______ _______ _____ _____    ______ ____
ROOT
ATOM      1  C   UNL     1      43.455 -20.524 -36.775  0.00  0.00    +0.127 C 
ATOM      2  C   UNL     1      43.434 -20.131 -38.266  0.00  0.00    +0.086 C 
ATOM      3  C   UNL     1      43.080 -18.634 -38.425  0.00  0.00    +0.077 C 
ATOM      4  C   UNL     1      42.229 -18.073 -37.271  0.00  0.00    -0.019 C 
ATOM      5  C   UNL     1      41.239 -19.090 -36.614  0.00  0.00    -0.020 C 
ATOM      6  C   UNL     1      40.199 -19.502 -37.682  0.00  0.00    -0.059 C 
ATOM      7  C   UNL     1      40.540 -18.386 -35.375  0.00  0.00    -0.032 C 
ATOM      8  C   UNL     1      39.614 -17.190 -35.679  0.00  0.00    -0.049 C 
ATOM      9  C   UNL     1      38.169 -17.549 -36.004  0.00  0.00    -0.047 C 
ATOM     10  C   UNL     1      37.472 -18.470 -34.987  0.00  0.00    -0.025 C 
ATOM     11  C   UNL     1      36.172 -18.987 -35.653  0.00  0.00    -0.059 C 
ATOM     12  C   UNL     1      37.178 -17.825 -33.590  0.00  0.00    -0.020 C 
ATOM     13  C   UNL     1      37.075 -19.044 -32.640  0.00  0.00    -0.048 C 
ATOM     14  C   UNL     1      37.711 -20.236 -33.351  0.00  0.00    -0.049 C 
ATOM     15  C   UNL     1      38.383 -19.672 -34.612  0.00  0.00    -0.032 C 
ATOM     16  C   UNL     1      39.872 -19.321 -34.336  0.00  0.00    -0.034 C 
ATOM     17  C   UNL     1      40.688 -20.598 -34.063  0.00  0.00    -0.049 C 
ATOM     18  C   UNL     1      42.092 -20.545 -34.638  0.00  0.00    -0.046 C 
ATOM     19  C   UNL     1      42.031 -20.383 -36.164  0.00  0.00    +0.004 C 
ENDROOT
BRANCH   2  20
ATOM     20  N   UNL     1      44.687 -20.488 -38.947  0.00  0.00    -0.302 N 
ATOM     21  C   UNL     1      44.727 -20.961 -40.239  0.00  0.00    +0.244 C 
ATOM     22  O   UNL     1      43.725 -21.022 -40.946  0.00  0.00    -0.270 OA
ATOM     23  H   UNL     1      45.535 -20.384 -38.458  0.00  0.00    +0.000 HD
BRANCH  21  24
ATOM     24  C   UNL     1      46.053 -21.375 -40.777  0.00  0.00    +0.037 A 
ATOM     25  C   UNL     1      46.957 -20.465 -41.342  0.00  0.00    -0.050 A 
ATOM     26  C   UNL     1      48.194 -20.910 -41.814  0.00  0.00    -0.061 A 
ATOM     27  C   UNL     1      48.538 -22.259 -41.721  0.00  0.00    -0.062 A 
ATOM     28  C   UNL     1      47.649 -23.167 -41.150  0.00  0.00    -0.061 A 
ATOM     29  C   UNL     1      46.412 -22.727 -40.676  0.00  0.00    -0.050 A 
ENDBRANCH  21  24
ENDBRANCH   2  20
BRANCH   3  30
ATOM     30  O   UNL     1      42.360 -18.415 -39.644  0.00  0.00    -0.390 OA
ATOM     31  H   UNL     1      41.779 -19.171 -39.817  0.00  0.00    +0.000 HD
ENDBRANCH   3  30
BRANCH  12  32
ATOM     32  C   UNL     1      35.932 -16.888 -33.450  0.00  0.00    +0.010 C 
ATOM     33  C   UNL     1      34.861 -17.516 -32.536  0.00  0.00    -0.049 C 
BRANCH  32  34
ATOM     34  N   UNL     1      36.314 -15.521 -33.041  0.00  0.00    -0.305 N 
ATOM     35  C   UNL     1      37.751 -15.259 -33.034  0.00  0.00    -0.013 C 
ATOM     36  C   UNL     1      35.717 -15.133 -31.764  0.00  0.00    -0.013 C 
ATOM     37  H   UNL     1      35.925 -14.932 -33.778  0.00  0.00    +0.000 HD
ENDBRANCH  32  34
ENDBRANCH  12  32
BRANCH   1  38
ATOM     38  O   UNL     1      44.375 -19.699 -36.015  0.00  0.00    -0.459 OA
BRANCH  38  40
ATOM     39  C   UNL     1      45.613 -20.635 -34.257  0.00  0.00    +0.033 C 
ATOM     40  C   UNL     1      45.582 -20.238 -35.701  0.00  0.00    +0.304 C 
ATOM     41  O   UNL     1      46.523 -20.358 -36.474  0.00  0.00    -0.251 OA
ENDBRANCH  38  40
ENDBRANCH   1  38
TORSDOF 7
ENDMDL
MODEL 8
REMARK VINA RESULT:    -6.724      4.205      6.615
REMARK INTER + INTRA:         -10.982
REMARK INTER:                  -9.385
REMARK INTRA:                  -1.597
REMARK UNBOUND:                -1.702
REMARK  Name = cpd189.pdb
REMARK  13 active torsions:
REMARK  status: ('A' for Active; 'I' for Inactive)
REMARK    1  A    between atoms: C_1  and  C_2
REMARK    2  A    between atoms: C_2  and  O_4
REMARK    3  A    between atoms: O_4  and  C_5
REMARK    4  A    between atoms: C_6  and  N_7
REMARK    5  A    between atoms: C_8  and  C_10
REMARK    6  A    between atoms: C_16  and  O_17
REMARK    7  A    between atoms: C_19  and  C_20
REMARK    8  A    between atoms: C_24  and  C_25
REMARK    9  A    between atoms: C_26  and  C_27
REMARK   10  A    between atoms: C_27  and  C_28
REMARK   11  A    between atoms: C_27  and  N_29
REMARK   12  A    between atoms: N_29  and  C_30
REMARK   13  A    between atoms: N_29  and  C_31
REMARK                            x       y       z     vdW  Elec       q    Type
REMARK                         _______ _______ _______ _____ _____    ______ ____
ROOT
ATOM      1  C   UNL     1      35.258 -36.559 -28.703  0.00  0.00    +0.127 C 
ATOM      2  C   UNL     1      36.034 -37.790 -29.214  0.00  0.00    +0.086 C 
ATOM      3  C   UNL     1      35.071 -38.796 -29.886  0.00  0.00    +0.077 C 
ATOM      4  C   UNL     1      33.629 -38.723 -29.352  0.00  0.00    -0.019 C 
ATOM      5  C   UNL     1      33.492 -38.331 -27.843  0.00  0.00    -0.020 C 
ATOM      6  C   UNL     1      34.150 -39.447 -27.000  0.00  0.00    -0.059 C 
ATOM      7  C   UNL     1      31.950 -38.184 -27.498  0.00  0.00    -0.032 C 
ATOM      8  C   UNL     1      31.089 -39.461 -27.575  0.00  0.00    -0.049 C 
ATOM      9  C   UNL     1      31.062 -40.308 -26.308  0.00  0.00    -0.047 C 
ATOM     10  C   UNL     1      30.713 -39.552 -25.015  0.00  0.00    -0.025 C 
ATOM     11  C   UNL     1      31.072 -40.481 -23.828  0.00  0.00    -0.059 C 
ATOM     12  C   UNL     1      29.234 -39.045 -24.912  0.00  0.00    -0.020 C 
ATOM     13  C   UNL     1      29.319 -37.871 -23.906  0.00  0.00    -0.048 C 
ATOM     14  C   UNL     1      30.785 -37.457 -23.805  0.00  0.00    -0.049 C 
ATOM     15  C   UNL     1      31.523 -38.229 -24.908  0.00  0.00    -0.032 C 
ATOM     16  C   UNL     1      31.604 -37.389 -26.214  0.00  0.00    -0.034 C 
ATOM     17  C   UNL     1      32.502 -36.155 -26.009  0.00  0.00    -0.049 C 
ATOM     18  C   UNL     1      33.335 -35.811 -27.231  0.00  0.00    -0.046 C 
ATOM     19  C   UNL     1      34.269 -36.980 -27.577  0.00  0.00    +0.004 C 
ENDROOT
BRANCH   2  20
ATOM     20  N   UNL     1      37.152 -37.411 -30.090  0.00  0.00    -0.302 N 
ATOM     21  C   UNL     1      38.468 -37.482 -29.695  0.00  0.00    +0.244 C 
ATOM     22  O   UNL     1      38.804 -37.964 -28.618  0.00  0.00    -0.270 OA
ATOM     23  H   UNL     1      36.950 -37.091 -30.999  0.00  0.00    +0.000 HD
BRANCH  21  24
ATOM     24  C   UNL     1      39.499 -36.978 -30.647  0.00  0.00    +0.037 A 
ATOM     25  C   UNL     1      40.840 -37.380 -30.591  0.00  0.00    -0.050 A 
ATOM     26  C   UNL     1      41.757 -36.887 -31.522  0.00  0.00    -0.061 A 
ATOM     27  C   UNL     1      41.342 -35.997 -32.514  0.00  0.00    -0.062 A 
ATOM     28  C   UNL     1      40.007 -35.603 -32.582  0.00  0.00    -0.061 A 
ATOM     29  C   UNL     1      39.087 -36.095 -31.655  0.00  0.00    -0.050 A 
ENDBRANCH  21  24
ENDBRANCH   2  20
BRANCH   3  30
ATOM     30  O   UNL     1      35.537 -40.138 -29.702  0.00  0.00    -0.390 OA
ATOM     31  H   UNL     1      36.388 -40.123 -29.238  0.00  0.00    +0.000 HD
ENDBRANCH   3  30
BRANCH  12  32
ATOM     32  C   UNL     1      28.124 -40.068 -24.500  0.00  0.00    +0.010 C 
ATOM     33  C   UNL     1      27.258 -39.519 -23.348  0.00  0.00    -0.049 C 
BRANCH  32  34
ATOM     34  N   UNL     1      27.327 -40.515 -25.661  0.00  0.00    -0.305 N 
ATOM     35  C   UNL     1      27.647 -41.855 -26.149  0.00  0.00    -0.013 C 
ATOM     36  C   UNL     1      27.353 -39.551 -26.761  0.00  0.00    -0.013 C 
ATOM     37  H   UNL     1      26.377 -40.569 -25.294  0.00  0.00    +0.000 HD
ENDBRANCH  32  34
ENDBRANCH  12  32
BRANCH   1  38
ATOM     38  O   UNL     1      34.510 -35.916 -29.766  0.00  0.00    -0.459 OA
BRANCH  38  40
ATOM     39  C   UNL     1      34.576 -33.573 -29.742  0.00  0.00    +0.033 C 
ATOM     40  C   UNL     1      35.080 -34.838 -30.364  0.00  0.00    +0.304 C 
ATOM     41  O   UNL     1      35.870 -34.885 -31.298  0.00  0.00    -0.251 OA
ENDBRANCH  38  40
ENDBRANCH   1  38
TORSDOF 7
ENDMDL
MODEL 9
REMARK VINA RESULT:    -6.688     26.181     30.632
REMARK INTER + INTRA:         -10.932
REMARK INTER:                  -9.347
REMARK INTRA:                  -1.585
REMARK UNBOUND:                -1.702
REMARK  Name = cpd189.pdb
REMARK  13 active torsions:
REMARK  status: ('A' for Active; 'I' for Inactive)
REMARK    1  A    between atoms: C_1  and  C_2
REMARK    2  A    between atoms: C_2  and  O_4
REMARK    3  A    between atoms: O_4  and  C_5
REMARK    4  A    between atoms: C_6  and  N_7
REMARK    5  A    between atoms: C_8  and  C_10
REMARK    6  A    between atoms: C_16  and  O_17
REMARK    7  A    between atoms: C_19  and  C_20
REMARK    8  A    between atoms: C_24  and  C_25
REMARK    9  A    between atoms: C_26  and  C_27
REMARK   10  A    between atoms: C_27  and  C_28
REMARK   11  A    between atoms: C_27  and  N_29
REMARK   12  A    between atoms: N_29  and  C_30
REMARK   13  A    between atoms: N_29  and  C_31
REMARK                            x       y       z     vdW  Elec       q    Type
REMARK                         _______ _______ _______ _____ _____    ______ ____
ROOT
ATOM      1  C   UNL     1      51.914 -31.456 -56.677  0.00  0.00    +0.127 C 
ATOM      2  C   UNL     1      52.698 -31.346 -55.354  0.00  0.00    +0.086 C 
ATOM      3  C   UNL     1      52.750 -32.717 -54.641  0.00  0.00    +0.077 C 
ATOM      4  C   UNL     1      51.565 -33.638 -54.982  0.00  0.00    -0.019 C 
ATOM      5  C   UNL     1      50.211 -32.908 -55.268  0.00  0.00    -0.020 C 
ATOM      6  C   UNL     1      49.771 -32.193 -53.969  0.00  0.00    -0.059 C 
ATOM      7  C   UNL     1      49.140 -33.990 -55.718  0.00  0.00    -0.032 C 
ATOM      8  C   UNL     1      48.721 -35.041 -54.671  0.00  0.00    -0.049 C 
ATOM      9  C   UNL     1      47.582 -34.625 -53.747  0.00  0.00    -0.047 C 
ATOM     10  C   UNL     1      46.320 -34.097 -54.452  0.00  0.00    -0.025 C 
ATOM     11  C   UNL     1      45.441 -33.417 -53.371  0.00  0.00    -0.059 C 
ATOM     12  C   UNL     1      45.505 -35.164 -55.258  0.00  0.00    -0.020 C 
ATOM     13  C   UNL     1      44.727 -34.320 -56.298  0.00  0.00    -0.048 C 
ATOM     14  C   UNL     1      45.396 -32.950 -56.372  0.00  0.00    -0.049 C 
ATOM     15  C   UNL     1      46.690 -33.063 -55.552  0.00  0.00    -0.032 C 
ATOM     16  C   UNL     1      47.889 -33.455 -56.460  0.00  0.00    -0.034 C 
ATOM     17  C   UNL     1      48.215 -32.318 -57.447  0.00  0.00    -0.049 C 
ATOM     18  C   UNL     1      49.703 -32.154 -57.702  0.00  0.00    -0.046 C 
ATOM     19  C   UNL     1      50.427 -31.815 -56.390  0.00  0.00    +0.004 C 
ENDROOT
BRANCH   2  20
ATOM     20  N   UNL     1      54.032 -30.763 -55.551  0.00  0.00    -0.302 N 
ATOM     21  C   UNL     1      54.685 -30.043 -54.577  0.00  0.00    +0.244 C 
ATOM     22  O   UNL     1      54.240 -29.924 -53.440  0.00  0.00    -0.270 OA
ATOM     23  H   UNL     1      54.479 -30.893 -56.419  0.00  0.00    +0.000 HD
BRANCH  21  24
ATOM     24  C   UNL     1      55.993 -29.426 -54.940  0.00  0.00    +0.037 A 
ATOM     25  C   UNL     1      56.135 -28.532 -56.009  0.00  0.00    -0.050 A 
ATOM     26  C   UNL     1      57.384 -27.972 -56.291  0.00  0.00    -0.061 A 
ATOM     27  C   UNL     1      58.492 -28.295 -55.507  0.00  0.00    -0.062 A 
ATOM     28  C   UNL     1      58.354 -29.175 -54.434  0.00  0.00    -0.061 A 
ATOM     29  C   UNL     1      57.108 -29.735 -54.149  0.00  0.00    -0.050 A 
ENDBRANCH  21  24
ENDBRANCH   2  20
BRANCH   3  30
ATOM     30  O   UNL     1      52.774 -32.545 -53.219  0.00  0.00    -0.390 OA
ATOM     31  H   UNL     1      51.924 -32.825 -52.845  0.00  0.00    +0.000 HD
ENDBRANCH   3  30
BRANCH  12  32
ATOM     32  C   UNL     1      44.549 -36.121 -54.471  0.00  0.00    +0.010 C 
ATOM     33  C   UNL     1      43.234 -36.355 -55.243  0.00  0.00    -0.049 C 
BRANCH  32  34
ATOM     34  N   UNL     1      45.223 -37.376 -54.081  0.00  0.00    -0.305 N 
ATOM     35  C   UNL     1      44.745 -38.572 -54.771  0.00  0.00    -0.013 C 
ATOM     36  C   UNL     1      45.219 -37.585 -52.633  0.00  0.00    -0.013 C 
ATOM     37  H   UNL     1      46.185 -37.238 -54.391  0.00  0.00    +0.000 HD
ENDBRANCH  32  34
ENDBRANCH  12  32
BRANCH   1  38
ATOM     38  O   UNL     1      52.478 -32.464 -57.553  0.00  0.00    -0.459 OA
BRANCH  38  40
ATOM     39  C   UNL     1      52.711 -32.709 -59.873  0.00  0.00    +0.033 C 
ATOM     40  C   UNL     1      53.187 -32.029 -58.628  0.00  0.00    +0.304 C 
ATOM     41  O   UNL     1      54.104 -31.219 -58.586  0.00  0.00    -0.251 OA
ENDBRANCH  38  40
ENDBRANCH   1  38
TORSDOF 7
ENDMDL
MODEL 10
REMARK VINA RESULT:    -6.649     20.718     23.454
REMARK INTER + INTRA:         -10.878
REMARK INTER:                  -9.435
REMARK INTRA:                  -1.443
REMARK UNBOUND:                -1.702
REMARK  Name = cpd189.pdb
REMARK  13 active torsions:
REMARK  status: ('A' for Active; 'I' for Inactive)
REMARK    1  A    between atoms: C_1  and  C_2
REMARK    2  A    between atoms: C_2  and  O_4
REMARK    3  A    between atoms: O_4  and  C_5
REMARK    4  A    between atoms: C_6  and  N_7
REMARK    5  A    between atoms: C_8  and  C_10
REMARK    6  A    between atoms: C_16  and  O_17
REMARK    7  A    between atoms: C_19  and  C_20
REMARK    8  A    between atoms: C_24  and  C_25
REMARK    9  A    between atoms: C_26  and  C_27
REMARK   10  A    between atoms: C_27  and  C_28
REMARK   11  A    between atoms: C_27  and  N_29
REMARK   12  A    between atoms: N_29  and  C_30
REMARK   13  A    between atoms: N_29  and  C_31
REMARK                            x       y       z     vdW  Elec       q    Type
REMARK                         _______ _______ _______ _____ _____    ______ ____
ROOT
ATOM      1  C   UNL     1      44.881 -18.639 -36.312  0.00  0.00    +0.127 C 
ATOM      2  C   UNL     1      43.649 -19.087 -37.123  0.00  0.00    +0.086 C 
ATOM      3  C   UNL     1      44.074 -19.579 -38.526  0.00  0.00    +0.077 C 
ATOM      4  C   UNL     1      45.381 -18.943 -39.035  0.00  0.00    -0.019 C 
ATOM      5  C   UNL     1      45.640 -17.474 -38.562  0.00  0.00    -0.020 C 
ATOM      6  C   UNL     1      44.528 -16.579 -39.158  0.00  0.00    -0.059 C 
ATOM      7  C   UNL     1      47.073 -17.025 -39.073  0.00  0.00    -0.032 C 
ATOM      8  C   UNL     1      47.271 -16.909 -40.598  0.00  0.00    -0.049 C 
ATOM      9  C   UNL     1      46.881 -15.567 -41.207  0.00  0.00    -0.047 C 
ATOM     10  C   UNL     1      47.499 -14.331 -40.531  0.00  0.00    -0.025 C 
ATOM     11  C   UNL     1      46.730 -13.090 -41.052  0.00  0.00    -0.059 C 
ATOM     12  C   UNL     1      49.045 -14.163 -40.724  0.00  0.00    -0.020 C 
ATOM     13  C   UNL     1      49.470 -13.287 -39.521  0.00  0.00    -0.048 C 
ATOM     14  C   UNL     1      48.344 -13.342 -38.491  0.00  0.00    -0.049 C 
ATOM     15  C   UNL     1      47.367 -14.418 -38.985  0.00  0.00    -0.032 C 
ATOM     16  C   UNL     1      47.707 -15.802 -38.363  0.00  0.00    -0.034 C 
ATOM     17  C   UNL     1      47.454 -15.790 -36.844  0.00  0.00    -0.049 C 
ATOM     18  C   UNL     1      46.897 -17.101 -36.319  0.00  0.00    -0.046 C 
ATOM     19  C   UNL     1      45.546 -17.403 -36.985  0.00  0.00    +0.004 C 
ENDROOT
BRANCH   2  20
ATOM     20  N   UNL     1      42.844 -20.080 -36.398  0.00  0.00    -0.302 N 
ATOM     21  C   UNL     1      41.476 -20.166 -36.521  0.00  0.00    +0.244 C 
ATOM     22  O   UNL     1      40.844 -19.485 -37.322  0.00  0.00    -0.270 OA
ATOM     23  H   UNL     1      43.303 -20.711 -35.799  0.00  0.00    +0.000 HD
BRANCH  21  24
ATOM     24  C   UNL     1      40.771 -21.157 -35.658  0.00  0.00    +0.037 A 
ATOM     25  C   UNL     1      39.911 -22.134 -36.177  0.00  0.00    -0.050 A 
ATOM     26  C   UNL     1      39.292 -23.048 -35.320  0.00  0.00    -0.061 A 
ATOM     27  C   UNL     1      39.531 -22.995 -33.946  0.00  0.00    -0.062 A 
ATOM     28  C   UNL     1      40.394 -22.033 -33.425  0.00  0.00    -0.061 A 
ATOM     29  C   UNL     1      41.015 -21.119 -34.278  0.00  0.00    -0.050 A 
ENDBRANCH  21  24
ENDBRANCH   2  20
BRANCH   3  30
ATOM     30  O   UNL     1      43.050 -19.301 -39.488  0.00  0.00    -0.390 OA
ATOM     31  H   UNL     1      43.404 -18.719 -40.178  0.00  0.00    +0.000 HD
ENDBRANCH   3  30
BRANCH  12  32
ATOM     32  C   UNL     1      49.565 -13.567 -42.075  0.00  0.00    +0.010 C 
ATOM     33  C   UNL     1      50.350 -12.260 -41.842  0.00  0.00    -0.049 C 
BRANCH  32  34
ATOM     34  N   UNL     1      50.320 -14.563 -42.862  0.00  0.00    -0.305 N 
ATOM     35  C   UNL     1      51.582 -14.079 -43.419  0.00  0.00    -0.013 C 
ATOM     36  C   UNL     1      49.505 -15.185 -43.906  0.00  0.00    -0.013 C 
ATOM     37  H   UNL     1      50.571 -15.273 -42.174  0.00  0.00    +0.000 HD
ENDBRANCH  32  34
ENDBRANCH  12  32
BRANCH   1  38
ATOM     38  O   UNL     1      45.866 -19.698 -36.203  0.00  0.00    -0.459 OA
BRANCH  38  40
ATOM     39  C   UNL     1      47.639 -20.244 -34.769  0.00  0.00    +0.033 C 
ATOM     40  C   UNL     1      46.156 -20.153 -34.956  0.00  0.00    +0.304 C 
ATOM     41  O   UNL     1      45.329 -20.473 -34.112  0.00  0.00    -0.251 OA
ENDBRANCH  38  40
ENDBRANCH   1  38
TORSDOF 7
ENDMDL
MODEL 11
REMARK VINA RESULT:    -6.643      2.853      3.867
REMARK INTER + INTRA:         -10.869
REMARK INTER:                  -9.357
REMARK INTRA:                  -1.512
REMARK UNBOUND:                -1.702
REMARK  Name = cpd189.pdb
REMARK  13 active torsions:
REMARK  status: ('A' for Active; 'I' for Inactive)
REMARK    1  A    between atoms: C_1  and  C_2
REMARK    2  A    between atoms: C_2  and  O_4
REMARK    3  A    between atoms: O_4  and  C_5
REMARK    4  A    between atoms: C_6  and  N_7
REMARK    5  A    between atoms: C_8  and  C_10
REMARK    6  A    between atoms: C_16  and  O_17
REMARK    7  A    between atoms: C_19  and  C_20
REMARK    8  A    between atoms: C_24  and  C_25
REMARK    9  A    between atoms: C_26  and  C_27
REMARK   10  A    between atoms: C_27  and  C_28
REMARK   11  A    between atoms: C_27  and  N_29
REMARK   12  A    between atoms: N_29  and  C_30
REMARK   13  A    between atoms: N_29  and  C_31
REMARK                            x       y       z     vdW  Elec       q    Type
REMARK                         _______ _______ _______ _____ _____    ______ ____
ROOT
ATOM      1  C   UNL     1      35.037 -38.298 -30.009  0.00  0.00    +0.127 C 
ATOM      2  C   UNL     1      35.729 -36.937 -30.227  0.00  0.00    +0.086 C 
ATOM      3  C   UNL     1      35.434 -35.985 -29.045  0.00  0.00    +0.077 C 
ATOM      4  C   UNL     1      34.106 -36.283 -28.326  0.00  0.00    -0.019 C 
ATOM      5  C   UNL     1      32.964 -36.848 -29.235  0.00  0.00    -0.020 C 
ATOM      6  C   UNL     1      32.597 -35.759 -30.269  0.00  0.00    -0.059 C 
ATOM      7  C   UNL     1      31.721 -37.211 -28.318  0.00  0.00    -0.032 C 
ATOM      8  C   UNL     1      31.012 -36.044 -27.602  0.00  0.00    -0.049 C 
ATOM      9  C   UNL     1      29.926 -35.346 -28.412  0.00  0.00    -0.047 C 
ATOM     10  C   UNL     1      28.861 -36.271 -29.026  0.00  0.00    -0.025 C 
ATOM     11  C   UNL     1      28.073 -35.438 -30.068  0.00  0.00    -0.059 C 
ATOM     12  C   UNL     1      27.895 -36.957 -27.999  0.00  0.00    -0.020 C 
ATOM     13  C   UNL     1      27.394 -38.213 -28.753  0.00  0.00    -0.048 C 
ATOM     14  C   UNL     1      28.346 -38.460 -29.920  0.00  0.00    -0.049 C 
ATOM     15  C   UNL     1      29.523 -37.493 -29.723  0.00  0.00    -0.032 C 
ATOM     16  C   UNL     1      30.671 -38.174 -28.928  0.00  0.00    -0.034 C 
ATOM     17  C   UNL     1      31.304 -39.309 -29.755  0.00  0.00    -0.049 C 
ATOM     18  C   UNL     1      32.807 -39.420 -29.568  0.00  0.00    -0.046 C 
ATOM     19  C   UNL     1      33.491 -38.119 -30.015  0.00  0.00    +0.004 C 
ENDROOT
BRANCH   2  20
ATOM     20  N   UNL     1      37.168 -37.087 -30.484  0.00  0.00    -0.302 N 
ATOM     21  C   UNL     1      37.896 -36.175 -31.215  0.00  0.00    +0.244 C 
ATOM     22  O   UNL     1      37.412 -35.121 -31.617  0.00  0.00    -0.270 OA
ATOM     23  H   UNL     1      37.633 -37.874 -30.117  0.00  0.00    +0.000 HD
BRANCH  21  24
ATOM     24  C   UNL     1      39.327 -36.495 -31.481  0.00  0.00    +0.037 A 
ATOM     25  C   UNL     1      40.007 -36.029 -32.614  0.00  0.00    -0.050 A 
ATOM     26  C   UNL     1      41.355 -36.347 -32.800  0.00  0.00    -0.061 A 
ATOM     27  C   UNL     1      42.030 -37.124 -31.859  0.00  0.00    -0.062 A 
ATOM     28  C   UNL     1      41.363 -37.580 -30.724  0.00  0.00    -0.061 A 
ATOM     29  C   UNL     1      40.017 -37.263 -30.533  0.00  0.00    -0.050 A 
ENDBRANCH  21  24
ENDBRANCH   2  20
BRANCH   3  30
ATOM     30  O   UNL     1      35.392 -34.625 -29.492  0.00  0.00    -0.390 OA
ATOM     31  H   UNL     1      35.380 -34.605 -30.462  0.00  0.00    +0.000 HD
ENDBRANCH   3  30
BRANCH  12  32
ATOM     32  C   UNL     1      26.702 -36.120 -27.428  0.00  0.00    +0.010 C 
ATOM     33  C   UNL     1      25.346 -36.746 -27.817  0.00  0.00    -0.049 C 
BRANCH  32  34
ATOM     34  N   UNL     1      26.836 -35.887 -25.976  0.00  0.00    -0.305 N 
ATOM     35  C   UNL     1      27.692 -36.843 -25.276  0.00  0.00    -0.013 C 
ATOM     36  C   UNL     1      25.541 -35.774 -25.306  0.00  0.00    -0.013 C 
ATOM     37  H   UNL     1      27.315 -34.988 -25.921  0.00  0.00    +0.000 HD
ENDBRANCH  32  34
ENDBRANCH  12  32
BRANCH   1  38
ATOM     38  O   UNL     1      35.433 -38.907 -28.754  0.00  0.00    -0.459 OA
BRANCH  38  40
ATOM     39  C   UNL     1      36.223 -40.982 -29.508  0.00  0.00    +0.033 C 
ATOM     40  C   UNL     1      36.526 -39.714 -28.771  0.00  0.00    +0.304 C 
ATOM     41  O   UNL     1      37.598 -39.461 -28.237  0.00  0.00    -0.251 OA
ENDBRANCH  38  40
ENDBRANCH   1  38
TORSDOF 7
ENDMDL
MODEL 12
REMARK VINA RESULT:    -6.639     16.626     20.456
REMARK INTER + INTRA:         -10.864
REMARK INTER:                  -9.360
REMARK INTRA:                  -1.504
REMARK UNBOUND:                -1.702
REMARK  Name = cpd189.pdb
REMARK  13 active torsions:
REMARK  status: ('A' for Active; 'I' for Inactive)
REMARK    1  A    between atoms: C_1  and  C_2
REMARK    2  A    between atoms: C_2  and  O_4
REMARK    3  A    between atoms: O_4  and  C_5
REMARK    4  A    between atoms: C_6  and  N_7
REMARK    5  A    between atoms: C_8  and  C_10
REMARK    6  A    between atoms: C_16  and  O_17
REMARK    7  A    between atoms: C_19  and  C_20
REMARK    8  A    between atoms: C_24  and  C_25
REMARK    9  A    between atoms: C_26  and  C_27
REMARK   10  A    between atoms: C_27  and  C_28
REMARK   11  A    between atoms: C_27  and  N_29
REMARK   12  A    between atoms: N_29  and  C_30
REMARK   13  A    between atoms: N_29  and  C_31
REMARK                            x       y       z     vdW  Elec       q    Type
REMARK                         _______ _______ _______ _____ _____    ______ ____
ROOT
ATOM      1  C   UNL     1      40.689 -19.142 -34.932  0.00  0.00    +0.127 C 
ATOM      2  C   UNL     1      39.507 -18.522 -35.705  0.00  0.00    +0.086 C 
ATOM      3  C   UNL     1      39.146 -19.392 -36.931  0.00  0.00    +0.077 C 
ATOM      4  C   UNL     1      40.329 -20.210 -37.480  0.00  0.00    -0.019 C 
ATOM      5  C   UNL     1      41.734 -19.538 -37.329  0.00  0.00    -0.020 C 
ATOM      6  C   UNL     1      41.740 -18.248 -38.182  0.00  0.00    -0.059 C 
ATOM      7  C   UNL     1      42.840 -20.561 -37.830  0.00  0.00    -0.032 C 
ATOM      8  C   UNL     1      42.823 -20.936 -39.325  0.00  0.00    -0.049 C 
ATOM      9  C   UNL     1      43.598 -19.997 -40.242  0.00  0.00    -0.047 C 
ATOM     10  C   UNL     1      45.049 -19.709 -39.819  0.00  0.00    -0.025 C 
ATOM     11  C   UNL     1      45.540 -18.498 -40.653  0.00  0.00    -0.059 C 
ATOM     12  C   UNL     1      46.037 -20.919 -39.940  0.00  0.00    -0.020 C 
ATOM     13  C   UNL     1      47.163 -20.573 -38.936  0.00  0.00    -0.048 C 
ATOM     14  C   UNL     1      46.628 -19.494 -37.998  0.00  0.00    -0.049 C 
ATOM     15  C   UNL     1      45.129 -19.368 -38.304  0.00  0.00    -0.032 C 
ATOM     16  C   UNL     1      44.293 -20.286 -37.369  0.00  0.00    -0.034 C 
ATOM     17  C   UNL     1      44.380 -19.797 -35.911  0.00  0.00    -0.049 C 
ATOM     18  C   UNL     1      43.079 -19.959 -35.146  0.00  0.00    -0.046 C 
ATOM     19  C   UNL     1      41.968 -19.137 -35.817  0.00  0.00    +0.004 C 
ENDROOT
BRANCH   2  20
ATOM     20  N   UNL     1      38.350 -18.271 -34.833  0.00  0.00    -0.302 N 
ATOM     21  C   UNL     1      38.237 -17.147 -34.047  0.00  0.00    +0.244 C 
ATOM     22  O   UNL     1      39.047 -16.227 -34.098  0.00  0.00    -0.270 OA
ATOM     23  H   UNL     1      37.625 -18.937 -34.809  0.00  0.00    +0.000 HD
BRANCH  21  24
ATOM     24  C   UNL     1      37.058 -17.061 -33.139  0.00  0.00    +0.037 A 
ATOM     25  C   UNL     1      36.976 -16.131 -32.094  0.00  0.00    -0.050 A 
ATOM     26  C   UNL     1      35.837 -16.086 -31.285  0.00  0.00    -0.061 A 
ATOM     27  C   UNL     1      34.776 -16.962 -31.518  0.00  0.00    -0.062 A 
ATOM     28  C   UNL     1      34.846 -17.881 -32.563  0.00  0.00    -0.061 A 
ATOM     29  C   UNL     1      35.982 -17.928 -33.373  0.00  0.00    -0.050 A 
ENDBRANCH  21  24
ENDBRANCH   2  20
BRANCH   3  30
ATOM     30  O   UNL     1      38.648 -18.576 -37.997  0.00  0.00    -0.390 OA
ATOM     31  H   UNL     1      37.684 -18.668 -38.051  0.00  0.00    +0.000 HD
ENDBRANCH   3  30
BRANCH  12  32
ATOM     32  C   UNL     1      46.618 -21.267 -41.351  0.00  0.00    +0.010 C 
ATOM     33  C   UNL     1      48.159 -21.325 -41.320  0.00  0.00    -0.049 C 
BRANCH  32  34
ATOM     34  N   UNL     1      46.004 -22.485 -41.916  0.00  0.00    -0.305 N 
ATOM     35  C   UNL     1      46.949 -23.447 -42.479  0.00  0.00    -0.013 C 
ATOM     36  C   UNL     1      44.947 -22.182 -42.881  0.00  0.00    -0.013 C 
ATOM     37  H   UNL     1      45.588 -22.943 -41.105  0.00  0.00    +0.000 HD
ENDBRANCH  32  34
ENDBRANCH  12  32
BRANCH   1  38
ATOM     38  O   UNL     1      40.407 -20.505 -34.524  0.00  0.00    -0.459 OA
BRANCH  38  40
ATOM     39  C   UNL     1      40.985 -21.859 -32.699  0.00  0.00    +0.033 C 
ATOM     40  C   UNL     1      40.154 -20.722 -33.207  0.00  0.00    +0.304 C 
ATOM     41  O   UNL     1      39.343 -20.100 -32.534  0.00  0.00    -0.251 OA
ENDBRANCH  38  40
ENDBRANCH   1  38
TORSDOF 7
ENDMDL
MODEL 13
REMARK VINA RESULT:    -6.374     26.493     29.537
REMARK INTER + INTRA:         -10.498
REMARK INTER:                  -8.908
REMARK INTRA:                  -1.590
REMARK UNBOUND:                -1.702
REMARK  Name = cpd189.pdb
REMARK  13 active torsions:
REMARK  status: ('A' for Active; 'I' for Inactive)
REMARK    1  A    between atoms: C_1  and  C_2
REMARK    2  A    between atoms: C_2  and  O_4
REMARK    3  A    between atoms: O_4  and  C_5
REMARK    4  A    between atoms: C_6  and  N_7
REMARK    5  A    between atoms: C_8  and  C_10
REMARK    6  A    between atoms: C_16  and  O_17
REMARK    7  A    between atoms: C_19  and  C_20
REMARK    8  A    between atoms: C_24  and  C_25
REMARK    9  A    between atoms: C_26  and  C_27
REMARK   10  A    between atoms: C_27  and  C_28
REMARK   11  A    between atoms: C_27  and  N_29
REMARK   12  A    between atoms: N_29  and  C_30
REMARK   13  A    between atoms: N_29  and  C_31
REMARK                            x       y       z     vdW  Elec       q    Type
REMARK                         _______ _______ _______ _____ _____    ______ ____
ROOT
ATOM      1  C   UNL     1      55.479 -48.627 -45.279  0.00  0.00    +0.127 C 
ATOM      2  C   UNL     1      55.289 -50.156 -45.313  0.00  0.00    +0.086 C 
ATOM      3  C   UNL     1      54.995 -50.633 -46.755  0.00  0.00    +0.077 C 
ATOM      4  C   UNL     1      54.330 -49.562 -47.637  0.00  0.00    -0.019 C 
ATOM      5  C   UNL     1      53.380 -48.571 -46.887  0.00  0.00    -0.020 C 
ATOM      6  C   UNL     1      52.192 -49.386 -46.322  0.00  0.00    -0.059 C 
ATOM      7  C   UNL     1      52.883 -47.470 -47.916  0.00  0.00    -0.032 C 
ATOM      8  C   UNL     1      51.991 -47.949 -49.080  0.00  0.00    -0.049 C 
ATOM      9  C   UNL     1      50.499 -48.015 -48.774  0.00  0.00    -0.047 C 
ATOM     10  C   UNL     1      49.890 -46.735 -48.176  0.00  0.00    -0.025 C 
ATOM     11  C   UNL     1      48.490 -47.106 -47.625  0.00  0.00    -0.059 C 
ATOM     12  C   UNL     1      49.810 -45.511 -49.151  0.00  0.00    -0.020 C 
ATOM     13  C   UNL     1      49.766 -44.289 -48.201  0.00  0.00    -0.048 C 
ATOM     14  C   UNL     1      50.242 -44.756 -46.828  0.00  0.00    -0.049 C 
ATOM     15  C   UNL     1      50.777 -46.183 -47.025  0.00  0.00    -0.032 C 
ATOM     16  C   UNL     1      52.305 -46.168 -47.308  0.00  0.00    -0.034 C 
ATOM     17  C   UNL     1      53.081 -45.687 -46.067  0.00  0.00    -0.049 C 
ATOM     18  C   UNL     1      54.401 -46.410 -45.869  0.00  0.00    -0.046 C 
ATOM     19  C   UNL     1      54.154 -47.913 -45.675  0.00  0.00    +0.004 C 
ENDROOT
BRANCH   2  20
ATOM     20  N   UNL     1      56.423 -50.866 -44.705  0.00  0.00    -0.302 N 
ATOM     21  C   UNL     1      56.343 -51.498 -43.485  0.00  0.00    +0.244 C 
ATOM     22  O   UNL     1      55.287 -51.598 -42.867  0.00  0.00    -0.270 OA
ATOM     23  H   UNL     1      57.279 -50.890 -45.192  0.00  0.00    +0.000 HD
BRANCH  21  24
ATOM     24  C   UNL     1      57.593 -52.099 -42.940  0.00  0.00    +0.037 A 
ATOM     25  C   UNL     1      57.606 -52.907 -41.795  0.00  0.00    -0.050 A 
ATOM     26  C   UNL     1      58.807 -53.457 -41.341  0.00  0.00    -0.061 A 
ATOM     27  C   UNL     1      59.996 -53.211 -42.028  0.00  0.00    -0.062 A 
ATOM     28  C   UNL     1      59.988 -52.418 -43.174  0.00  0.00    -0.061 A 
ATOM     29  C   UNL     1      58.790 -51.867 -43.631  0.00  0.00    -0.050 A 
ENDBRANCH  21  24
ENDBRANCH   2  20
BRANCH   3  30
ATOM     30  O   UNL     1      54.139 -51.781 -46.740  0.00  0.00    -0.390 OA
ATOM     31  H   UNL     1      54.251 -52.257 -45.903  0.00  0.00    +0.000 HD
ENDBRANCH   3  30
BRANCH  12  32
ATOM     32  C   UNL     1      48.644 -45.465 -50.194  0.00  0.00    +0.010 C 
ATOM     33  C   UNL     1      47.907 -44.111 -50.147  0.00  0.00    -0.049 C 
BRANCH  32  34
ATOM     34  N   UNL     1      49.102 -45.827 -51.550  0.00  0.00    -0.305 N 
ATOM     35  C   UNL     1      48.731 -47.172 -51.987  0.00  0.00    -0.013 C 
ATOM     36  C   UNL     1      50.537 -45.609 -51.733  0.00  0.00    -0.013 C 
ATOM     37  H   UNL     1      48.592 -45.185 -52.156  0.00  0.00    +0.000 HD
ENDBRANCH  32  34
ENDBRANCH  12  32
BRANCH   1  38
ATOM     38  O   UNL     1      56.530 -48.196 -46.180  0.00  0.00    -0.459 OA
BRANCH  38  40
ATOM     39  C   UNL     1      58.663 -47.355 -46.672  0.00  0.00    +0.033 C 
ATOM     40  C   UNL     1      57.748 -47.936 -45.638  0.00  0.00    +0.304 C 
ATOM     41  O   UNL     1      58.068 -48.168 -44.480  0.00  0.00    -0.251 OA
ENDBRANCH  38  40
ENDBRANCH   1  38
TORSDOF 7
ENDMDL
MODEL 14
REMARK VINA RESULT:    -6.229      2.459      4.790
REMARK INTER + INTRA:         -10.299
REMARK INTER:                  -9.310
REMARK INTRA:                  -0.989
REMARK UNBOUND:                -1.702
REMARK  Name = cpd189.pdb
REMARK  13 active torsions:
REMARK  status: ('A' for Active; 'I' for Inactive)
REMARK    1  A    between atoms: C_1  and  C_2
REMARK    2  A    between atoms: C_2  and  O_4
REMARK    3  A    between atoms: O_4  and  C_5
REMARK    4  A    between atoms: C_6  and  N_7
REMARK    5  A    between atoms: C_8  and  C_10
REMARK    6  A    between atoms: C_16  and  O_17
REMARK    7  A    between atoms: C_19  and  C_20
REMARK    8  A    between atoms: C_24  and  C_25
REMARK    9  A    between atoms: C_26  and  C_27
REMARK   10  A    between atoms: C_27  and  C_28
REMARK   11  A    between atoms: C_27  and  N_29
REMARK   12  A    between atoms: N_29  and  C_30
REMARK   13  A    between atoms: N_29  and  C_31
REMARK                            x       y       z     vdW  Elec       q    Type
REMARK                         _______ _______ _______ _____ _____    ______ ____
ROOT
ATOM      1  C   UNL     1      33.315 -34.033 -30.271  0.00  0.00    +0.127 C 
ATOM      2  C   UNL     1      32.879 -35.503 -30.112  0.00  0.00    +0.086 C 
ATOM      3  C   UNL     1      31.981 -35.933 -31.295  0.00  0.00    +0.077 C 
ATOM      4  C   UNL     1      31.212 -34.768 -31.943  0.00  0.00    -0.019 C 
ATOM      5  C   UNL     1      30.798 -33.615 -30.969  0.00  0.00    -0.020 C 
ATOM      6  C   UNL     1      29.803 -34.196 -29.938  0.00  0.00    -0.059 C 
ATOM      7  C   UNL     1      30.130 -32.452 -31.819  0.00  0.00    -0.032 C 
ATOM      8  C   UNL     1      28.795 -32.774 -32.520  0.00  0.00    -0.049 C 
ATOM      9  C   UNL     1      27.546 -32.566 -31.670  0.00  0.00    -0.047 C 
ATOM     10  C   UNL     1      27.431 -31.191 -30.990  0.00  0.00    -0.025 C 
ATOM     11  C   UNL     1      26.310 -31.298 -29.925  0.00  0.00    -0.059 C 
ATOM     12  C   UNL     1      27.183 -29.982 -31.955  0.00  0.00    -0.020 C 
ATOM     13  C   UNL     1      27.707 -28.764 -31.157  0.00  0.00    -0.048 C 
ATOM     14  C   UNL     1      28.592 -29.296 -30.032  0.00  0.00    -0.049 C 
ATOM     15  C   UNL     1      28.769 -30.797 -30.304  0.00  0.00    -0.032 C 
ATOM     16  C   UNL     1      30.051 -31.061 -31.142  0.00  0.00    -0.034 C 
ATOM     17  C   UNL     1      31.312 -30.716 -30.326  0.00  0.00    -0.049 C 
ATOM     18  C   UNL     1      32.470 -31.663 -30.584  0.00  0.00    -0.046 C 
ATOM     19  C   UNL     1      32.075 -33.096 -30.194  0.00  0.00    +0.004 C 
ENDROOT
BRANCH   2  20
ATOM     20  N   UNL     1      34.028 -36.400 -29.922  0.00  0.00    -0.302 N 
ATOM     21  C   UNL     1      34.554 -36.690 -28.684  0.00  0.00    +0.244 C 
ATOM     22  O   UNL     1      34.034 -36.299 -27.643  0.00  0.00    -0.270 OA
ATOM     23  H   UNL     1      34.441 -36.811 -30.716  0.00  0.00    +0.000 HD
BRANCH  21  24
ATOM     24  C   UNL     1      35.778 -37.540 -28.640  0.00  0.00    +0.037 A 
ATOM     25  C   UNL     1      35.725 -38.936 -28.536  0.00  0.00    -0.050 A 
ATOM     26  C   UNL     1      36.907 -39.681 -28.517  0.00  0.00    -0.061 A 
ATOM     27  C   UNL     1      38.143 -39.040 -28.607  0.00  0.00    -0.062 A 
ATOM     28  C   UNL     1      38.202 -37.653 -28.723  0.00  0.00    -0.061 A 
ATOM     29  C   UNL     1      37.023 -36.905 -28.744  0.00  0.00    -0.050 A 
ENDBRANCH  21  24
ENDBRANCH   2  20
BRANCH   3  30
ATOM     30  O   UNL     1      31.022 -36.907 -30.870  0.00  0.00    -0.390 OA
ATOM     31  H   UNL     1      30.349 -37.021 -31.559  0.00  0.00    +0.000 HD
ENDBRANCH   3  30
BRANCH  12  32
ATOM     32  C   UNL     1      25.730 -29.737 -32.483  0.00  0.00    +0.010 C 
ATOM     33  C   UNL     1      25.269 -28.293 -32.194  0.00  0.00    -0.049 C 
BRANCH  32  34
ATOM     34  N   UNL     1      25.587 -30.117 -33.902  0.00  0.00    -0.305 N 
ATOM     35  C   UNL     1      26.845 -30.261 -34.631  0.00  0.00    -0.013 C 
ATOM     36  C   UNL     1      24.674 -29.234 -34.628  0.00  0.00    -0.013 C 
ATOM     37  H   UNL     1      25.178 -31.051 -33.861  0.00  0.00    +0.000 HD
ENDBRANCH  32  34
ENDBRANCH  12  32
BRANCH   1  38
ATOM     38  O   UNL     1      33.993 -33.808 -31.533  0.00  0.00    -0.459 OA
BRANCH  38  40
ATOM     39  C   UNL     1      36.244 -33.982 -30.900  0.00  0.00    +0.033 C 
ATOM     40  C   UNL     1      35.169 -33.127 -31.495  0.00  0.00    +0.304 C 
ATOM     41  O   UNL     1      35.326 -31.972 -31.866  0.00  0.00    -0.251 OA
ENDBRANCH  38  40
ENDBRANCH   1  38
TORSDOF 7
ENDMDL
MODEL 15
REMARK VINA RESULT:    -6.174      6.211      9.684
REMARK INTER + INTRA:         -10.223
REMARK INTER:                  -8.508
REMARK INTRA:                  -1.715
REMARK UNBOUND:                -1.702
REMARK  Name = cpd189.pdb
REMARK  13 active torsions:
REMARK  status: ('A' for Active; 'I' for Inactive)
REMARK    1  A    between atoms: C_1  and  C_2
REMARK    2  A    between atoms: C_2  and  O_4
REMARK    3  A    between atoms: O_4  and  C_5
REMARK    4  A    between atoms: C_6  and  N_7
REMARK    5  A    between atoms: C_8  and  C_10
REMARK    6  A    between atoms: C_16  and  O_17
REMARK    7  A    between atoms: C_19  and  C_20
REMARK    8  A    between atoms: C_24  and  C_25
REMARK    9  A    between atoms: C_26  and  C_27
REMARK   10  A    between atoms: C_27  and  C_28
REMARK   11  A    between atoms: C_27  and  N_29
REMARK   12  A    between atoms: N_29  and  C_30
REMARK   13  A    between atoms: N_29  and  C_31
REMARK                            x       y       z     vdW  Elec       q    Type
REMARK                         _______ _______ _______ _____ _____    ______ ____
ROOT
ATOM      1  C   UNL     1      34.384 -39.542 -29.589  0.00  0.00    +0.127 C 
ATOM      2  C   UNL     1      35.837 -39.621 -29.078  0.00  0.00    +0.086 C 
ATOM      3  C   UNL     1      36.342 -41.082 -29.109  0.00  0.00    +0.077 C 
ATOM      4  C   UNL     1      35.220 -42.128 -28.982  0.00  0.00    -0.019 C 
ATOM      5  C   UNL     1      33.998 -41.696 -28.104  0.00  0.00    -0.020 C 
ATOM      6  C   UNL     1      34.499 -41.501 -26.654  0.00  0.00    -0.059 C 
ATOM      7  C   UNL     1      32.894 -42.833 -28.182  0.00  0.00    -0.032 C 
ATOM      8  C   UNL     1      33.254 -44.204 -27.575  0.00  0.00    -0.049 C 
ATOM      9  C   UNL     1      32.978 -44.350 -26.083  0.00  0.00    -0.047 C 
ATOM     10  C   UNL     1      31.559 -43.966 -25.632  0.00  0.00    -0.025 C 
ATOM     11  C   UNL     1      31.583 -43.849 -24.087  0.00  0.00    -0.059 C 
ATOM     12  C   UNL     1      30.419 -44.929 -26.111  0.00  0.00    -0.020 C 
ATOM     13  C   UNL     1      29.151 -44.041 -26.072  0.00  0.00    -0.048 C 
ATOM     14  C   UNL     1      29.609 -42.586 -26.020  0.00  0.00    -0.049 C 
ATOM     15  C   UNL     1      31.127 -42.608 -26.254  0.00  0.00    -0.032 C 
ATOM     16  C   UNL     1      31.458 -42.429 -27.762  0.00  0.00    -0.034 C 
ATOM     17  C   UNL     1      31.065 -41.018 -28.239  0.00  0.00    -0.049 C 
ATOM     18  C   UNL     1      32.036 -40.436 -29.250  0.00  0.00    -0.046 C 
ATOM     19  C   UNL     1      33.435 -40.314 -28.627  0.00  0.00    +0.004 C 
ENDROOT
BRANCH   2  20
ATOM     20  N   UNL     1      36.726 -38.702 -29.802  0.00  0.00    -0.302 N 
ATOM     21  C   UNL     1      37.822 -38.108 -29.220  0.00  0.00    +0.244 C 
ATOM     22  O   UNL     1      38.191 -38.385 -28.082  0.00  0.00    -0.270 OA
ATOM     23  H   UNL     1      36.529 -38.502 -30.746  0.00  0.00    +0.000 HD
BRANCH  21  24
ATOM     24  C   UNL     1      38.586 -37.124 -30.038  0.00  0.00    +0.037 A 
ATOM     25  C   UNL     1      39.980 -37.171 -30.170  0.00  0.00    -0.050 A 
ATOM     26  C   UNL     1      40.639 -36.231 -30.967  0.00  0.00    -0.061 A 
ATOM     27  C   UNL     1      39.913 -35.246 -31.637  0.00  0.00    -0.062 A 
ATOM     28  C   UNL     1      38.526 -35.201 -31.520  0.00  0.00    -0.061 A 
ATOM     29  C   UNL     1      37.863 -36.139 -30.726  0.00  0.00    -0.050 A 
ENDBRANCH  21  24
ENDBRANCH   2  20
BRANCH   3  30
ATOM     30  O   UNL     1      37.277 -41.314 -28.050  0.00  0.00    -0.390 OA
ATOM     31  H   UNL     1      38.173 -41.375 -28.416  0.00  0.00    +0.000 HD
ENDBRANCH   3  30
BRANCH  12  32
ATOM     32  C   UNL     1      30.200 -46.269 -25.332  0.00  0.00    +0.010 C 
ATOM     33  C   UNL     1      28.714 -46.466 -24.969  0.00  0.00    -0.049 C 
BRANCH  32  34
ATOM     34  N   UNL     1      30.780 -47.423 -26.048  0.00  0.00    -0.305 N 
ATOM     35  C   UNL     1      32.031 -47.929 -25.488  0.00  0.00    -0.013 C 
ATOM     36  C   UNL     1      30.925 -47.177 -27.483  0.00  0.00    -0.013 C 
ATOM     37  H   UNL     1      30.091 -48.163 -25.909  0.00  0.00    +0.000 HD
ENDBRANCH  32  34
ENDBRANCH  12  32
BRANCH   1  38
ATOM     38  O   UNL     1      34.253 -40.097 -30.922  0.00  0.00    -0.459 OA
BRANCH  38  40
ATOM     39  C   UNL     1      33.556 -39.905 -33.152  0.00  0.00    +0.033 C 
ATOM     40  C   UNL     1      34.135 -39.220 -31.953  0.00  0.00    +0.304 C 
ATOM     41  O   UNL     1      34.478 -38.045 -31.923  0.00  0.00    -0.251 OA
ENDBRANCH  38  40
ENDBRANCH   1  38
TORSDOF 7
ENDMDL
MODEL 16
REMARK VINA RESULT:    -6.139      3.545     10.261
REMARK INTER + INTRA:         -10.174
REMARK INTER:                  -8.859
REMARK INTRA:                  -1.316
REMARK UNBOUND:                -1.702
REMARK  Name = cpd189.pdb
REMARK  13 active torsions:
REMARK  status: ('A' for Active; 'I' for Inactive)
REMARK    1  A    between atoms: C_1  and  C_2
REMARK    2  A    between atoms: C_2  and  O_4
REMARK    3  A    between atoms: O_4  and  C_5
REMARK    4  A    between atoms: C_6  and  N_7
REMARK    5  A    between atoms: C_8  and  C_10
REMARK    6  A    between atoms: C_16  and  O_17
REMARK    7  A    between atoms: C_19  and  C_20
REMARK    8  A    between atoms: C_24  and  C_25
REMARK    9  A    between atoms: C_26  and  C_27
REMARK   10  A    between atoms: C_27  and  C_28
REMARK   11  A    between atoms: C_27  and  N_29
REMARK   12  A    between atoms: N_29  and  C_30
REMARK   13  A    between atoms: N_29  and  C_31
REMARK                            x       y       z     vdW  Elec       q    Type
REMARK                         _______ _______ _______ _____ _____    ______ ____
ROOT
ATOM      1  C   UNL     1      30.565 -31.609 -30.499  0.00  0.00    +0.127 C 
ATOM      2  C   UNL     1      29.260 -32.318 -30.913  0.00  0.00    +0.086 C 
ATOM      3  C   UNL     1      28.915 -33.444 -29.912  0.00  0.00    +0.077 C 
ATOM      4  C   UNL     1      30.144 -34.034 -29.197  0.00  0.00    -0.019 C 
ATOM      5  C   UNL     1      31.463 -34.053 -30.038  0.00  0.00    -0.020 C 
ATOM      6  C   UNL     1      31.244 -34.992 -31.247  0.00  0.00    -0.059 C 
ATOM      7  C   UNL     1      32.644 -34.574 -29.114  0.00  0.00    -0.032 C 
ATOM      8  C   UNL     1      32.559 -36.033 -28.622  0.00  0.00    -0.049 C 
ATOM      9  C   UNL     1      33.139 -37.076 -29.569  0.00  0.00    -0.047 C 
ATOM     10  C   UNL     1      34.572 -36.801 -30.057  0.00  0.00    -0.025 C 
ATOM     11  C   UNL     1      34.844 -37.757 -31.246  0.00  0.00    -0.059 C 
ATOM     12  C   UNL     1      35.689 -36.922 -28.965  0.00  0.00    -0.020 C 
ATOM     13  C   UNL     1      36.838 -36.045 -29.519  0.00  0.00    -0.048 C 
ATOM     14  C   UNL     1      36.249 -35.142 -30.600  0.00  0.00    -0.049 C 
ATOM     15  C   UNL     1      34.726 -35.326 -30.525  0.00  0.00    -0.032 C 
ATOM     16  C   UNL     1      34.084 -34.260 -29.593  0.00  0.00    -0.034 C 
ATOM     17  C   UNL     1      34.223 -32.853 -30.204  0.00  0.00    -0.049 C 
ATOM     18  C   UNL     1      33.014 -31.970 -29.953  0.00  0.00    -0.046 C 
ATOM     19  C   UNL     1      31.762 -32.599 -30.583  0.00  0.00    +0.004 C 
ENDROOT
BRANCH   2  20
ATOM     20  N   UNL     1      28.152 -31.369 -31.096  0.00  0.00    -0.302 N 
ATOM     21  C   UNL     1      27.770 -30.895 -32.330  0.00  0.00    +0.244 C 
ATOM     22  O   UNL     1      28.263 -31.311 -33.374  0.00  0.00    -0.270 OA
ATOM     23  H   UNL     1      27.662 -31.058 -30.300  0.00  0.00    +0.000 HD
BRANCH  21  24
ATOM     24  C   UNL     1      26.693 -29.865 -32.366  0.00  0.00    +0.037 A 
ATOM     25  C   UNL     1      25.934 -29.606 -33.516  0.00  0.00    -0.050 A 
ATOM     26  C   UNL     1      24.925 -28.640 -33.484  0.00  0.00    -0.061 A 
ATOM     27  C   UNL     1      24.665 -27.934 -32.309  0.00  0.00    -0.062 A 
ATOM     28  C   UNL     1      25.408 -28.196 -31.160  0.00  0.00    -0.061 A 
ATOM     29  C   UNL     1      26.416 -29.161 -31.186  0.00  0.00    -0.050 A 
ENDBRANCH  21  24
ENDBRANCH   2  20
BRANCH   3  30
ATOM     30  O   UNL     1      28.239 -34.518 -30.576  0.00  0.00    -0.390 OA
ATOM     31  H   UNL     1      28.837 -35.278 -30.652  0.00  0.00    +0.000 HD
ENDBRANCH   3  30
BRANCH  12  32
ATOM     32  C   UNL     1      36.198 -38.350 -28.576  0.00  0.00    +0.010 C 
ATOM     33  C   UNL     1      37.734 -38.375 -28.436  0.00  0.00    -0.049 C 
BRANCH  32  34
ATOM     34  N   UNL     1      35.499 -38.880 -27.388  0.00  0.00    -0.305 N 
ATOM     35  C   UNL     1      34.421 -39.823 -27.677  0.00  0.00    -0.013 C 
ATOM     36  C   UNL     1      35.026 -37.819 -26.498  0.00  0.00    -0.013 C 
ATOM     37  H   UNL     1      36.220 -39.417 -26.905  0.00  0.00    +0.000 HD
ENDBRANCH  32  34
ENDBRANCH  12  32
BRANCH   1  38
ATOM     38  O   UNL     1      30.486 -31.083 -29.150  0.00  0.00    -0.459 OA
BRANCH  38  40
ATOM     39  C   UNL     1      28.794 -30.320 -27.718  0.00  0.00    +0.033 C 
ATOM     40  C   UNL     1      29.628 -30.053 -28.932  0.00  0.00    +0.304 C 
ATOM     41  O   UNL     1      29.525 -29.059 -29.639  0.00  0.00    -0.251 OA
ENDBRANCH  38  40
ENDBRANCH   1  38
TORSDOF 7
ENDMDL
MODEL 17
REMARK VINA RESULT:    -6.096      5.201      8.359
REMARK INTER + INTRA:         -10.114
REMARK INTER:                  -8.604
REMARK INTRA:                  -1.510
REMARK UNBOUND:                -1.702
REMARK  Name = cpd189.pdb
REMARK  13 active torsions:
REMARK  status: ('A' for Active; 'I' for Inactive)
REMARK    1  A    between atoms: C_1  and  C_2
REMARK    2  A    between atoms: C_2  and  O_4
REMARK    3  A    between atoms: O_4  and  C_5
REMARK    4  A    between atoms: C_6  and  N_7
REMARK    5  A    between atoms: C_8  and  C_10
REMARK    6  A    between atoms: C_16  and  O_17
REMARK    7  A    between atoms: C_19  and  C_20
REMARK    8  A    between atoms: C_24  and  C_25
REMARK    9  A    between atoms: C_26  and  C_27
REMARK   10  A    between atoms: C_27  and  C_28
REMARK   11  A    between atoms: C_27  and  N_29
REMARK   12  A    between atoms: N_29  and  C_30
REMARK   13  A    between atoms: N_29  and  C_31
REMARK                            x       y       z     vdW  Elec       q    Type
REMARK                         _______ _______ _______ _____ _____    ______ ____
ROOT
ATOM      1  C   UNL     1      35.344 -38.017 -28.328  0.00  0.00    +0.127 C 
ATOM      2  C   UNL     1      36.295 -38.826 -29.233  0.00  0.00    +0.086 C 
ATOM      3  C   UNL     1      35.489 -39.719 -30.205  0.00  0.00    +0.077 C 
ATOM      4  C   UNL     1      34.100 -40.115 -29.673  0.00  0.00    -0.019 C 
ATOM      5  C   UNL     1      34.001 -40.286 -28.120  0.00  0.00    -0.020 C 
ATOM      6  C   UNL     1      34.913 -41.467 -27.712  0.00  0.00    -0.059 C 
ATOM      7  C   UNL     1      32.487 -40.572 -27.739  0.00  0.00    -0.032 C 
ATOM      8  C   UNL     1      31.873 -41.892 -28.246  0.00  0.00    -0.049 C 
ATOM      9  C   UNL     1      32.094 -43.103 -27.345  0.00  0.00    -0.047 C 
ATOM     10  C   UNL     1      31.704 -42.908 -25.870  0.00  0.00    -0.025 C 
ATOM     11  C   UNL     1      32.312 -44.091 -25.075  0.00  0.00    -0.059 C 
ATOM     12  C   UNL     1      30.168 -42.768 -25.594  0.00  0.00    -0.020 C 
ATOM     13  C   UNL     1      30.107 -42.007 -24.247  0.00  0.00    -0.048 C 
ATOM     14  C   UNL     1      31.475 -41.370 -24.016  0.00  0.00    -0.049 C 
ATOM     15  C   UNL     1      32.262 -41.566 -25.320  0.00  0.00    -0.032 C 
ATOM     16  C   UNL     1      32.093 -40.338 -26.259  0.00  0.00    -0.034 C 
ATOM     17  C   UNL     1      32.761 -39.092 -25.647  0.00  0.00    -0.049 C 
ATOM     18  C   UNL     1      33.426 -38.201 -26.681  0.00  0.00    -0.046 C 
ATOM     19  C   UNL     1      34.533 -38.977 -27.410  0.00  0.00    +0.004 C 
ENDROOT
BRANCH   2  20
ATOM     20  N   UNL     1      37.259 -37.962 -29.930  0.00  0.00    -0.302 N 
ATOM     21  C   UNL     1      38.579 -37.862 -29.556  0.00  0.00    +0.244 C 
ATOM     22  O   UNL     1      39.067 -38.565 -28.677  0.00  0.00    -0.270 OA
ATOM     23  H   UNL     1      36.945 -37.432 -30.698  0.00  0.00    +0.000 HD
BRANCH  21  24
ATOM     24  C   UNL     1      39.427 -36.878 -30.289  0.00  0.00    +0.037 A 
ATOM     25  C   UNL     1      40.827 -36.893 -30.227  0.00  0.00    -0.050 A 
ATOM     26  C   UNL     1      41.569 -35.956 -30.950  0.00  0.00    -0.061 A 
ATOM     27  C   UNL     1      40.921 -35.006 -31.740  0.00  0.00    -0.062 A 
ATOM     28  C   UNL     1      39.530 -34.993 -31.815  0.00  0.00    -0.061 A 
ATOM     29  C   UNL     1      38.785 -35.929 -31.096  0.00  0.00    -0.050 A 
ENDBRANCH  21  24
ENDBRANCH   2  20
BRANCH   3  30
ATOM     30  O   UNL     1      36.206 -40.924 -30.493  0.00  0.00    -0.390 OA
ATOM     31  H   UNL     1      36.087 -41.156 -31.427  0.00  0.00    +0.000 HD
ENDBRANCH   3  30
BRANCH  12  32
ATOM     32  C   UNL     1      29.298 -44.069 -25.553  0.00  0.00    +0.010 C 
ATOM     33  C   UNL     1      28.488 -44.157 -24.243  0.00  0.00    -0.049 C 
BRANCH  32  34
ATOM     34  N   UNL     1      28.461 -44.210 -26.762  0.00  0.00    -0.305 N 
ATOM     35  C   UNL     1      27.050 -44.489 -26.505  0.00  0.00    -0.013 C 
ATOM     36  C   UNL     1      29.009 -45.180 -27.711  0.00  0.00    -0.013 C 
ATOM     37  H   UNL     1      28.492 -43.283 -27.186  0.00  0.00    +0.000 HD
ENDBRANCH  32  34
ENDBRANCH  12  32
BRANCH   1  38
ATOM     38  O   UNL     1      34.417 -37.217 -29.104  0.00  0.00    -0.459 OA
BRANCH  38  40
ATOM     39  C   UNL     1      33.481 -35.109 -28.680  0.00  0.00    +0.033 C 
ATOM     40  C   UNL     1      34.661 -35.882 -29.183  0.00  0.00    +0.304 C 
ATOM     41  O   UNL     1      35.683 -35.378 -29.628  0.00  0.00    -0.251 OA
ENDBRANCH  38  40
ENDBRANCH   1  38
TORSDOF 7
ENDMDL
MODEL 18
REMARK VINA RESULT:    -6.060     22.650     25.240
REMARK INTER + INTRA:         -10.064
REMARK INTER:                  -8.322
REMARK INTRA:                  -1.742
REMARK UNBOUND:                -1.702
REMARK  Name = cpd189.pdb
REMARK  13 active torsions:
REMARK  status: ('A' for Active; 'I' for Inactive)
REMARK    1  A    between atoms: C_1  and  C_2
REMARK    2  A    between atoms: C_2  and  O_4
REMARK    3  A    between atoms: O_4  and  C_5
REMARK    4  A    between atoms: C_6  and  N_7
REMARK    5  A    between atoms: C_8  and  C_10
REMARK    6  A    between atoms: C_16  and  O_17
REMARK    7  A    between atoms: C_19  and  C_20
REMARK    8  A    between atoms: C_24  and  C_25
REMARK    9  A    between atoms: C_26  and  C_27
REMARK   10  A    between atoms: C_27  and  C_28
REMARK   11  A    between atoms: C_27  and  N_29
REMARK   12  A    between atoms: N_29  and  C_30
REMARK   13  A    between atoms: N_29  and  C_31
REMARK                            x       y       z     vdW  Elec       q    Type
REMARK                         _______ _______ _______ _____ _____    ______ ____
ROOT
ATOM      1  C   UNL     1      45.666 -17.442 -38.009  0.00  0.00    +0.127 C 
ATOM      2  C   UNL     1      44.576 -17.948 -38.975  0.00  0.00    +0.086 C 
ATOM      3  C   UNL     1      45.188 -18.283 -40.354  0.00  0.00    +0.077 C 
ATOM      4  C   UNL     1      46.461 -17.480 -40.678  0.00  0.00    -0.019 C 
ATOM      5  C   UNL     1      46.510 -16.034 -40.082  0.00  0.00    -0.020 C 
ATOM      6  C   UNL     1      45.371 -15.213 -40.731  0.00  0.00    -0.059 C 
ATOM      7  C   UNL     1      47.929 -15.402 -40.406  0.00  0.00    -0.032 C 
ATOM      8  C   UNL     1      48.262 -15.148 -41.891  0.00  0.00    -0.049 C 
ATOM      9  C   UNL     1      47.789 -13.809 -42.445  0.00  0.00    -0.047 C 
ATOM     10  C   UNL     1      48.199 -12.573 -41.627  0.00  0.00    -0.025 C 
ATOM     11  C   UNL     1      47.353 -11.380 -42.141  0.00  0.00    -0.059 C 
ATOM     12  C   UNL     1      49.729 -12.233 -41.643  0.00  0.00    -0.020 C 
ATOM     13  C   UNL     1      49.934 -11.415 -40.344  0.00  0.00    -0.048 C 
ATOM     14  C   UNL     1      48.726 -11.665 -39.446  0.00  0.00    -0.049 C 
ATOM     15  C   UNL     1      47.925 -12.794 -40.112  0.00  0.00    -0.032 C 
ATOM     16  C   UNL     1      48.352 -14.180 -39.553  0.00  0.00    -0.034 C 
ATOM     17  C   UNL     1      47.950 -14.312 -38.071  0.00  0.00    -0.049 C 
ATOM     18  C   UNL     1      47.491 -15.710 -37.698  0.00  0.00    -0.046 C 
ATOM     19  C   UNL     1      46.254 -16.096 -38.523  0.00  0.00    +0.004 C 
ENDROOT
BRANCH   2  20
ATOM     20  N   UNL     1      43.817 -19.072 -38.408  0.00  0.00    -0.302 N 
ATOM     21  C   UNL     1      42.472 -19.257 -38.637  0.00  0.00    +0.244 C 
ATOM     22  O   UNL     1      41.836 -18.552 -39.414  0.00  0.00    -0.270 OA
ATOM     23  H   UNL     1      44.291 -19.721 -37.839  0.00  0.00    +0.000 HD
BRANCH  21  24
ATOM     24  C   UNL     1      41.804 -20.384 -37.926  0.00  0.00    +0.037 A 
ATOM     25  C   UNL     1      40.858 -21.212 -38.544  0.00  0.00    -0.050 A 
ATOM     26  C   UNL     1      40.278 -22.265 -37.831  0.00  0.00    -0.061 A 
ATOM     27  C   UNL     1      40.641 -22.499 -36.505  0.00  0.00    -0.062 A 
ATOM     28  C   UNL     1      41.590 -21.686 -35.888  0.00  0.00    -0.061 A 
ATOM     29  C   UNL     1      42.173 -20.635 -36.597  0.00  0.00    -0.050 A 
ENDBRANCH  21  24
ENDBRANCH   2  20
BRANCH   3  30
ATOM     30  O   UNL     1      44.240 -18.037 -41.399  0.00  0.00    -0.390 OA
ATOM     31  H   UNL     1      44.699 -17.682 -42.175  0.00  0.00    +0.000 HD
ENDBRANCH   3  30
BRANCH  12  32
ATOM     32  C   UNL     1      50.311 -11.484 -42.887  0.00  0.00    +0.010 C 
ATOM     33  C   UNL     1      51.236 -10.326 -42.458  0.00  0.00    -0.049 C 
BRANCH  32  34
ATOM     34  N   UNL     1      50.951 -12.413 -43.841  0.00  0.00    -0.305 N 
ATOM     35  C   UNL     1      50.154 -12.723 -45.026  0.00  0.00    -0.013 C 
ATOM     36  C   UNL     1      51.413 -13.643 -43.198  0.00  0.00    -0.013 C 
ATOM     37  H   UNL     1      51.761 -11.892 -44.176  0.00  0.00    +0.000 HD
ENDBRANCH  32  34
ENDBRANCH  12  32
BRANCH   1  38
ATOM     38  O   UNL     1      46.745 -18.400 -37.867  0.00  0.00    -0.459 OA
BRANCH  38  40
ATOM     39  C   UNL     1      47.962 -18.850 -35.914  0.00  0.00    +0.033 C 
ATOM     40  C   UNL     1      46.756 -19.165 -36.744  0.00  0.00    +0.304 C 
ATOM     41  O   UNL     1      45.919 -20.012 -36.460  0.00  0.00    -0.251 OA
ENDBRANCH  38  40
ENDBRANCH   1  38
TORSDOF 7
ENDMDL
MODEL 19
REMARK VINA RESULT:    -6.058     19.975     21.756
REMARK INTER + INTRA:         -10.063
REMARK INTER:                  -9.393
REMARK INTRA:                  -0.669
REMARK UNBOUND:                -1.702
REMARK  Name = cpd189.pdb
REMARK  13 active torsions:
REMARK  status: ('A' for Active; 'I' for Inactive)
REMARK    1  A    between atoms: C_1  and  C_2
REMARK    2  A    between atoms: C_2  and  O_4
REMARK    3  A    between atoms: O_4  and  C_5
REMARK    4  A    between atoms: C_6  and  N_7
REMARK    5  A    between atoms: C_8  and  C_10
REMARK    6  A    between atoms: C_16  and  O_17
REMARK    7  A    between atoms: C_19  and  C_20
REMARK    8  A    between atoms: C_24  and  C_25
REMARK    9  A    between atoms: C_26  and  C_27
REMARK   10  A    between atoms: C_27  and  C_28
REMARK   11  A    between atoms: C_27  and  N_29
REMARK   12  A    between atoms: N_29  and  C_30
REMARK   13  A    between atoms: N_29  and  C_31
REMARK                            x       y       z     vdW  Elec       q    Type
REMARK                         _______ _______ _______ _____ _____    ______ ____
ROOT
ATOM      1  C   UNL     1      45.911 -17.635 -38.144  0.00  0.00    +0.127 C 
ATOM      2  C   UNL     1      46.318 -19.006 -37.568  0.00  0.00    +0.086 C 
ATOM      3  C   UNL     1      45.134 -19.643 -36.803  0.00  0.00    +0.077 C 
ATOM      4  C   UNL     1      44.143 -18.615 -36.228  0.00  0.00    -0.019 C 
ATOM      5  C   UNL     1      44.773 -17.251 -35.788  0.00  0.00    -0.020 C 
ATOM      6  C   UNL     1      45.746 -17.532 -34.619  0.00  0.00    -0.059 C 
ATOM      7  C   UNL     1      43.604 -16.277 -35.340  0.00  0.00    -0.032 C 
ATOM      8  C   UNL     1      42.798 -16.676 -34.087  0.00  0.00    -0.049 C 
ATOM      9  C   UNL     1      43.387 -16.216 -32.759  0.00  0.00    -0.047 C 
ATOM     10  C   UNL     1      43.730 -14.719 -32.671  0.00  0.00    -0.025 C 
ATOM     11  C   UNL     1      44.614 -14.523 -31.413  0.00  0.00    -0.059 C 
ATOM     12  C   UNL     1      42.501 -13.747 -32.658  0.00  0.00    -0.020 C 
ATOM     13  C   UNL     1      43.087 -12.410 -33.172  0.00  0.00    -0.048 C 
ATOM     14  C   UNL     1      44.419 -12.721 -33.851  0.00  0.00    -0.049 C 
ATOM     15  C   UNL     1      44.507 -14.252 -33.935  0.00  0.00    -0.032 C 
ATOM     16  C   UNL     1      43.946 -14.766 -35.290  0.00  0.00    -0.034 C 
ATOM     17  C   UNL     1      44.846 -14.314 -36.455  0.00  0.00    -0.049 C 
ATOM     18  C   UNL     1      44.974 -15.355 -37.553  0.00  0.00    -0.046 C 
ATOM     19  C   UNL     1      45.600 -16.640 -36.989  0.00  0.00    +0.004 C 
ENDROOT
BRANCH   2  20
ATOM     20  N   UNL     1      46.864 -19.897 -38.601  0.00  0.00    -0.302 N 
ATOM     21  C   UNL     1      46.115 -20.870 -39.223  0.00  0.00    +0.244 C 
ATOM     22  O   UNL     1      44.909 -20.992 -39.029  0.00  0.00    -0.270 OA
ATOM     23  H   UNL     1      47.809 -19.794 -38.860  0.00  0.00    +0.000 HD
BRANCH  21  24
ATOM     24  C   UNL     1      46.816 -21.767 -40.185  0.00  0.00    +0.037 A 
ATOM     25  C   UNL     1      48.154 -22.151 -40.021  0.00  0.00    -0.050 A 
ATOM     26  C   UNL     1      48.753 -23.010 -40.947  0.00  0.00    -0.061 A 
ATOM     27  C   UNL     1      48.022 -23.491 -42.033  0.00  0.00    -0.062 A 
ATOM     28  C   UNL     1      46.689 -23.121 -42.195  0.00  0.00    -0.061 A 
ATOM     29  C   UNL     1      46.086 -22.266 -41.272  0.00  0.00    -0.050 A 
ENDBRANCH  21  24
ENDBRANCH   2  20
BRANCH   3  30
ATOM     30  O   UNL     1      45.612 -20.444 -35.716  0.00  0.00    -0.390 OA
ATOM     31  H   UNL     1      46.494 -20.786 -35.929  0.00  0.00    +0.000 HD
ENDBRANCH   3  30
BRANCH  12  32
ATOM     32  C   UNL     1      41.723 -13.550 -31.314  0.00  0.00    +0.010 C 
ATOM     33  C   UNL     1      41.997 -12.157 -30.711  0.00  0.00    -0.049 C 
BRANCH  32  34
ATOM     34  N   UNL     1      40.283 -13.844 -31.462  0.00  0.00    -0.305 N 
ATOM     35  C   UNL     1      39.956 -14.802 -32.516  0.00  0.00    -0.013 C 
ATOM     36  C   UNL     1      39.477 -12.631 -31.605  0.00  0.00    -0.013 C 
ATOM     37  H   UNL     1      40.039 -14.299 -30.583  0.00  0.00    +0.000 HD
ENDBRANCH  32  34
ENDBRANCH  12  32
BRANCH   1  38
ATOM     38  O   UNL     1      44.746 -17.736 -39.002  0.00  0.00    -0.459 OA
BRANCH  38  40
ATOM     39  C   UNL     1      46.236 -16.984 -40.649  0.00  0.00    +0.033 C 
ATOM     40  C   UNL     1      44.955 -17.696 -40.344  0.00  0.00    +0.304 C 
ATOM     41  O   UNL     1      44.194 -18.148 -41.189  0.00  0.00    -0.251 OA
ENDBRANCH  38  40
ENDBRANCH   1  38
TORSDOF 7
ENDMDL
MODEL 20
REMARK VINA RESULT:    -6.007     21.023     23.312
REMARK INTER + INTRA:          -9.992
REMARK INTER:                  -8.641
REMARK INTRA:                  -1.351
REMARK UNBOUND:                -1.702
REMARK  Name = cpd189.pdb
REMARK  13 active torsions:
REMARK  status: ('A' for Active; 'I' for Inactive)
REMARK    1  A    between atoms: C_1  and  C_2
REMARK    2  A    between atoms: C_2  and  O_4
REMARK    3  A    between atoms: O_4  and  C_5
REMARK    4  A    between atoms: C_6  and  N_7
REMARK    5  A    between atoms: C_8  and  C_10
REMARK    6  A    between atoms: C_16  and  O_17
REMARK    7  A    between atoms: C_19  and  C_20
REMARK    8  A    between atoms: C_24  and  C_25
REMARK    9  A    between atoms: C_26  and  C_27
REMARK   10  A    between atoms: C_27  and  C_28
REMARK   11  A    between atoms: C_27  and  N_29
REMARK   12  A    between atoms: N_29  and  C_30
REMARK   13  A    between atoms: N_29  and  C_31
REMARK                            x       y       z     vdW  Elec       q    Type
REMARK                         _______ _______ _______ _____ _____    ______ ____
ROOT
ATOM      1  C   UNL     1      43.510 -19.242 -38.890  0.00  0.00    +0.127 C 
ATOM      2  C   UNL     1      42.326 -18.711 -38.057  0.00  0.00    +0.086 C 
ATOM      3  C   UNL     1      41.457 -17.752 -38.903  0.00  0.00    +0.077 C 
ATOM      4  C   UNL     1      42.231 -17.046 -40.030  0.00  0.00    -0.019 C 
ATOM      5  C   UNL     1      43.734 -16.741 -39.721  0.00  0.00    -0.020 C 
ATOM      6  C   UNL     1      43.784 -15.739 -38.544  0.00  0.00    -0.059 C 
ATOM      7  C   UNL     1      44.404 -16.130 -41.024  0.00  0.00    -0.032 C 
ATOM      8  C   UNL     1      43.890 -14.756 -41.499  0.00  0.00    -0.049 C 
ATOM      9  C   UNL     1      44.566 -13.549 -40.858  0.00  0.00    -0.047 C 
ATOM     10  C   UNL     1      46.103 -13.549 -40.909  0.00  0.00    -0.025 C 
ATOM     11  C   UNL     1      46.595 -12.454 -39.928  0.00  0.00    -0.059 C 
ATOM     12  C   UNL     1      46.728 -13.357 -42.333  0.00  0.00    -0.020 C 
ATOM     13  C   UNL     1      48.136 -13.986 -42.202  0.00  0.00    -0.048 C 
ATOM     14  C   UNL     1      48.134 -14.864 -40.953  0.00  0.00    -0.049 C 
ATOM     15  C   UNL     1      46.674 -14.930 -40.481  0.00  0.00    -0.032 C 
ATOM     16  C   UNL     1      45.952 -16.166 -41.085  0.00  0.00    -0.034 C 
ATOM     17  C   UNL     1      46.547 -17.470 -40.521  0.00  0.00    -0.049 C 
ATOM     18  C   UNL     1      45.507 -18.553 -40.292  0.00  0.00    -0.046 C 
ATOM     19  C   UNL     1      44.462 -18.072 -39.274  0.00  0.00    +0.004 C 
ENDROOT
BRANCH   2  20
ATOM     20  N   UNL     1      41.543 -19.801 -37.458  0.00  0.00    -0.302 N 
ATOM     21  C   UNL     1      40.961 -19.707 -36.214  0.00  0.00    +0.244 C 
ATOM     22  O   UNL     1      40.972 -18.668 -35.562  0.00  0.00    -0.270 OA
ATOM     23  H   UNL     1      41.429 -20.635 -37.969  0.00  0.00    +0.000 HD
BRANCH  21  24
ATOM     24  C   UNL     1      40.273 -20.919 -35.685  0.00  0.00    +0.037 A 
ATOM     25  C   UNL     1      39.742 -21.911 -36.520  0.00  0.00    -0.050 A 
ATOM     26  C   UNL     1      39.124 -23.035 -35.965  0.00  0.00    -0.061 A 
ATOM     27  C   UNL     1      39.038 -23.177 -34.580  0.00  0.00    -0.062 A 
ATOM     28  C   UNL     1      39.575 -22.200 -33.744  0.00  0.00    -0.061 A 
ATOM     29  C   UNL     1      40.195 -21.077 -34.294  0.00  0.00    -0.050 A 
ENDBRANCH  21  24
ENDBRANCH   2  20
BRANCH   3  30
ATOM     30  O   UNL     1      40.873 -16.741 -38.074  0.00  0.00    -0.390 OA
ATOM     31  H   UNL     1      41.573 -16.271 -37.596  0.00  0.00    +0.000 HD
ENDBRANCH   3  30
BRANCH  12  32
ATOM     32  C   UNL     1      46.802 -11.909 -42.924  0.00  0.00    +0.010 C 
ATOM     33  C   UNL     1      48.031 -11.745 -43.842  0.00  0.00    -0.049 C 
BRANCH  32  34
ATOM     34  N   UNL     1      45.537 -11.513 -43.574  0.00  0.00    -0.305 N 
ATOM     35  C   UNL     1      45.556 -11.556 -45.035  0.00  0.00    -0.013 C 
ATOM     36  C   UNL     1      45.050 -10.215 -43.107  0.00  0.00    -0.013 C 
ATOM     37  H   UNL     1      44.879 -12.236 -43.281  0.00  0.00    +0.000 HD
ENDBRANCH  32  34
ENDBRANCH  12  32
BRANCH   1  38
ATOM     38  O   UNL     1      43.062 -19.898 -40.103  0.00  0.00    -0.459 OA
BRANCH  38  40
ATOM     39  C   UNL     1      41.997 -21.979 -40.277  0.00  0.00    +0.033 C 
ATOM     40  C   UNL     1      43.293 -21.232 -40.212  0.00  0.00    +0.304 C 
ATOM     41  O   UNL     1      44.399 -21.758 -40.225  0.00  0.00    -0.251 OA
ENDBRANCH  38  40
ENDBRANCH   1  38
TORSDOF 7
ENDMDL
