@<TRIPOS>MOLECULE
*****
 38 42 0 0 0
SMALL
GASTEIGER

@<TRIPOS>ATOM
      1 C           2.0653   -2.5494    0.0000 C.3     1  UNL1        0.1212
      2 C           1.7688   -1.6375    0.0000 C.2     1  UNL1        0.3175
      3 O           2.4102   -0.9247    0.0000 O.2     1  UNL1       -0.2501
      4 O           0.8307   -1.4384    0.0000 O.3     1  UNL1       -0.4504
      5 C           0.8305   -0.4795    0.0000 C.3     1  UNL1        0.1910
      6 C           1.6606    0.0005    0.0000 C.3     1  UNL1        0.1656
      7 N           3.3220   -0.9577    0.0000 N.am    1  UNL1       -0.1971
      8 C           3.9633   -0.2448    0.0000 C.2     1  UNL1        0.2649
      9 O           3.6666    0.6670    0.0000 O.2     1  UNL1       -0.2684
     10 C           4.9014   -0.4438    0.0000 C.ar    1  UNL1        0.0550
     11 C           5.1981   -1.3557    0.0000 C.ar    1  UNL1        0.0046
     12 C           6.1361   -1.5547    0.0000 C.ar    1  UNL1        0.0001
     13 C           6.7775   -0.8418    0.0000 C.ar    1  UNL1        0.0000
     14 C           6.4808    0.0701    0.0000 C.ar    1  UNL1        0.0001
     15 C           5.5427    0.2691    0.0000 C.ar    1  UNL1        0.0046
     16 C           1.6604    0.9599    0.0000 C.3     1  UNL1        0.1754
     17 O           2.5087    1.4498    0.0000 O.3     1  UNL1       -0.2212
     18 C           0.8299    1.4393    0.0000 C.3     1  UNL1        0.0349
     19 C          -0.0003    0.9594    0.0000 C.3     1  UNL1        0.0059
     20 C          -0.0006    1.9391    0.0000 C.3     1  UNL1        0.0002
     21 C          -0.8313    1.4389    0.0000 C.3     1  UNL1        0.0002
     22 C          -0.8316    2.3977    0.0000 C.3     1  UNL1        0.0000
     23 C          -1.6626    2.8771    0.0000 C.3     1  UNL1        0.0000
     24 C          -2.4934    2.3972    0.0000 C.3     1  UNL1        0.0012
     25 C          -2.4937    3.3769    0.0000 C.3     1  UNL1        0.0000
     26 C          -3.3244    2.8767    0.0000 C.3     1  UNL1        0.0147
     27 C          -3.3247    3.8351    0.0000 C.3     1  UNL1        0.0576
     28 C          -4.2831    3.8348    0.0000 C.3     1  UNL1        0.0173
     29 N          -2.8457    4.6653    0.0000 N.3     1  UNL1       -0.2716
     30 C          -3.3252    5.4951    0.0000 C.3     1  UNL1        0.0896
     31 C          -1.8873    4.6655    0.0000 C.3     1  UNL1        0.0896
     32 C          -4.1540    2.3967    0.0000 C.3     1  UNL1        0.0013
     33 C          -4.1537    1.4379    0.0000 C.3     1  UNL1        0.0000
     34 C          -2.4931    1.4384    0.0000 C.3     1  UNL1        0.0000
     35 C          -1.6621    0.9589    0.0000 C.3     1  UNL1        0.0000
     36 C          -1.6618   -0.0005    0.0000 C.3     1  UNL1        0.0001
     37 C          -0.8308   -0.4799    0.0000 C.3     1  UNL1        0.0036
     38 C           0.0000   -0.0000    0.0000 C.3     1  UNL1        0.0421
@<TRIPOS>BOND
     1     1     2    1
     2     2     3    2
     3     2     4    1
     4     4     5    1
     5     5     6    1
     6     6     7    1
     7     7     8   am
     8     8     9    2
     9     8    10    1
    10    10    11   ar
    11    11    12   ar
    12    12    13   ar
    13    13    14   ar
    14    14    15   ar
    15    10    15   ar
    16     6    16    1
    17    16    17    1
    18    16    18    1
    19    18    19    1
    20    19    20    1
    21    19    21    1
    22    21    22    1
    23    22    23    1
    24    23    24    1
    25    24    25    1
    26    24    26    1
    27    26    27    1
    28    27    28    1
    29    27    29    1
    30    29    30    1
    31    29    31    1
    32    26    32    1
    33    32    33    1
    34    33    34    1
    35    24    34    1
    36    34    35    1
    37    21    35    1
    38    35    36    1
    39    36    37    1
    40    37    38    1
    41     5    38    1
    42    19    38    1
