REMARK  Name = cpd37.pdb
REMARK  16 active torsions:
REMARK  status: ('A' for Active; 'I' for Inactive)
REMARK    1  A    between atoms: C_1  and  C_2
REMARK    2  A    between atoms: C_6  and  N_7
REMARK    3  A    between atoms: N_7  and  C_8
REMARK    4  A    between atoms: C_13  and  C_14
REMARK    5  A    between atoms: N_16  and  C_17
REMARK    6  A    between atoms: C_17  and  C_18
REMARK    7  A    between atoms: N_20  and  C_21
REMARK    8  A    between atoms: C_21  and  C_22
REMARK    9  A    between atoms: C_22  and  C_23
REMARK   10  A    between atoms: C_23  and  C_24
REMARK   11  A    between atoms: C_24  and  C_25
REMARK   12  A    between atoms: C_25  and  C_26
REMARK   13  A    between atoms: C_26  and  C_27
REMARK   14  A    between atoms: C_27  and  N_28
REMARK   15  A    between atoms: N_28  and  C_29
REMARK   16  A    between atoms: C_43  and  C_44
REMARK                            x       y       z     vdW  Elec       q    Type
REMARK                         _______ _______ _______ _____ _____    ______ ____
ROOT
ATOM      1  C   UNL A   1      -3.224  -3.556   1.149  0.00  0.00    +0.230 C 
ATOM      2  O   UNL A   1      -3.819  -3.428   2.216  0.00  0.00    -0.274 OA
ATOM      3  N   UNL A   1      -3.551  -4.513   0.211  0.00  0.00    -0.314 N 
ATOM      4  H   UNL A   1      -2.939  -4.659  -0.546  0.00  0.00    +0.000 HD
ENDROOT
BRANCH   1   5
ATOM      5  C   UNL A   1      -1.974  -2.727   0.815  0.00  0.00    +0.088 C 
BRANCH   5   8
ATOM      6  C   UNL A   1      -0.894  -3.390  -1.364  0.00  0.00    +0.246 C 
ATOM      7  O   UNL A   1      -1.211  -3.747  -2.494  0.00  0.00    -0.270 OA
ATOM      8  N   UNL A   1      -1.769  -2.623  -0.633  0.00  0.00    -0.303 N 
ATOM      9  H   UNL A   1      -2.300  -1.951  -1.119  0.00  0.00    +0.000 HD
BRANCH   6  15
ATOM     10  C   UNL A   1       1.273  -2.872  -0.157  0.00  0.00    +0.044 A 
ATOM     11  C   UNL A   1       2.472  -3.369   0.382  0.00  0.00    -0.040 A 
ATOM     12  C   UNL A   1       2.827  -4.715   0.247  0.00  0.00    -0.060 A 
ATOM     13  C   UNL A   1       1.983  -5.597  -0.421  0.00  0.00    -0.061 A 
ATOM     14  C   UNL A   1       0.773  -5.139  -0.935  0.00  0.00    -0.048 A 
ATOM     15  C   UNL A   1       0.404  -3.794  -0.778  0.00  0.00    +0.058 A 
BRANCH  10  16
ATOM     16  N   UNL A   1       0.933  -1.504   0.004  0.00  0.00    -0.314 N 
ATOM     17  H   UNL A   1      -0.017  -1.309   0.173  0.00  0.00    +0.000 HD
BRANCH  16  23
ATOM     18  C   UNL A   1       1.939   3.249   1.203  0.00  0.00    -0.039 C 
ATOM     19  C   UNL A   1       2.260   1.960   0.494  0.00  0.00    -0.046 A 
ATOM     20  C   UNL A   1       3.391   1.915  -0.335  0.00  0.00    -0.058 A 
ATOM     21  C   UNL A   1       3.719   0.753  -1.027  0.00  0.00    -0.060 A 
ATOM     22  C   UNL A   1       2.922  -0.380  -0.897  0.00  0.00    -0.040 A 
ATOM     23  C   UNL A   1       1.804  -0.381  -0.050  0.00  0.00    +0.035 A 
ATOM     24  C   UNL A   1       1.466   0.799   0.655  0.00  0.00    -0.026 A 
ATOM     25  C   UNL A   1       0.240   0.823   1.536  0.00  0.00    -0.038 C 
ENDBRANCH  16  23
ENDBRANCH  10  16
ENDBRANCH   6  15
ENDBRANCH   5   8
ENDBRANCH   1   5
BRANCH   3  26
ATOM     26  C   UNL A   1      -4.757  -5.313   0.293  0.00  0.00    +0.012 C 
BRANCH  26  27
ATOM     27  C   UNL A   1      -5.863  -4.681  -0.547  0.00  0.00    -0.037 C 
BRANCH  27  28
ATOM     28  C   UNL A   1      -7.139  -5.524  -0.552  0.00  0.00    -0.052 C 
BRANCH  28  29
ATOM     29  C   UNL A   1      -8.182  -4.906  -1.486  0.00  0.00    -0.053 C 
BRANCH  29  30
ATOM     30  C   UNL A   1      -9.466  -5.729  -1.610  0.00  0.00    -0.052 C 
BRANCH  30  31
ATOM     31  C   UNL A   1     -10.288  -5.768  -0.321  0.00  0.00    -0.037 C 
BRANCH  31  32
ATOM     32  C   UNL A   1     -11.671  -6.375  -0.571  0.00  0.00    +0.009 C 
BRANCH  32  33
ATOM     33  N   UNL A   1     -12.430  -6.388   0.688  0.00  0.00    -0.343 N 
ATOM     34  H   UNL A   1     -12.058  -6.140   1.565  0.00  0.00    +0.000 HD
BRANCH  33  35
ATOM     35  C   UNL A   1     -13.779  -6.809   0.471  0.00  0.00    +0.041 A 
ATOM     36  C   UNL A   1     -14.088  -8.177   0.603  0.00  0.00    -0.005 A 
ATOM     37  C   UNL A   1     -15.402  -8.571   0.347  0.00  0.00    +0.047 A 
ATOM     38  N   UNL A   1     -16.367  -7.713  -0.063  0.00  0.00    -0.251 NA
ATOM     39  C   UNL A   1     -16.067  -6.416  -0.206  0.00  0.00    +0.073 A 
ATOM     40  C   UNL A   1     -17.078  -5.561  -0.625  0.00  0.00    -0.036 A 
ATOM     41  C   UNL A   1     -16.864  -4.193  -0.808  0.00  0.00    -0.060 A 
ATOM     42  C   UNL A   1     -15.608  -3.660  -0.568  0.00  0.00    -0.061 A 
ATOM     43  C   UNL A   1     -14.577  -4.500  -0.146  0.00  0.00    -0.051 A 
ATOM     44  C   UNL A   1     -14.783  -5.892   0.043  0.00  0.00    +0.021 A 
ATOM     45  C   UNL A   1     -15.832 -10.011   0.455  0.00  0.00    -0.010 C 
ATOM     46  C   UNL A   1     -14.911 -10.850   1.333  0.00  0.00    -0.047 C 
ATOM     47  C   UNL A   1     -13.464 -10.627   0.923  0.00  0.00    -0.049 C 
ATOM     48  C   UNL A   1     -13.069  -9.164   1.123  0.00  0.00    -0.024 C 
ENDBRANCH  33  35
ENDBRANCH  32  33
ENDBRANCH  31  32
ENDBRANCH  30  31
ENDBRANCH  29  30
ENDBRANCH  28  29
ENDBRANCH  27  28
ENDBRANCH  26  27
ENDBRANCH   3  26
TORSDOF 14
