MODEL 1
REMARK VINA RESULT:    -6.960      0.000      0.000
REMARK INTER + INTRA:         -17.943
REMARK INTER:                 -12.656
REMARK INTRA:                  -5.287
REMARK UNBOUND:                -5.287
REMARK  Name = cpd37.pdb
REMARK  16 active torsions:
REMARK  status: ('A' for Active; 'I' for Inactive)
REMARK    1  A    between atoms: C_1  and  C_2
REMARK    2  A    between atoms: C_6  and  N_7
REMARK    3  A    between atoms: N_7  and  C_8
REMARK    4  A    between atoms: C_13  and  C_14
REMARK    5  A    between atoms: N_16  and  C_17
REMARK    6  A    between atoms: C_17  and  C_18
REMARK    7  A    between atoms: N_20  and  C_21
REMARK    8  A    between atoms: C_21  and  C_22
REMARK    9  A    between atoms: C_22  and  C_23
REMARK   10  A    between atoms: C_23  and  C_24
REMARK   11  A    between atoms: C_24  and  C_25
REMARK   12  A    between atoms: C_25  and  C_26
REMARK   13  A    between atoms: C_26  and  C_27
REMARK   14  A    between atoms: C_27  and  N_28
REMARK   15  A    between atoms: N_28  and  C_29
REMARK   16  A    between atoms: C_43  and  C_44
REMARK                            x       y       z     vdW  Elec       q    Type
REMARK                         _______ _______ _______ _____ _____    ______ ____
ROOT
ATOM      1  C   UNL A   1      44.766 -17.673 -36.391  0.00  0.00    +0.230 C 
ATOM      2  O   UNL A   1      45.834 -18.237 -36.617  0.00  0.00    -0.274 OA
ATOM      3  N   UNL A   1      43.648 -18.332 -35.923  0.00  0.00    -0.314 N 
ATOM      4  H   UNL A   1      42.789 -17.852 -35.912  0.00  0.00    +0.000 HD
ENDROOT
BRANCH   1   5
ATOM      5  C   UNL A   1      44.547 -16.190 -36.726  0.00  0.00    +0.088 C 
BRANCH   5   8
ATOM      6  C   UNL A   1      43.795 -16.284 -39.130  0.00  0.00    +0.246 C 
ATOM      7  O   UNL A   1      42.895 -16.766 -39.810  0.00  0.00    -0.270 OA
ATOM      8  N   UNL A   1      43.565 -16.021 -37.802  0.00  0.00    -0.303 N 
ATOM      9  H   UNL A   1      42.671 -15.693 -37.551  0.00  0.00    +0.000 HD
BRANCH   6  15
ATOM     10  C   UNL A   1      46.038 -17.034 -40.042  0.00  0.00    +0.044 A 
ATOM     11  C   UNL A   1      47.265 -16.658 -40.615  0.00  0.00    -0.040 A 
ATOM     12  C   UNL A   1      47.600 -15.312 -40.796  0.00  0.00    -0.060 A 
ATOM     13  C   UNL A   1      46.709 -14.312 -40.419  0.00  0.00    -0.061 A 
ATOM     14  C   UNL A   1      45.472 -14.657 -39.880  0.00  0.00    -0.048 A 
ATOM     15  C   UNL A   1      45.124 -16.007 -39.720  0.00  0.00    +0.058 A 
BRANCH  10  16
ATOM     16  N   UNL A   1      45.719 -18.407 -39.879  0.00  0.00    -0.314 N 
ATOM     17  H   UNL A   1      45.707 -18.744 -38.954  0.00  0.00    +0.000 HD
BRANCH  16  23
ATOM     18  C   UNL A   1      46.533 -22.850 -42.033  0.00  0.00    -0.039 C 
ATOM     19  C   UNL A   1      45.860 -21.504 -41.974  0.00  0.00    -0.046 A 
ATOM     20  C   UNL A   1      45.000 -21.138 -43.020  0.00  0.00    -0.058 A 
ATOM     21  C   UNL A   1      44.370 -19.897 -43.022  0.00  0.00    -0.060 A 
ATOM     22  C   UNL A   1      44.589 -19.007 -41.975  0.00  0.00    -0.040 A 
ATOM     23  C   UNL A   1      45.415 -19.354 -40.895  0.00  0.00    +0.035 A 
ATOM     24  C   UNL A   1      46.059 -20.614 -40.891  0.00  0.00    -0.026 A 
ATOM     25  C   UNL A   1      46.984 -20.981 -39.755  0.00  0.00    -0.038 C 
ENDBRANCH  16  23
ENDBRANCH  10  16
ENDBRANCH   6  15
ENDBRANCH   5   8
ENDBRANCH   1   5
BRANCH   3  26
ATOM     26  C   UNL A   1      43.685 -19.700 -35.447  0.00  0.00    +0.012 C 
BRANCH  26  27
ATOM     27  C   UNL A   1      42.857 -20.596 -36.364  0.00  0.00    -0.037 C 
BRANCH  27  28
ATOM     28  C   UNL A   1      43.550 -20.852 -37.703  0.00  0.00    -0.052 C 
BRANCH  28  29
ATOM     29  C   UNL A   1      42.638 -20.443 -38.862  0.00  0.00    -0.053 C 
BRANCH  29  30
ATOM     30  C   UNL A   1      42.527 -21.499 -39.964  0.00  0.00    -0.052 C 
BRANCH  30  31
ATOM     31  C   UNL A   1      41.094 -21.978 -40.201  0.00  0.00    -0.037 C 
BRANCH  31  32
ATOM     32  C   UNL A   1      40.481 -22.534 -38.913  0.00  0.00    +0.009 C 
BRANCH  32  33
ATOM     33  N   UNL A   1      39.163 -21.920 -38.699  0.00  0.00    -0.343 N 
ATOM     34  H   UNL A   1      38.364 -22.115 -39.240  0.00  0.00    +0.000 HD
BRANCH  33  35
ATOM     35  C   UNL A   1      39.194 -21.004 -37.602  0.00  0.00    +0.041 A 
ATOM     36  C   UNL A   1      39.274 -19.625 -37.878  0.00  0.00    -0.005 A 
ATOM     37  C   UNL A   1      39.344 -18.751 -36.792  0.00  0.00    +0.047 A 
ATOM     38  N   UNL A   1      39.386 -19.170 -35.505  0.00  0.00    -0.251 NA
ATOM     39  C   UNL A   1      39.329 -20.482 -35.245  0.00  0.00    +0.073 A 
ATOM     40  C   UNL A   1      39.371 -20.881 -33.915  0.00  0.00    -0.036 A 
ATOM     41  C   UNL A   1      39.322 -22.226 -33.542  0.00  0.00    -0.060 A 
ATOM     42  C   UNL A   1      39.229 -23.203 -34.520  0.00  0.00    -0.061 A 
ATOM     43  C   UNL A   1      39.185 -22.826 -35.862  0.00  0.00    -0.051 A 
ATOM     44  C   UNL A   1      39.234 -21.462 -36.253  0.00  0.00    +0.021 A 
ATOM     45  C   UNL A   1      39.438 -17.259 -36.982  0.00  0.00    -0.010 C 
ATOM     46  C   UNL A   1      38.934 -16.792 -38.342  0.00  0.00    -0.047 C 
ATOM     47  C   UNL A   1      39.563 -17.633 -39.441  0.00  0.00    -0.049 C 
ATOM     48  C   UNL A   1      39.162 -19.100 -39.291  0.00  0.00    -0.024 C 
ENDBRANCH  33  35
ENDBRANCH  32  33
ENDBRANCH  31  32
ENDBRANCH  30  31
ENDBRANCH  29  30
ENDBRANCH  28  29
ENDBRANCH  27  28
ENDBRANCH  26  27
ENDBRANCH   3  26
TORSDOF 14
ENDMDL
MODEL 2
REMARK VINA RESULT:    -6.891      2.335      8.026
REMARK INTER + INTRA:         -17.817
REMARK INTER:                 -13.719
REMARK INTRA:                  -4.098
REMARK UNBOUND:                -5.287
REMARK  Name = cpd37.pdb
REMARK  16 active torsions:
REMARK  status: ('A' for Active; 'I' for Inactive)
REMARK    1  A    between atoms: C_1  and  C_2
REMARK    2  A    between atoms: C_6  and  N_7
REMARK    3  A    between atoms: N_7  and  C_8
REMARK    4  A    between atoms: C_13  and  C_14
REMARK    5  A    between atoms: N_16  and  C_17
REMARK    6  A    between atoms: C_17  and  C_18
REMARK    7  A    between atoms: N_20  and  C_21
REMARK    8  A    between atoms: C_21  and  C_22
REMARK    9  A    between atoms: C_22  and  C_23
REMARK   10  A    between atoms: C_23  and  C_24
REMARK   11  A    between atoms: C_24  and  C_25
REMARK   12  A    between atoms: C_25  and  C_26
REMARK   13  A    between atoms: C_26  and  C_27
REMARK   14  A    between atoms: C_27  and  N_28
REMARK   15  A    between atoms: N_28  and  C_29
REMARK   16  A    between atoms: C_43  and  C_44
REMARK                            x       y       z     vdW  Elec       q    Type
REMARK                         _______ _______ _______ _____ _____    ______ ____
ROOT
ATOM      1  C   UNL A   1      42.245 -20.926 -34.204  0.00  0.00    +0.230 C 
ATOM      2  O   UNL A   1      42.374 -21.405 -35.328  0.00  0.00    -0.274 OA
ATOM      3  N   UNL A   1      43.155 -20.051 -33.647  0.00  0.00    -0.314 N 
ATOM      4  H   UNL A   1      43.070 -19.830 -32.691  0.00  0.00    +0.000 HD
ENDROOT
BRANCH   1   5
ATOM      5  C   UNL A   1      41.107 -21.356 -33.266  0.00  0.00    +0.088 C 
BRANCH   5   8
ATOM      6  C   UNL A   1      39.364 -22.487 -34.695  0.00  0.00    +0.246 C 
ATOM      7  O   UNL A   1      39.280 -23.367 -35.544  0.00  0.00    -0.270 OA
ATOM      8  N   UNL A   1      40.395 -22.527 -33.787  0.00  0.00    -0.303 N 
ATOM      9  H   UNL A   1      40.678 -23.412 -33.460  0.00  0.00    +0.000 HD
BRANCH   6  15
ATOM     10  C   UNL A   1      38.124 -20.558 -35.772  0.00  0.00    +0.044 A 
ATOM     11  C   UNL A   1      37.160 -19.545 -35.626  0.00  0.00    -0.040 A 
ATOM     12  C   UNL A   1      36.533 -19.310 -34.398  0.00  0.00    -0.060 A 
ATOM     13  C   UNL A   1      36.848 -20.092 -33.291  0.00  0.00    -0.061 A 
ATOM     14  C   UNL A   1      37.774 -21.124 -33.416  0.00  0.00    -0.048 A 
ATOM     15  C   UNL A   1      38.385 -21.377 -34.654  0.00  0.00    +0.058 A 
BRANCH  10  16
ATOM     16  N   UNL A   1      38.736 -20.781 -37.032  0.00  0.00    -0.314 N 
ATOM     17  H   UNL A   1      38.245 -21.361 -37.658  0.00  0.00    +0.000 HD
BRANCH  16  23
ATOM     18  C   UNL A   1      43.002 -21.413 -39.571  0.00  0.00    -0.039 C 
ATOM     19  C   UNL A   1      42.084 -20.604 -38.694  0.00  0.00    -0.046 A 
ATOM     20  C   UNL A   1      42.527 -19.355 -38.232  0.00  0.00    -0.058 A 
ATOM     21  C   UNL A   1      41.724 -18.578 -37.403  0.00  0.00    -0.060 A 
ATOM     22  C   UNL A   1      40.466 -19.038 -37.027  0.00  0.00    -0.040 A 
ATOM     23  C   UNL A   1      39.977 -20.265 -37.498  0.00  0.00    +0.035 A 
ATOM     24  C   UNL A   1      40.791 -21.060 -38.340  0.00  0.00    -0.026 A 
ATOM     25  C   UNL A   1      40.293 -22.403 -38.818  0.00  0.00    -0.038 C 
ENDBRANCH  16  23
ENDBRANCH  10  16
ENDBRANCH   6  15
ENDBRANCH   5   8
ENDBRANCH   1   5
BRANCH   3  26
ATOM     26  C   UNL A   1      44.229 -19.445 -34.407  0.00  0.00    +0.012 C 
BRANCH  26  27
ATOM     27  C   UNL A   1      44.177 -17.926 -34.270  0.00  0.00    -0.037 C 
BRANCH  27  28
ATOM     28  C   UNL A   1      45.552 -17.282 -34.447  0.00  0.00    -0.052 C 
BRANCH  28  29
ATOM     29  C   UNL A   1      45.843 -17.045 -35.931  0.00  0.00    -0.053 C 
BRANCH  29  30
ATOM     30  C   UNL A   1      47.197 -17.589 -36.391  0.00  0.00    -0.052 C 
BRANCH  30  31
ATOM     31  C   UNL A   1      47.348 -19.097 -36.181  0.00  0.00    -0.037 C 
BRANCH  31  32
ATOM     32  C   UNL A   1      46.904 -19.871 -37.425  0.00  0.00    +0.009 C 
BRANCH  32  33
ATOM     33  N   UNL A   1      47.493 -19.248 -38.619  0.00  0.00    -0.343 N 
ATOM     34  H   UNL A   1      48.296 -18.678 -38.611  0.00  0.00    +0.000 HD
BRANCH  33  35
ATOM     35  C   UNL A   1      46.747 -19.580 -39.793  0.00  0.00    +0.041 A 
ATOM     36  C   UNL A   1      45.755 -18.683 -40.236  0.00  0.00    -0.005 A 
ATOM     37  C   UNL A   1      45.011 -19.045 -41.360  0.00  0.00    +0.047 A 
ATOM     38  N   UNL A   1      45.169 -20.227 -42.004  0.00  0.00    -0.251 NA
ATOM     39  C   UNL A   1      46.099 -21.086 -41.570  0.00  0.00    +0.073 A 
ATOM     40  C   UNL A   1      46.239 -22.287 -42.253  0.00  0.00    -0.036 A 
ATOM     41  C   UNL A   1      47.177 -23.251 -41.875  0.00  0.00    -0.060 A 
ATOM     42  C   UNL A   1      48.000 -23.012 -40.786  0.00  0.00    -0.061 A 
ATOM     43  C   UNL A   1      47.878 -21.812 -40.085  0.00  0.00    -0.051 A 
ATOM     44  C   UNL A   1      46.928 -20.826 -40.460  0.00  0.00    +0.021 A 
ATOM     45  C   UNL A   1      43.924 -18.159 -41.910  0.00  0.00    -0.010 C 
ATOM     46  C   UNL A   1      44.070 -16.700 -41.494  0.00  0.00    -0.047 C 
ATOM     47  C   UNL A   1      44.292 -16.611 -39.993  0.00  0.00    -0.049 C 
ATOM     48  C   UNL A   1      45.585 -17.324 -39.598  0.00  0.00    -0.024 C 
ENDBRANCH  33  35
ENDBRANCH  32  33
ENDBRANCH  31  32
ENDBRANCH  30  31
ENDBRANCH  29  30
ENDBRANCH  28  29
ENDBRANCH  27  28
ENDBRANCH  26  27
ENDBRANCH   3  26
TORSDOF 14
ENDMDL
MODEL 3
REMARK VINA RESULT:    -6.853      0.194      2.766
REMARK INTER + INTRA:         -17.749
REMARK INTER:                 -12.611
REMARK INTRA:                  -5.138
REMARK UNBOUND:                -5.287
REMARK  Name = cpd37.pdb
REMARK  16 active torsions:
REMARK  status: ('A' for Active; 'I' for Inactive)
REMARK    1  A    between atoms: C_1  and  C_2
REMARK    2  A    between atoms: C_6  and  N_7
REMARK    3  A    between atoms: N_7  and  C_8
REMARK    4  A    between atoms: C_13  and  C_14
REMARK    5  A    between atoms: N_16  and  C_17
REMARK    6  A    between atoms: C_17  and  C_18
REMARK    7  A    between atoms: N_20  and  C_21
REMARK    8  A    between atoms: C_21  and  C_22
REMARK    9  A    between atoms: C_22  and  C_23
REMARK   10  A    between atoms: C_23  and  C_24
REMARK   11  A    between atoms: C_24  and  C_25
REMARK   12  A    between atoms: C_25  and  C_26
REMARK   13  A    between atoms: C_26  and  C_27
REMARK   14  A    between atoms: C_27  and  N_28
REMARK   15  A    between atoms: N_28  and  C_29
REMARK   16  A    between atoms: C_43  and  C_44
REMARK                            x       y       z     vdW  Elec       q    Type
REMARK                         _______ _______ _______ _____ _____    ______ ____
ROOT
ATOM      1  C   UNL A   1      44.719 -17.682 -36.355  0.00  0.00    +0.230 C 
ATOM      2  O   UNL A   1      45.772 -18.251 -36.632  0.00  0.00    -0.274 OA
ATOM      3  N   UNL A   1      43.625 -18.332 -35.823  0.00  0.00    -0.314 N 
ATOM      4  H   UNL A   1      42.769 -17.849 -35.772  0.00  0.00    +0.000 HD
ENDROOT
BRANCH   1   5
ATOM      5  C   UNL A   1      44.487 -16.200 -36.691  0.00  0.00    +0.088 C 
BRANCH   5   8
ATOM      6  C   UNL A   1      43.761 -16.289 -39.103  0.00  0.00    +0.246 C 
ATOM      7  O   UNL A   1      42.876 -16.781 -39.796  0.00  0.00    -0.270 OA
ATOM      8  N   UNL A   1      43.512 -16.041 -37.775  0.00  0.00    -0.303 N 
ATOM      9  H   UNL A   1      42.610 -15.733 -37.531  0.00  0.00    +0.000 HD
BRANCH   6  15
ATOM     10  C   UNL A   1      46.033 -16.986 -39.980  0.00  0.00    +0.044 A 
ATOM     11  C   UNL A   1      47.258 -16.582 -40.540  0.00  0.00    -0.040 A 
ATOM     12  C   UNL A   1      47.561 -15.229 -40.726  0.00  0.00    -0.060 A 
ATOM     13  C   UNL A   1      46.640 -14.250 -40.366  0.00  0.00    -0.061 A 
ATOM     14  C   UNL A   1      45.405 -14.624 -39.841  0.00  0.00    -0.048 A 
ATOM     15  C   UNL A   1      45.090 -15.981 -39.678  0.00  0.00    +0.058 A 
BRANCH  10  16
ATOM     16  N   UNL A   1      45.748 -18.366 -39.813  0.00  0.00    -0.314 N 
ATOM     17  H   UNL A   1      45.803 -18.713 -38.894  0.00  0.00    +0.000 HD
BRANCH  16  23
ATOM     18  C   UNL A   1      46.338 -22.859 -41.935  0.00  0.00    -0.039 C 
ATOM     19  C   UNL A   1      45.727 -21.483 -41.882  0.00  0.00    -0.046 A 
ATOM     20  C   UNL A   1      44.874 -21.088 -42.923  0.00  0.00    -0.058 A 
ATOM     21  C   UNL A   1      44.301 -19.820 -42.929  0.00  0.00    -0.060 A 
ATOM     22  C   UNL A   1      44.570 -18.932 -41.893  0.00  0.00    -0.040 A 
ATOM     23  C   UNL A   1      45.391 -19.306 -40.818  0.00  0.00    +0.035 A 
ATOM     24  C   UNL A   1      45.977 -20.595 -40.808  0.00  0.00    -0.026 A 
ATOM     25  C   UNL A   1      46.896 -20.993 -39.679  0.00  0.00    -0.038 C 
ENDBRANCH  16  23
ENDBRANCH  10  16
ENDBRANCH   6  15
ENDBRANCH   5   8
ENDBRANCH   1   5
BRANCH   3  26
ATOM     26  C   UNL A   1      43.682 -19.697 -35.338  0.00  0.00    +0.012 C 
BRANCH  26  27
ATOM     27  C   UNL A   1      42.814 -20.600 -36.210  0.00  0.00    -0.037 C 
BRANCH  27  28
ATOM     28  C   UNL A   1      43.460 -20.889 -37.566  0.00  0.00    -0.052 C 
BRANCH  28  29
ATOM     29  C   UNL A   1      42.557 -20.401 -38.701  0.00  0.00    -0.053 C 
BRANCH  29  30
ATOM     30  C   UNL A   1      42.492 -21.356 -39.894  0.00  0.00    -0.052 C 
BRANCH  30  31
ATOM     31  C   UNL A   1      41.081 -21.870 -40.183  0.00  0.00    -0.037 C 
BRANCH  31  32
ATOM     32  C   UNL A   1      40.465 -22.511 -38.937  0.00  0.00    +0.009 C 
BRANCH  32  33
ATOM     33  N   UNL A   1      39.128 -21.943 -38.709  0.00  0.00    -0.343 N 
ATOM     34  H   UNL A   1      38.317 -22.217 -39.194  0.00  0.00    +0.000 HD
BRANCH  33  35
ATOM     35  C   UNL A   1      39.163 -20.939 -37.692  0.00  0.00    +0.041 A 
ATOM     36  C   UNL A   1      39.159 -21.346 -36.343  0.00  0.00    -0.005 A 
ATOM     37  C   UNL A   1      39.152 -20.349 -35.367  0.00  0.00    +0.047 A 
ATOM     38  N   UNL A   1      39.102 -19.027 -35.657  0.00  0.00    -0.251 NA
ATOM     39  C   UNL A   1      39.087 -18.642 -36.940  0.00  0.00    +0.073 A 
ATOM     40  C   UNL A   1      39.039 -17.280 -37.206  0.00  0.00    -0.036 A 
ATOM     41  C   UNL A   1      39.015 -16.779 -38.509  0.00  0.00    -0.060 A 
ATOM     42  C   UNL A   1      39.041 -17.659 -39.579  0.00  0.00    -0.061 A 
ATOM     43  C   UNL A   1      39.090 -19.032 -39.336  0.00  0.00    -0.051 A 
ATOM     44  C   UNL A   1      39.113 -19.552 -38.015  0.00  0.00    +0.021 A 
ATOM     45  C   UNL A   1      39.141 -20.680 -33.897  0.00  0.00    -0.010 C 
ATOM     46  C   UNL A   1      39.655 -22.083 -33.592  0.00  0.00    -0.047 C 
ATOM     47  C   UNL A   1      38.965 -23.092 -34.497  0.00  0.00    -0.049 C 
ATOM     48  C   UNL A   1      39.283 -22.803 -35.963  0.00  0.00    -0.024 C 
ENDBRANCH  33  35
ENDBRANCH  32  33
ENDBRANCH  31  32
ENDBRANCH  30  31
ENDBRANCH  29  30
ENDBRANCH  28  29
ENDBRANCH  27  28
ENDBRANCH  26  27
ENDBRANCH   3  26
TORSDOF 14
ENDMDL
MODEL 4
REMARK VINA RESULT:    -6.679     18.056     22.599
REMARK INTER + INTRA:         -17.432
REMARK INTER:                 -12.254
REMARK INTRA:                  -5.178
REMARK UNBOUND:                -5.287
REMARK  Name = cpd37.pdb
REMARK  16 active torsions:
REMARK  status: ('A' for Active; 'I' for Inactive)
REMARK    1  A    between atoms: C_1  and  C_2
REMARK    2  A    between atoms: C_6  and  N_7
REMARK    3  A    between atoms: N_7  and  C_8
REMARK    4  A    between atoms: C_13  and  C_14
REMARK    5  A    between atoms: N_16  and  C_17
REMARK    6  A    between atoms: C_17  and  C_18
REMARK    7  A    between atoms: N_20  and  C_21
REMARK    8  A    between atoms: C_21  and  C_22
REMARK    9  A    between atoms: C_22  and  C_23
REMARK   10  A    between atoms: C_23  and  C_24
REMARK   11  A    between atoms: C_24  and  C_25
REMARK   12  A    between atoms: C_25  and  C_26
REMARK   13  A    between atoms: C_26  and  C_27
REMARK   14  A    between atoms: C_27  and  N_28
REMARK   15  A    between atoms: N_28  and  C_29
REMARK   16  A    between atoms: C_43  and  C_44
REMARK                            x       y       z     vdW  Elec       q    Type
REMARK                         _______ _______ _______ _____ _____    ______ ____
ROOT
ATOM      1  C   UNL A   1      31.226 -37.293 -30.980  0.00  0.00    +0.230 C 
ATOM      2  O   UNL A   1      30.156 -37.624 -31.485  0.00  0.00    -0.274 OA
ATOM      3  N   UNL A   1      31.321 -36.665 -29.755  0.00  0.00    -0.314 N 
ATOM      4  H   UNL A   1      32.191 -36.292 -29.484  0.00  0.00    +0.000 HD
ENDROOT
BRANCH   1   5
ATOM      5  C   UNL A   1      32.557 -37.448 -31.731  0.00  0.00    +0.088 C 
BRANCH   5   8
ATOM      6  C   UNL A   1      33.422 -35.532 -33.122  0.00  0.00    +0.246 C 
ATOM      7  O   UNL A   1      33.892 -35.323 -34.236  0.00  0.00    -0.270 OA
ATOM      8  N   UNL A   1      32.595 -36.613 -32.936  0.00  0.00    -0.303 N 
ATOM      9  H   UNL A   1      31.979 -36.846 -33.668  0.00  0.00    +0.000 HD
BRANCH   6  15
ATOM     10  C   UNL A   1      35.015 -34.675 -31.348  0.00  0.00    +0.044 A 
ATOM     11  C   UNL A   1      35.228 -33.779 -30.286  0.00  0.00    -0.040 A 
ATOM     12  C   UNL A   1      34.207 -32.941 -29.826  0.00  0.00    -0.060 A 
ATOM     13  C   UNL A   1      32.953 -32.972 -30.427  0.00  0.00    -0.061 A 
ATOM     14  C   UNL A   1      32.724 -33.825 -31.503  0.00  0.00    -0.048 A 
ATOM     15  C   UNL A   1      33.755 -34.649 -31.982  0.00  0.00    +0.058 A 
BRANCH  10  16
ATOM     16  N   UNL A   1      36.072 -35.506 -31.801  0.00  0.00    -0.314 N 
ATOM     17  H   UNL A   1      36.089 -35.700 -32.766  0.00  0.00    +0.000 HD
BRANCH  16  23
ATOM     18  C   UNL A   1      40.943 -36.357 -31.034  0.00  0.00    -0.039 C 
ATOM     19  C   UNL A   1      39.489 -36.548 -30.690  0.00  0.00    -0.046 A 
ATOM     20  C   UNL A   1      39.157 -37.425 -29.646  0.00  0.00    -0.058 A 
ATOM     21  C   UNL A   1      37.828 -37.651 -29.304  0.00  0.00    -0.060 A 
ATOM     22  C   UNL A   1      36.812 -37.001 -29.999  0.00  0.00    -0.040 A 
ATOM     23  C   UNL A   1      37.109 -36.091 -31.024  0.00  0.00    +0.035 A 
ATOM     24  C   UNL A   1      38.461 -35.860 -31.377  0.00  0.00    -0.026 A 
ATOM     25  C   UNL A   1      38.791 -34.916 -32.508  0.00  0.00    -0.038 C 
ENDBRANCH  16  23
ENDBRANCH  10  16
ENDBRANCH   6  15
ENDBRANCH   5   8
ENDBRANCH   1   5
BRANCH   3  26
ATOM     26  C   UNL A   1      30.196 -36.531 -28.852  0.00  0.00    +0.012 C 
BRANCH  26  27
ATOM     27  C   UNL A   1      30.658 -35.936 -27.525  0.00  0.00    -0.037 C 
BRANCH  27  28
ATOM     28  C   UNL A   1      32.042 -35.293 -27.629  0.00  0.00    -0.052 C 
BRANCH  28  29
ATOM     29  C   UNL A   1      33.045 -36.044 -26.751  0.00  0.00    -0.053 C 
BRANCH  29  30
ATOM     30  C   UNL A   1      34.224 -36.636 -27.526  0.00  0.00    -0.052 C 
BRANCH  30  31
ATOM     31  C   UNL A   1      35.038 -37.644 -26.713  0.00  0.00    -0.037 C 
BRANCH  31  32
ATOM     32  C   UNL A   1      34.124 -38.528 -25.861  0.00  0.00    +0.009 C 
BRANCH  32  33
ATOM     33  N   UNL A   1      34.238 -39.922 -26.314  0.00  0.00    -0.343 N 
ATOM     34  H   UNL A   1      34.803 -40.603 -25.883  0.00  0.00    +0.000 HD
BRANCH  33  35
ATOM     35  C   UNL A   1      33.420 -40.159 -27.463  0.00  0.00    +0.041 A 
ATOM     36  C   UNL A   1      34.050 -40.427 -28.694  0.00  0.00    -0.005 A 
ATOM     37  C   UNL A   1      33.233 -40.615 -29.811  0.00  0.00    +0.047 A 
ATOM     38  N   UNL A   1      31.884 -40.503 -29.770  0.00  0.00    -0.251 NA
ATOM     39  C   UNL A   1      31.288 -40.229 -28.602  0.00  0.00    +0.073 A 
ATOM     40  C   UNL A   1      29.904 -40.124 -28.592  0.00  0.00    -0.036 A 
ATOM     41  C   UNL A   1      29.190 -39.837 -27.426  0.00  0.00    -0.060 A 
ATOM     42  C   UNL A   1      29.874 -39.648 -26.236  0.00  0.00    -0.061 A 
ATOM     43  C   UNL A   1      31.266 -39.749 -26.222  0.00  0.00    -0.051 A 
ATOM     44  C   UNL A   1      32.001 -40.040 -27.401  0.00  0.00    +0.021 A 
ATOM     45  C   UNL A   1      33.809 -40.901 -31.173  0.00  0.00    -0.010 C 
ATOM     46  C   UNL A   1      35.223 -41.470 -31.122  0.00  0.00    -0.047 C 
ATOM     47  C   UNL A   1      36.089 -40.615 -30.211  0.00  0.00    -0.049 C 
ATOM     48  C   UNL A   1      35.544 -40.630 -28.783  0.00  0.00    -0.024 C 
ENDBRANCH  33  35
ENDBRANCH  32  33
ENDBRANCH  31  32
ENDBRANCH  30  31
ENDBRANCH  29  30
ENDBRANCH  28  29
ENDBRANCH  27  28
ENDBRANCH  26  27
ENDBRANCH   3  26
TORSDOF 14
ENDMDL
MODEL 5
REMARK VINA RESULT:    -6.615      2.160      5.179
REMARK INTER + INTRA:         -17.317
REMARK INTER:                 -11.472
REMARK INTRA:                  -5.844
REMARK UNBOUND:                -5.287
REMARK  Name = cpd37.pdb
REMARK  16 active torsions:
REMARK  status: ('A' for Active; 'I' for Inactive)
REMARK    1  A    between atoms: C_1  and  C_2
REMARK    2  A    between atoms: C_6  and  N_7
REMARK    3  A    between atoms: N_7  and  C_8
REMARK    4  A    between atoms: C_13  and  C_14
REMARK    5  A    between atoms: N_16  and  C_17
REMARK    6  A    between atoms: C_17  and  C_18
REMARK    7  A    between atoms: N_20  and  C_21
REMARK    8  A    between atoms: C_21  and  C_22
REMARK    9  A    between atoms: C_22  and  C_23
REMARK   10  A    between atoms: C_23  and  C_24
REMARK   11  A    between atoms: C_24  and  C_25
REMARK   12  A    between atoms: C_25  and  C_26
REMARK   13  A    between atoms: C_26  and  C_27
REMARK   14  A    between atoms: C_27  and  N_28
REMARK   15  A    between atoms: N_28  and  C_29
REMARK   16  A    between atoms: C_43  and  C_44
REMARK                            x       y       z     vdW  Elec       q    Type
REMARK                         _______ _______ _______ _____ _____    ______ ____
ROOT
ATOM      1  C   UNL A   1      44.747 -19.272 -35.221  0.00  0.00    +0.230 C 
ATOM      2  O   UNL A   1      45.452 -18.746 -34.363  0.00  0.00    -0.274 OA
ATOM      3  N   UNL A   1      43.369 -19.280 -35.168  0.00  0.00    -0.314 N 
ATOM      4  H   UNL A   1      42.876 -19.849 -35.802  0.00  0.00    +0.000 HD
ENDROOT
BRANCH   1   5
ATOM      5  C   UNL A   1      45.352 -20.078 -36.382  0.00  0.00    +0.088 C 
BRANCH   5   8
ATOM      6  C   UNL A   1      46.722 -19.108 -38.262  0.00  0.00    +0.246 C 
ATOM      7  O   UNL A   1      47.295 -18.065 -38.560  0.00  0.00    -0.270 OA
ATOM      8  N   UNL A   1      46.537 -19.416 -36.936  0.00  0.00    -0.303 N 
ATOM      9  H   UNL A   1      47.256 -19.173 -36.308  0.00  0.00    +0.000 HD
BRANCH   6  15
ATOM     10  C   UNL A   1      45.255 -19.616 -40.265  0.00  0.00    +0.044 A 
ATOM     11  C   UNL A   1      44.857 -20.559 -41.228  0.00  0.00    -0.040 A 
ATOM     12  C   UNL A   1      45.338 -21.872 -41.202  0.00  0.00    -0.060 A 
ATOM     13  C   UNL A   1      46.238 -22.267 -40.217  0.00  0.00    -0.061 A 
ATOM     14  C   UNL A   1      46.676 -21.344 -39.272  0.00  0.00    -0.048 A 
ATOM     15  C   UNL A   1      46.214 -20.020 -39.312  0.00  0.00    +0.058 A 
BRANCH  10  16
ATOM     16  N   UNL A   1      44.759 -18.288 -40.321  0.00  0.00    -0.314 N 
ATOM     17  H   UNL A   1      45.348 -17.621 -40.744  0.00  0.00    +0.000 HD
BRANCH  16  23
ATOM     18  C   UNL A   1      41.042 -14.944 -40.532  0.00  0.00    -0.039 C 
ATOM     19  C   UNL A   1      41.727 -16.134 -39.913  0.00  0.00    -0.046 A 
ATOM     20  C   UNL A   1      41.169 -16.702 -38.758  0.00  0.00    -0.058 A 
ATOM     21  C   UNL A   1      41.775 -17.791 -38.138  0.00  0.00    -0.060 A 
ATOM     22  C   UNL A   1      42.945 -18.327 -38.667  0.00  0.00    -0.040 A 
ATOM     23  C   UNL A   1      43.510 -17.806 -39.840  0.00  0.00    +0.035 A 
ATOM     24  C   UNL A   1      42.898 -16.698 -40.473  0.00  0.00    -0.026 A 
ATOM     25  C   UNL A   1      43.522 -16.101 -41.711  0.00  0.00    -0.038 C 
ENDBRANCH  16  23
ENDBRANCH  10  16
ENDBRANCH   6  15
ENDBRANCH   5   8
ENDBRANCH   1   5
BRANCH   3  26
ATOM     26  C   UNL A   1      42.616 -18.487 -34.217  0.00  0.00    +0.012 C 
BRANCH  26  27
ATOM     27  C   UNL A   1      42.522 -17.042 -34.698  0.00  0.00    -0.037 C 
BRANCH  27  28
ATOM     28  C   UNL A   1      41.147 -16.430 -34.428  0.00  0.00    -0.052 C 
BRANCH  28  29
ATOM     29  C   UNL A   1      40.042 -17.360 -34.934  0.00  0.00    -0.053 C 
BRANCH  29  30
ATOM     30  C   UNL A   1      38.894 -16.631 -35.637  0.00  0.00    -0.052 C 
BRANCH  30  31
ATOM     31  C   UNL A   1      37.767 -17.563 -36.083  0.00  0.00    -0.037 C 
BRANCH  31  32
ATOM     32  C   UNL A   1      38.212 -18.439 -37.257  0.00  0.00    +0.009 C 
BRANCH  32  33
ATOM     33  N   UNL A   1      37.906 -19.845 -36.957  0.00  0.00    -0.343 N 
ATOM     34  H   UNL A   1      37.001 -20.233 -36.968  0.00  0.00    +0.000 HD
BRANCH  33  35
ATOM     35  C   UNL A   1      39.095 -20.576 -36.646  0.00  0.00    +0.041 A 
ATOM     36  C   UNL A   1      39.388 -20.843 -35.294  0.00  0.00    -0.005 A 
ATOM     37  C   UNL A   1      40.574 -21.521 -35.011  0.00  0.00    +0.047 A 
ATOM     38  N   UNL A   1      41.465 -21.887 -35.965  0.00  0.00    -0.251 NA
ATOM     39  C   UNL A   1      41.193 -21.616 -37.248  0.00  0.00    +0.073 A 
ATOM     40  C   UNL A   1      42.124 -22.005 -38.202  0.00  0.00    -0.036 A 
ATOM     41  C   UNL A   1      41.935 -21.764 -39.564  0.00  0.00    -0.060 A 
ATOM     42  C   UNL A   1      40.787 -21.116 -39.990  0.00  0.00    -0.061 A 
ATOM     43  C   UNL A   1      39.837 -20.716 -39.049  0.00  0.00    -0.051 A 
ATOM     44  C   UNL A   1      40.019 -20.956 -37.662  0.00  0.00    +0.021 A 
ATOM     45  C   UNL A   1      40.981 -21.850 -33.598  0.00  0.00    -0.010 C 
ATOM     46  C   UNL A   1      39.811 -21.862 -32.622  0.00  0.00    -0.047 C 
ATOM     47  C   UNL A   1      38.987 -20.595 -32.790  0.00  0.00    -0.049 C 
ATOM     48  C   UNL A   1      38.399 -20.519 -34.199  0.00  0.00    -0.024 C 
ENDBRANCH  33  35
ENDBRANCH  32  33
ENDBRANCH  31  32
ENDBRANCH  30  31
ENDBRANCH  29  30
ENDBRANCH  28  29
ENDBRANCH  27  28
ENDBRANCH  26  27
ENDBRANCH   3  26
TORSDOF 14
ENDMDL
MODEL 6
REMARK VINA RESULT:    -6.601      2.327      4.478
REMARK INTER + INTRA:         -17.290
REMARK INTER:                 -13.624
REMARK INTRA:                  -3.666
REMARK UNBOUND:                -5.287
REMARK  Name = cpd37.pdb
REMARK  16 active torsions:
REMARK  status: ('A' for Active; 'I' for Inactive)
REMARK    1  A    between atoms: C_1  and  C_2
REMARK    2  A    between atoms: C_6  and  N_7
REMARK    3  A    between atoms: N_7  and  C_8
REMARK    4  A    between atoms: C_13  and  C_14
REMARK    5  A    between atoms: N_16  and  C_17
REMARK    6  A    between atoms: C_17  and  C_18
REMARK    7  A    between atoms: N_20  and  C_21
REMARK    8  A    between atoms: C_21  and  C_22
REMARK    9  A    between atoms: C_22  and  C_23
REMARK   10  A    between atoms: C_23  and  C_24
REMARK   11  A    between atoms: C_24  and  C_25
REMARK   12  A    between atoms: C_25  and  C_26
REMARK   13  A    between atoms: C_26  and  C_27
REMARK   14  A    between atoms: C_27  and  N_28
REMARK   15  A    between atoms: N_28  and  C_29
REMARK   16  A    between atoms: C_43  and  C_44
REMARK                            x       y       z     vdW  Elec       q    Type
REMARK                         _______ _______ _______ _____ _____    ______ ____
ROOT
ATOM      1  C   UNL A   1      43.615 -19.177 -34.813  0.00  0.00    +0.230 C 
ATOM      2  O   UNL A   1      42.954 -20.173 -34.533  0.00  0.00    -0.274 OA
ATOM      3  N   UNL A   1      43.326 -18.353 -35.881  0.00  0.00    -0.314 N 
ATOM      4  H   UNL A   1      43.982 -17.667 -36.138  0.00  0.00    +0.000 HD
ENDROOT
BRANCH   1   5
ATOM      5  C   UNL A   1      44.906 -18.823 -34.059  0.00  0.00    +0.088 C 
BRANCH   5   8
ATOM      6  C   UNL A   1      47.130 -19.577 -34.977  0.00  0.00    +0.246 C 
ATOM      7  O   UNL A   1      48.162 -20.120 -34.597  0.00  0.00    -0.270 OA
ATOM      8  N   UNL A   1      45.958 -19.816 -34.299  0.00  0.00    -0.303 N 
ATOM      9  H   UNL A   1      45.814 -20.724 -33.948  0.00  0.00    +0.000 HD
BRANCH   6  15
ATOM     10  C   UNL A   1      47.010 -19.111 -37.465  0.00  0.00    +0.044 A 
ATOM     11  C   UNL A   1      47.015 -18.146 -38.487  0.00  0.00    -0.040 A 
ATOM     12  C   UNL A   1      47.212 -16.790 -38.206  0.00  0.00    -0.060 A 
ATOM     13  C   UNL A   1      47.398 -16.368 -36.893  0.00  0.00    -0.061 A 
ATOM     14  C   UNL A   1      47.364 -17.298 -35.857  0.00  0.00    -0.048 A 
ATOM     15  C   UNL A   1      47.140 -18.655 -36.135  0.00  0.00    +0.058 A 
BRANCH  10  16
ATOM     16  N   UNL A   1      46.797 -20.478 -37.777  0.00  0.00    -0.314 N 
ATOM     17  H   UNL A   1      46.792 -21.103 -37.016  0.00  0.00    +0.000 HD
BRANCH  16  23
ATOM     18  C   UNL A   1      43.745 -21.525 -41.602  0.00  0.00    -0.039 C 
ATOM     19  C   UNL A   1      45.075 -21.609 -40.901  0.00  0.00    -0.046 A 
ATOM     20  C   UNL A   1      46.093 -22.377 -41.485  0.00  0.00    -0.058 A 
ATOM     21  C   UNL A   1      47.333 -22.501 -40.866  0.00  0.00    -0.060 A 
ATOM     22  C   UNL A   1      47.572 -21.857 -39.656  0.00  0.00    -0.040 A 
ATOM     23  C   UNL A   1      46.588 -21.053 -39.061  0.00  0.00    +0.035 A 
ATOM     24  C   UNL A   1      45.325 -20.924 -39.687  0.00  0.00    -0.026 A 
ATOM     25  C   UNL A   1      44.244 -20.096 -39.035  0.00  0.00    -0.038 C 
ENDBRANCH  16  23
ENDBRANCH  10  16
ENDBRANCH   6  15
ENDBRANCH   5   8
ENDBRANCH   1   5
BRANCH   3  26
ATOM     26  C   UNL A   1      42.096 -18.457 -36.642  0.00  0.00    +0.012 C 
BRANCH  26  27
ATOM     27  C   UNL A   1      41.125 -17.358 -36.219  0.00  0.00    -0.037 C 
BRANCH  27  28
ATOM     28  C   UNL A   1      40.453 -17.664 -34.879  0.00  0.00    -0.052 C 
BRANCH  28  29
ATOM     29  C   UNL A   1      39.137 -16.894 -34.755  0.00  0.00    -0.053 C 
BRANCH  29  30
ATOM     30  C   UNL A   1      38.628 -16.322 -36.080  0.00  0.00    -0.052 C 
BRANCH  30  31
ATOM     31  C   UNL A   1      37.450 -17.103 -36.665  0.00  0.00    -0.037 C 
BRANCH  31  32
ATOM     32  C   UNL A   1      37.934 -18.161 -37.660  0.00  0.00    +0.009 C 
BRANCH  32  33
ATOM     33  N   UNL A   1      37.341 -19.461 -37.314  0.00  0.00    -0.343 N 
ATOM     34  H   UNL A   1      36.413 -19.720 -37.514  0.00  0.00    +0.000 HD
BRANCH  33  35
ATOM     35  C   UNL A   1      38.289 -20.298 -36.648  0.00  0.00    +0.041 A 
ATOM     36  C   UNL A   1      38.206 -20.430 -35.248  0.00  0.00    -0.005 A 
ATOM     37  C   UNL A   1      39.167 -21.219 -34.614  0.00  0.00    +0.047 A 
ATOM     38  N   UNL A   1      40.188 -21.817 -35.274  0.00  0.00    -0.251 NA
ATOM     39  C   UNL A   1      40.276 -21.676 -36.603  0.00  0.00    +0.073 A 
ATOM     40  C   UNL A   1      41.332 -22.303 -37.251  0.00  0.00    -0.036 A 
ATOM     41  C   UNL A   1      41.513 -22.212 -38.633  0.00  0.00    -0.060 A 
ATOM     42  C   UNL A   1      40.618 -21.475 -39.392  0.00  0.00    -0.061 A 
ATOM     43  C   UNL A   1      39.550 -20.837 -38.762  0.00  0.00    -0.051 A 
ATOM     44  C   UNL A   1      39.356 -20.922 -37.358  0.00  0.00    +0.021 A 
ATOM     45  C   UNL A   1      39.168 -21.418 -33.121  0.00  0.00    -0.010 C 
ATOM     46  C   UNL A   1      37.813 -21.151 -32.477  0.00  0.00    -0.047 C 
ATOM     47  C   UNL A   1      37.267 -19.817 -32.959  0.00  0.00    -0.049 C 
ATOM     48  C   UNL A   1      37.050 -19.842 -34.472  0.00  0.00    -0.024 C 
ENDBRANCH  33  35
ENDBRANCH  32  33
ENDBRANCH  31  32
ENDBRANCH  30  31
ENDBRANCH  29  30
ENDBRANCH  28  29
ENDBRANCH  27  28
ENDBRANCH  26  27
ENDBRANCH   3  26
TORSDOF 14
ENDMDL
MODEL 7
REMARK VINA RESULT:    -6.578      2.076      4.720
REMARK INTER + INTRA:         -17.249
REMARK INTER:                 -12.731
REMARK INTRA:                  -4.518
REMARK UNBOUND:                -5.287
REMARK  Name = cpd37.pdb
REMARK  16 active torsions:
REMARK  status: ('A' for Active; 'I' for Inactive)
REMARK    1  A    between atoms: C_1  and  C_2
REMARK    2  A    between atoms: C_6  and  N_7
REMARK    3  A    between atoms: N_7  and  C_8
REMARK    4  A    between atoms: C_13  and  C_14
REMARK    5  A    between atoms: N_16  and  C_17
REMARK    6  A    between atoms: C_17  and  C_18
REMARK    7  A    between atoms: N_20  and  C_21
REMARK    8  A    between atoms: C_21  and  C_22
REMARK    9  A    between atoms: C_22  and  C_23
REMARK   10  A    between atoms: C_23  and  C_24
REMARK   11  A    between atoms: C_24  and  C_25
REMARK   12  A    between atoms: C_25  and  C_26
REMARK   13  A    between atoms: C_26  and  C_27
REMARK   14  A    between atoms: C_27  and  N_28
REMARK   15  A    between atoms: N_28  and  C_29
REMARK   16  A    between atoms: C_43  and  C_44
REMARK                            x       y       z     vdW  Elec       q    Type
REMARK                         _______ _______ _______ _____ _____    ______ ____
ROOT
ATOM      1  C   UNL A   1      43.303 -14.991 -39.041  0.00  0.00    +0.230 C 
ATOM      2  O   UNL A   1      42.728 -14.071 -39.616  0.00  0.00    -0.274 OA
ATOM      3  N   UNL A   1      43.135 -15.268 -37.700  0.00  0.00    -0.314 N 
ATOM      4  H   UNL A   1      43.740 -15.917 -37.274  0.00  0.00    +0.000 HD
ENDROOT
BRANCH   1   5
ATOM      5  C   UNL A   1      44.360 -15.852 -39.750  0.00  0.00    +0.088 C 
BRANCH   5   8
ATOM      6  C   UNL A   1      46.874 -15.803 -39.570  0.00  0.00    +0.246 C 
ATOM      7  O   UNL A   1      47.851 -15.443 -40.219  0.00  0.00    -0.270 OA
ATOM      8  N   UNL A   1      45.665 -15.184 -39.780  0.00  0.00    -0.303 N 
ATOM      9  H   UNL A   1      45.675 -14.217 -39.964  0.00  0.00    +0.000 HD
BRANCH   6  15
ATOM     10  C   UNL A   1      47.100 -18.255 -38.973  0.00  0.00    +0.044 A 
ATOM     11  C   UNL A   1      47.215 -19.217 -37.955  0.00  0.00    -0.040 A 
ATOM     12  C   UNL A   1      47.142 -18.858 -36.605  0.00  0.00    -0.060 A 
ATOM     13  C   UNL A   1      46.965 -17.526 -36.244  0.00  0.00    -0.061 A 
ATOM     14  C   UNL A   1      46.883 -16.548 -37.232  0.00  0.00    -0.048 A 
ATOM     15  C   UNL A   1      46.981 -16.904 -38.586  0.00  0.00    +0.058 A 
BRANCH  10  16
ATOM     16  N   UNL A   1      47.189 -18.646 -40.334  0.00  0.00    -0.314 N 
ATOM     17  H   UNL A   1      48.008 -18.380 -40.811  0.00  0.00    +0.000 HD
BRANCH  16  23
ATOM     18  C   UNL A   1      45.868 -22.819 -42.760  0.00  0.00    -0.039 C 
ATOM     19  C   UNL A   1      45.619 -21.400 -42.322  0.00  0.00    -0.046 A 
ATOM     20  C   UNL A   1      44.461 -20.752 -42.778  0.00  0.00    -0.058 A 
ATOM     21  C   UNL A   1      44.195 -19.434 -42.417  0.00  0.00    -0.060 A 
ATOM     22  C   UNL A   1      45.083 -18.748 -41.594  0.00  0.00    -0.040 A 
ATOM     23  C   UNL A   1      46.232 -19.377 -41.091  0.00  0.00    +0.035 A 
ATOM     24  C   UNL A   1      46.506 -20.716 -41.456  0.00  0.00    -0.026 A 
ATOM     25  C   UNL A   1      47.762 -21.389 -40.957  0.00  0.00    -0.038 C 
ENDBRANCH  16  23
ENDBRANCH  10  16
ENDBRANCH   6  15
ENDBRANCH   5   8
ENDBRANCH   1   5
BRANCH   3  26
ATOM     26  C   UNL A   1      42.108 -14.642 -36.892  0.00  0.00    +0.012 C 
BRANCH  26  27
ATOM     27  C   UNL A   1      42.435 -14.804 -35.411  0.00  0.00    -0.037 C 
BRANCH  27  28
ATOM     28  C   UNL A   1      43.676 -15.669 -35.184  0.00  0.00    -0.052 C 
BRANCH  28  29
ATOM     29  C   UNL A   1      43.284 -17.008 -34.553  0.00  0.00    -0.053 C 
BRANCH  29  30
ATOM     30  C   UNL A   1      43.947 -17.271 -33.200  0.00  0.00    -0.052 C 
BRANCH  30  31
ATOM     31  C   UNL A   1      44.094 -18.758 -32.875  0.00  0.00    -0.037 C 
BRANCH  31  32
ATOM     32  C   UNL A   1      44.565 -19.543 -34.102  0.00  0.00    +0.009 C 
BRANCH  32  33
ATOM     33  N   UNL A   1      43.849 -20.826 -34.163  0.00  0.00    -0.343 N 
ATOM     34  H   UNL A   1      44.154 -21.654 -33.727  0.00  0.00    +0.000 HD
BRANCH  33  35
ATOM     35  C   UNL A   1      42.653 -20.711 -34.937  0.00  0.00    +0.041 A 
ATOM     36  C   UNL A   1      41.412 -20.865 -34.289  0.00  0.00    -0.005 A 
ATOM     37  C   UNL A   1      40.259 -20.790 -35.072  0.00  0.00    +0.047 A 
ATOM     38  N   UNL A   1      40.285 -20.625 -36.416  0.00  0.00    -0.251 NA
ATOM     39  C   UNL A   1      41.467 -20.498 -37.034  0.00  0.00    +0.073 A 
ATOM     40  C   UNL A   1      41.460 -20.328 -38.412  0.00  0.00    -0.036 A 
ATOM     41  C   UNL A   1      42.640 -20.190 -39.148  0.00  0.00    -0.060 A 
ATOM     42  C   UNL A   1      43.861 -20.224 -38.494  0.00  0.00    -0.061 A 
ATOM     43  C   UNL A   1      43.891 -20.394 -37.109  0.00  0.00    -0.051 A 
ATOM     44  C   UNL A   1      42.699 -20.535 -36.351  0.00  0.00    +0.021 A 
ATOM     45  C   UNL A   1      38.885 -20.947 -34.474  0.00  0.00    -0.010 C 
ATOM     46  C   UNL A   1      38.844 -20.667 -32.976  0.00  0.00    -0.047 C 
ATOM     47  C   UNL A   1      39.955 -21.436 -32.278  0.00  0.00    -0.049 C 
ATOM     48  C   UNL A   1      41.323 -20.982 -32.785  0.00  0.00    -0.024 C 
ENDBRANCH  33  35
ENDBRANCH  32  33
ENDBRANCH  31  32
ENDBRANCH  30  31
ENDBRANCH  29  30
ENDBRANCH  28  29
ENDBRANCH  27  28
ENDBRANCH  26  27
ENDBRANCH   3  26
TORSDOF 14
ENDMDL
MODEL 8
REMARK VINA RESULT:    -6.578      2.337      6.561
REMARK INTER + INTRA:         -17.249
REMARK INTER:                 -11.428
REMARK INTRA:                  -5.821
REMARK UNBOUND:                -5.287
REMARK  Name = cpd37.pdb
REMARK  16 active torsions:
REMARK  status: ('A' for Active; 'I' for Inactive)
REMARK    1  A    between atoms: C_1  and  C_2
REMARK    2  A    between atoms: C_6  and  N_7
REMARK    3  A    between atoms: N_7  and  C_8
REMARK    4  A    between atoms: C_13  and  C_14
REMARK    5  A    between atoms: N_16  and  C_17
REMARK    6  A    between atoms: C_17  and  C_18
REMARK    7  A    between atoms: N_20  and  C_21
REMARK    8  A    between atoms: C_21  and  C_22
REMARK    9  A    between atoms: C_22  and  C_23
REMARK   10  A    between atoms: C_23  and  C_24
REMARK   11  A    between atoms: C_24  and  C_25
REMARK   12  A    between atoms: C_25  and  C_26
REMARK   13  A    between atoms: C_26  and  C_27
REMARK   14  A    between atoms: C_27  and  N_28
REMARK   15  A    between atoms: N_28  and  C_29
REMARK   16  A    between atoms: C_43  and  C_44
REMARK                            x       y       z     vdW  Elec       q    Type
REMARK                         _______ _______ _______ _____ _____    ______ ____
ROOT
ATOM      1  C   UNL A   1      46.627 -16.190 -40.395  0.00  0.00    +0.230 C 
ATOM      2  O   UNL A   1      45.639 -15.535 -40.717  0.00  0.00    -0.274 OA
ATOM      3  N   UNL A   1      47.703 -15.653 -39.719  0.00  0.00    -0.314 N 
ATOM      4  H   UNL A   1      48.521 -16.194 -39.631  0.00  0.00    +0.000 HD
ENDROOT
BRANCH   1   5
ATOM      5  C   UNL A   1      46.803 -17.654 -40.827  0.00  0.00    +0.088 C 
BRANCH   5   8
ATOM      6  C   UNL A   1      46.675 -19.898 -39.685  0.00  0.00    +0.246 C 
ATOM      7  O   UNL A   1      47.373 -20.642 -39.005  0.00  0.00    -0.270 OA
ATOM      8  N   UNL A   1      46.921 -18.546 -39.670  0.00  0.00    -0.303 N 
ATOM      9  H   UNL A   1      47.199 -18.144 -38.814  0.00  0.00    +0.000 HD
BRANCH   6  15
ATOM     10  C   UNL A   1      44.390 -20.951 -39.994  0.00  0.00    +0.044 A 
ATOM     11  C   UNL A   1      43.422 -21.426 -40.894  0.00  0.00    -0.040 A 
ATOM     12  C   UNL A   1      43.664 -21.462 -42.271  0.00  0.00    -0.060 A 
ATOM     13  C   UNL A   1      44.879 -21.011 -42.779  0.00  0.00    -0.061 A 
ATOM     14  C   UNL A   1      45.843 -20.503 -41.914  0.00  0.00    -0.048 A 
ATOM     15  C   UNL A   1      45.591 -20.443 -40.534  0.00  0.00    +0.058 A 
BRANCH  10  16
ATOM     16  N   UNL A   1      44.114 -20.916 -38.603  0.00  0.00    -0.314 N 
ATOM     17  H   UNL A   1      44.606 -21.560 -38.045  0.00  0.00    +0.000 HD
BRANCH  16  23
ATOM     18  C   UNL A   1      39.764 -20.236 -36.224  0.00  0.00    -0.039 C 
ATOM     19  C   UNL A   1      41.055 -19.725 -36.808  0.00  0.00    -0.046 A 
ATOM     20  C   UNL A   1      41.304 -18.345 -36.775  0.00  0.00    -0.058 A 
ATOM     21  C   UNL A   1      42.473 -17.821 -37.319  0.00  0.00    -0.060 A 
ATOM     22  C   UNL A   1      43.409 -18.671 -37.900  0.00  0.00    -0.040 A 
ATOM     23  C   UNL A   1      43.208 -20.059 -37.919  0.00  0.00    +0.035 A 
ATOM     24  C   UNL A   1      42.020 -20.596 -37.368  0.00  0.00    -0.026 A 
ATOM     25  C   UNL A   1      41.772 -22.084 -37.422  0.00  0.00    -0.038 C 
ENDBRANCH  16  23
ENDBRANCH  10  16
ENDBRANCH   6  15
ENDBRANCH   5   8
ENDBRANCH   1   5
BRANCH   3  26
ATOM     26  C   UNL A   1      47.680 -14.328 -39.132  0.00  0.00    +0.012 C 
BRANCH  26  27
ATOM     27  C   UNL A   1      47.667 -14.429 -37.610  0.00  0.00    -0.037 C 
BRANCH  27  28
ATOM     28  C   UNL A   1      46.618 -13.513 -36.978  0.00  0.00    -0.052 C 
BRANCH  28  29
ATOM     29  C   UNL A   1      45.255 -13.728 -37.640  0.00  0.00    -0.053 C 
BRANCH  29  30
ATOM     30  C   UNL A   1      44.386 -14.776 -36.940  0.00  0.00    -0.052 C 
BRANCH  30  31
ATOM     31  C   UNL A   1      44.154 -14.478 -35.458  0.00  0.00    -0.037 C 
BRANCH  31  32
ATOM     32  C   UNL A   1      43.343 -15.595 -34.796  0.00  0.00    +0.009 C 
BRANCH  32  33
ATOM     33  N   UNL A   1      44.167 -16.249 -33.769  0.00  0.00    -0.343 N 
ATOM     34  H   UNL A   1      44.602 -15.779 -33.021  0.00  0.00    +0.000 HD
BRANCH  33  35
ATOM     35  C   UNL A   1      44.254 -17.657 -34.000  0.00  0.00    +0.041 A 
ATOM     36  C   UNL A   1      45.363 -18.158 -34.708  0.00  0.00    -0.005 A 
ATOM     37  C   UNL A   1      45.407 -19.530 -34.957  0.00  0.00    +0.047 A 
ATOM     38  N   UNL A   1      44.419 -20.382 -34.592  0.00  0.00    -0.251 NA
ATOM     39  C   UNL A   1      43.356 -19.902 -33.935  0.00  0.00    +0.073 A 
ATOM     40  C   UNL A   1      42.360 -20.800 -33.572  0.00  0.00    -0.036 A 
ATOM     41  C   UNL A   1      41.211 -20.397 -32.888  0.00  0.00    -0.060 A 
ATOM     42  C   UNL A   1      41.047 -19.062 -32.556  0.00  0.00    -0.061 A 
ATOM     43  C   UNL A   1      42.034 -18.142 -32.910  0.00  0.00    -0.051 A 
ATOM     44  C   UNL A   1      43.206 -18.540 -33.606  0.00  0.00    +0.021 A 
ATOM     45  C   UNL A   1      46.548 -20.162 -35.712  0.00  0.00    -0.010 C 
ATOM     46  C   UNL A   1      47.818 -19.319 -35.700  0.00  0.00    -0.047 C 
ATOM     47  C   UNL A   1      47.489 -17.886 -36.088  0.00  0.00    -0.049 C 
ATOM     48  C   UNL A   1      46.525 -17.264 -35.078  0.00  0.00    -0.024 C 
ENDBRANCH  33  35
ENDBRANCH  32  33
ENDBRANCH  31  32
ENDBRANCH  30  31
ENDBRANCH  29  30
ENDBRANCH  28  29
ENDBRANCH  27  28
ENDBRANCH  26  27
ENDBRANCH   3  26
TORSDOF 14
ENDMDL
MODEL 9
REMARK VINA RESULT:    -6.515     18.302     22.120
REMARK INTER + INTRA:         -17.134
REMARK INTER:                 -13.314
REMARK INTRA:                  -3.820
REMARK UNBOUND:                -5.287
REMARK  Name = cpd37.pdb
REMARK  16 active torsions:
REMARK  status: ('A' for Active; 'I' for Inactive)
REMARK    1  A    between atoms: C_1  and  C_2
REMARK    2  A    between atoms: C_6  and  N_7
REMARK    3  A    between atoms: N_7  and  C_8
REMARK    4  A    between atoms: C_13  and  C_14
REMARK    5  A    between atoms: N_16  and  C_17
REMARK    6  A    between atoms: C_17  and  C_18
REMARK    7  A    between atoms: N_20  and  C_21
REMARK    8  A    between atoms: C_21  and  C_22
REMARK    9  A    between atoms: C_22  and  C_23
REMARK   10  A    between atoms: C_23  and  C_24
REMARK   11  A    between atoms: C_24  and  C_25
REMARK   12  A    between atoms: C_25  and  C_26
REMARK   13  A    between atoms: C_26  and  C_27
REMARK   14  A    between atoms: C_27  and  N_28
REMARK   15  A    between atoms: N_28  and  C_29
REMARK   16  A    between atoms: C_43  and  C_44
REMARK                            x       y       z     vdW  Elec       q    Type
REMARK                         _______ _______ _______ _____ _____    ______ ____
ROOT
ATOM      1  C   UNL A   1      34.107 -40.648 -32.305  0.00  0.00    +0.230 C 
ATOM      2  O   UNL A   1      33.791 -41.784 -31.964  0.00  0.00    -0.274 OA
ATOM      3  N   UNL A   1      33.660 -40.056 -33.469  0.00  0.00    -0.314 N 
ATOM      4  H   UNL A   1      34.073 -39.210 -33.755  0.00  0.00    +0.000 HD
ENDROOT
BRANCH   1   5
ATOM      5  C   UNL A   1      35.132 -39.820 -31.515  0.00  0.00    +0.088 C 
BRANCH   5   8
ATOM      6  C   UNL A   1      35.741 -40.697 -29.231  0.00  0.00    +0.246 C 
ATOM      7  O   UNL A   1      35.864 -41.766 -28.642  0.00  0.00    -0.270 OA
ATOM      8  N   UNL A   1      35.906 -40.660 -30.595  0.00  0.00    -0.303 N 
ATOM      9  H   UNL A   1      36.597 -41.243 -30.985  0.00  0.00    +0.000 HD
BRANCH   6  15
ATOM     10  C   UNL A   1      36.346 -38.446 -28.236  0.00  0.00    +0.044 A 
ATOM     11  C   UNL A   1      35.906 -37.306 -27.542  0.00  0.00    -0.040 A 
ATOM     12  C   UNL A   1      34.597 -37.208 -27.060  0.00  0.00    -0.060 A 
ATOM     13  C   UNL A   1      33.694 -38.246 -27.272  0.00  0.00    -0.061 A 
ATOM     14  C   UNL A   1      34.093 -39.372 -27.987  0.00  0.00    -0.048 A 
ATOM     15  C   UNL A   1      35.399 -39.461 -28.493  0.00  0.00    +0.058 A 
BRANCH  10  16
ATOM     16  N   UNL A   1      37.676 -38.515 -28.724  0.00  0.00    -0.314 N 
ATOM     17  H   UNL A   1      38.247 -39.216 -28.334  0.00  0.00    +0.000 HD
BRANCH  16  23
ATOM     18  C   UNL A   1      41.728 -36.193 -30.522  0.00  0.00    -0.039 C 
ATOM     19  C   UNL A   1      40.257 -36.512 -30.549  0.00  0.00    -0.046 A 
ATOM     20  C   UNL A   1      39.451 -35.878 -31.507  0.00  0.00    -0.058 A 
ATOM     21  C   UNL A   1      38.082 -36.125 -31.559  0.00  0.00    -0.060 A 
ATOM     22  C   UNL A   1      37.502 -37.011 -30.657  0.00  0.00    -0.040 A 
ATOM     23  C   UNL A   1      38.283 -37.688 -29.710  0.00  0.00    +0.035 A 
ATOM     24  C   UNL A   1      39.675 -37.440 -29.652  0.00  0.00    -0.026 A 
ATOM     25  C   UNL A   1      40.519 -38.131 -28.607  0.00  0.00    -0.038 C 
ENDBRANCH  16  23
ENDBRANCH  10  16
ENDBRANCH   6  15
ENDBRANCH   5   8
ENDBRANCH   1   5
BRANCH   3  26
ATOM     26  C   UNL A   1      32.610 -40.629 -34.287  0.00  0.00    +0.012 C 
BRANCH  26  27
ATOM     27  C   UNL A   1      31.370 -39.740 -34.246  0.00  0.00    -0.037 C 
BRANCH  27  28
ATOM     28  C   UNL A   1      31.293 -38.798 -35.449  0.00  0.00    -0.052 C 
BRANCH  28  29
ATOM     29  C   UNL A   1      31.586 -37.359 -35.019  0.00  0.00    -0.053 C 
BRANCH  29  30
ATOM     30  C   UNL A   1      30.959 -36.975 -33.677  0.00  0.00    -0.052 C 
BRANCH  30  31
ATOM     31  C   UNL A   1      31.973 -36.444 -32.664  0.00  0.00    -0.037 C 
BRANCH  31  32
ATOM     32  C   UNL A   1      32.213 -37.461 -31.545  0.00  0.00    +0.009 C 
BRANCH  32  33
ATOM     33  N   UNL A   1      33.226 -36.933 -30.619  0.00  0.00    -0.343 N 
ATOM     34  H   UNL A   1      34.092 -37.365 -30.436  0.00  0.00    +0.000 HD
BRANCH  33  35
ATOM     35  C   UNL A   1      32.789 -35.711 -30.019  0.00  0.00    +0.041 A 
ATOM     36  C   UNL A   1      33.553 -34.547 -30.228  0.00  0.00    -0.005 A 
ATOM     37  C   UNL A   1      33.130 -33.374 -29.600  0.00  0.00    +0.047 A 
ATOM     38  N   UNL A   1      32.058 -33.321 -28.773  0.00  0.00    -0.251 NA
ATOM     39  C   UNL A   1      31.343 -34.434 -28.562  0.00  0.00    +0.073 A 
ATOM     40  C   UNL A   1      30.248 -34.347 -27.712  0.00  0.00    -0.036 A 
ATOM     41  C   UNL A   1      29.443 -35.451 -27.424  0.00  0.00    -0.060 A 
ATOM     42  C   UNL A   1      29.736 -36.678 -27.998  0.00  0.00    -0.061 A 
ATOM     43  C   UNL A   1      30.831 -36.789 -28.855  0.00  0.00    -0.051 A 
ATOM     44  C   UNL A   1      31.656 -35.673 -29.155  0.00  0.00    +0.021 A 
ATOM     45  C   UNL A   1      33.881 -32.078 -29.755  0.00  0.00    -0.010 C 
ATOM     46  C   UNL A   1      34.760 -32.036 -31.000  0.00  0.00    -0.047 C 
ATOM     47  C   UNL A   1      35.606 -33.297 -31.076  0.00  0.00    -0.049 C 
ATOM     48  C   UNL A   1      34.716 -34.534 -31.193  0.00  0.00    -0.024 C 
ENDBRANCH  33  35
ENDBRANCH  32  33
ENDBRANCH  31  32
ENDBRANCH  30  31
ENDBRANCH  29  30
ENDBRANCH  28  29
ENDBRANCH  27  28
ENDBRANCH  26  27
ENDBRANCH   3  26
TORSDOF 14
ENDMDL
MODEL 10
REMARK VINA RESULT:    -6.504      1.755      4.808
REMARK INTER + INTRA:         -17.115
REMARK INTER:                 -11.868
REMARK INTRA:                  -5.247
REMARK UNBOUND:                -5.287
REMARK  Name = cpd37.pdb
REMARK  16 active torsions:
REMARK  status: ('A' for Active; 'I' for Inactive)
REMARK    1  A    between atoms: C_1  and  C_2
REMARK    2  A    between atoms: C_6  and  N_7
REMARK    3  A    between atoms: N_7  and  C_8
REMARK    4  A    between atoms: C_13  and  C_14
REMARK    5  A    between atoms: N_16  and  C_17
REMARK    6  A    between atoms: C_17  and  C_18
REMARK    7  A    between atoms: N_20  and  C_21
REMARK    8  A    between atoms: C_21  and  C_22
REMARK    9  A    between atoms: C_22  and  C_23
REMARK   10  A    between atoms: C_23  and  C_24
REMARK   11  A    between atoms: C_24  and  C_25
REMARK   12  A    between atoms: C_25  and  C_26
REMARK   13  A    between atoms: C_26  and  C_27
REMARK   14  A    between atoms: C_27  and  N_28
REMARK   15  A    between atoms: N_28  and  C_29
REMARK   16  A    between atoms: C_43  and  C_44
REMARK                            x       y       z     vdW  Elec       q    Type
REMARK                         _______ _______ _______ _____ _____    ______ ____
ROOT
ATOM      1  C   UNL A   1      46.363 -15.508 -37.462  0.00  0.00    +0.230 C 
ATOM      2  O   UNL A   1      47.449 -15.212 -37.954  0.00  0.00    -0.274 OA
ATOM      3  N   UNL A   1      45.159 -15.282 -38.096  0.00  0.00    -0.314 N 
ATOM      4  H   UNL A   1      44.327 -15.400 -37.582  0.00  0.00    +0.000 HD
ENDROOT
BRANCH   1   5
ATOM      5  C   UNL A   1      46.245 -16.055 -36.031  0.00  0.00    +0.088 C 
BRANCH   5   8
ATOM      6  C   UNL A   1      47.157 -18.401 -36.173  0.00  0.00    +0.246 C 
ATOM      7  O   UNL A   1      48.172 -18.989 -36.531  0.00  0.00    -0.270 OA
ATOM      8  N   UNL A   1      47.249 -17.091 -35.768  0.00  0.00    -0.303 N 
ATOM      9  H   UNL A   1      48.050 -16.827 -35.260  0.00  0.00    +0.000 HD
BRANCH   6  15
ATOM     10  C   UNL A   1      45.273 -19.587 -37.383  0.00  0.00    +0.044 A 
ATOM     11  C   UNL A   1      44.026 -20.229 -37.285  0.00  0.00    -0.040 A 
ATOM     12  C   UNL A   1      43.338 -20.299 -36.070  0.00  0.00    -0.060 A 
ATOM     13  C   UNL A   1      43.889 -19.738 -34.921  0.00  0.00    -0.061 A 
ATOM     14  C   UNL A   1      45.138 -19.127 -34.982  0.00  0.00    -0.048 A 
ATOM     15  C   UNL A   1      45.841 -19.078 -36.196  0.00  0.00    +0.058 A 
BRANCH  10  16
ATOM     16  N   UNL A   1      45.954 -19.540 -38.627  0.00  0.00    -0.314 N 
ATOM     17  H   UNL A   1      46.930 -19.417 -38.584  0.00  0.00    +0.000 HD
BRANCH  16  23
ATOM     18  C   UNL A   1      45.200 -22.200 -42.798  0.00  0.00    -0.039 C 
ATOM     19  C   UNL A   1      45.078 -20.938 -41.985  0.00  0.00    -0.046 A 
ATOM     20  C   UNL A   1      44.496 -19.810 -42.582  0.00  0.00    -0.058 A 
ATOM     21  C   UNL A   1      44.378 -18.615 -41.879  0.00  0.00    -0.060 A 
ATOM     22  C   UNL A   1      44.837 -18.533 -40.568  0.00  0.00    -0.040 A 
ATOM     23  C   UNL A   1      45.393 -19.651 -39.929  0.00  0.00    +0.035 A 
ATOM     24  C   UNL A   1      45.516 -20.869 -40.641  0.00  0.00    -0.026 A 
ATOM     25  C   UNL A   1      46.151 -22.067 -39.977  0.00  0.00    -0.038 C 
ENDBRANCH  16  23
ENDBRANCH  10  16
ENDBRANCH   6  15
ENDBRANCH   5   8
ENDBRANCH   1   5
BRANCH   3  26
ATOM     26  C   UNL A   1      45.066 -14.877 -39.484  0.00  0.00    +0.012 C 
BRANCH  26  27
ATOM     27  C   UNL A   1      43.605 -14.851 -39.926  0.00  0.00    -0.037 C 
BRANCH  27  28
ATOM     28  C   UNL A   1      42.736 -15.807 -39.108  0.00  0.00    -0.052 C 
BRANCH  28  29
ATOM     29  C   UNL A   1      41.364 -15.184 -38.843  0.00  0.00    -0.053 C 
BRANCH  29  30
ATOM     30  C   UNL A   1      40.498 -15.986 -37.869  0.00  0.00    -0.052 C 
BRANCH  30  31
ATOM     31  C   UNL A   1      41.216 -17.201 -37.279  0.00  0.00    -0.037 C 
BRANCH  31  32
ATOM     32  C   UNL A   1      40.310 -17.952 -36.300  0.00  0.00    +0.009 C 
BRANCH  32  33
ATOM     33  N   UNL A   1      39.313 -18.723 -37.057  0.00  0.00    -0.343 N 
ATOM     34  H   UNL A   1      38.528 -18.332 -37.503  0.00  0.00    +0.000 HD
BRANCH  33  35
ATOM     35  C   UNL A   1      39.633 -20.116 -37.058  0.00  0.00    +0.041 A 
ATOM     36  C   UNL A   1      39.229 -20.902 -35.961  0.00  0.00    -0.005 A 
ATOM     37  C   UNL A   1      39.588 -22.251 -35.965  0.00  0.00    +0.047 A 
ATOM     38  N   UNL A   1      40.338 -22.816 -36.941  0.00  0.00    -0.251 NA
ATOM     39  C   UNL A   1      40.737 -22.063 -37.974  0.00  0.00    +0.073 A 
ATOM     40  C   UNL A   1      41.502 -22.672 -38.960  0.00  0.00    -0.036 A 
ATOM     41  C   UNL A   1      41.970 -21.971 -40.074  0.00  0.00    -0.060 A 
ATOM     42  C   UNL A   1      41.669 -20.626 -40.211  0.00  0.00    -0.061 A 
ATOM     43  C   UNL A   1      40.901 -19.994 -39.232  0.00  0.00    -0.051 A 
ATOM     44  C   UNL A   1      40.421 -20.696 -38.096  0.00  0.00    +0.021 A 
ATOM     45  C   UNL A   1      39.209 -23.174 -34.836  0.00  0.00    -0.010 C 
ATOM     46  C   UNL A   1      38.022 -22.673 -34.021  0.00  0.00    -0.047 C 
ATOM     47  C   UNL A   1      38.240 -21.219 -33.634  0.00  0.00    -0.049 C 
ATOM     48  C   UNL A   1      38.335 -20.340 -34.881  0.00  0.00    -0.024 C 
ENDBRANCH  33  35
ENDBRANCH  32  33
ENDBRANCH  31  32
ENDBRANCH  30  31
ENDBRANCH  29  30
ENDBRANCH  28  29
ENDBRANCH  27  28
ENDBRANCH  26  27
ENDBRANCH   3  26
TORSDOF 14
ENDMDL
MODEL 11
REMARK VINA RESULT:    -6.469      2.315      8.418
REMARK INTER + INTRA:         -17.050
REMARK INTER:                 -12.766
REMARK INTRA:                  -4.284
REMARK UNBOUND:                -5.287
REMARK  Name = cpd37.pdb
REMARK  16 active torsions:
REMARK  status: ('A' for Active; 'I' for Inactive)
REMARK    1  A    between atoms: C_1  and  C_2
REMARK    2  A    between atoms: C_6  and  N_7
REMARK    3  A    between atoms: N_7  and  C_8
REMARK    4  A    between atoms: C_13  and  C_14
REMARK    5  A    between atoms: N_16  and  C_17
REMARK    6  A    between atoms: C_17  and  C_18
REMARK    7  A    between atoms: N_20  and  C_21
REMARK    8  A    between atoms: C_21  and  C_22
REMARK    9  A    between atoms: C_22  and  C_23
REMARK   10  A    between atoms: C_23  and  C_24
REMARK   11  A    between atoms: C_24  and  C_25
REMARK   12  A    between atoms: C_25  and  C_26
REMARK   13  A    between atoms: C_26  and  C_27
REMARK   14  A    between atoms: C_27  and  N_28
REMARK   15  A    between atoms: N_28  and  C_29
REMARK   16  A    between atoms: C_43  and  C_44
REMARK                            x       y       z     vdW  Elec       q    Type
REMARK                         _______ _______ _______ _____ _____    ______ ____
ROOT
ATOM      1  C   UNL A   1      42.469 -21.019 -34.829  0.00  0.00    +0.230 C 
ATOM      2  O   UNL A   1      42.159 -20.990 -36.017  0.00  0.00    -0.274 OA
ATOM      3  N   UNL A   1      43.755 -20.810 -34.377  0.00  0.00    -0.314 N 
ATOM      4  H   UNL A   1      43.960 -21.000 -33.433  0.00  0.00    +0.000 HD
ENDROOT
BRANCH   1   5
ATOM      5  C   UNL A   1      41.459 -21.411 -33.739  0.00  0.00    +0.088 C 
BRANCH   5   8
ATOM      6  C   UNL A   1      39.489 -22.681 -34.667  0.00  0.00    +0.246 C 
ATOM      7  O   UNL A   1      39.244 -23.549 -35.499  0.00  0.00    -0.270 OA
ATOM      8  N   UNL A   1      40.737 -22.637 -34.092  0.00  0.00    -0.303 N 
ATOM      9  H   UNL A   1      41.180 -23.496 -33.902  0.00  0.00    +0.000 HD
BRANCH   6  15
ATOM     10  C   UNL A   1      38.323 -20.455 -34.987  0.00  0.00    +0.044 A 
ATOM     11  C   UNL A   1      37.306 -19.583 -34.561  0.00  0.00    -0.040 A 
ATOM     12  C   UNL A   1      36.512 -19.880 -33.449  0.00  0.00    -0.060 A 
ATOM     13  C   UNL A   1      36.710 -21.063 -32.744  0.00  0.00    -0.061 A 
ATOM     14  C   UNL A   1      37.687 -21.962 -33.165  0.00  0.00    -0.048 A 
ATOM     15  C   UNL A   1      38.468 -21.677 -34.296  0.00  0.00    +0.058 A 
BRANCH  10  16
ATOM     16  N   UNL A   1      39.106 -20.134 -36.126  0.00  0.00    -0.314 N 
ATOM     17  H   UNL A   1      39.375 -20.890 -36.696  0.00  0.00    +0.000 HD
BRANCH  16  23
ATOM     18  C   UNL A   1      39.643 -16.696 -39.722  0.00  0.00    -0.039 C 
ATOM     19  C   UNL A   1      39.857 -17.196 -38.318  0.00  0.00    -0.046 A 
ATOM     20  C   UNL A   1      40.618 -16.413 -37.437  0.00  0.00    -0.058 A 
ATOM     21  C   UNL A   1      40.860 -16.841 -36.135  0.00  0.00    -0.060 A 
ATOM     22  C   UNL A   1      40.342 -18.056 -35.696  0.00  0.00    -0.040 A 
ATOM     23  C   UNL A   1      39.549 -18.847 -36.540  0.00  0.00    +0.035 A 
ATOM     24  C   UNL A   1      39.301 -18.417 -37.865  0.00  0.00    -0.026 A 
ATOM     25  C   UNL A   1      38.484 -19.281 -38.795  0.00  0.00    -0.038 C 
ENDBRANCH  16  23
ENDBRANCH  10  16
ENDBRANCH   6  15
ENDBRANCH   5   8
ENDBRANCH   1   5
BRANCH   3  26
ATOM     26  C   UNL A   1      44.819 -20.323 -35.233  0.00  0.00    +0.012 C 
BRANCH  26  27
ATOM     27  C   UNL A   1      45.291 -18.953 -34.755  0.00  0.00    -0.037 C 
BRANCH  27  28
ATOM     28  C   UNL A   1      44.440 -17.817 -35.324  0.00  0.00    -0.052 C 
BRANCH  28  29
ATOM     29  C   UNL A   1      45.149 -17.164 -36.512  0.00  0.00    -0.053 C 
BRANCH  29  30
ATOM     30  C   UNL A   1      46.543 -17.732 -36.789  0.00  0.00    -0.052 C 
BRANCH  30  31
ATOM     31  C   UNL A   1      47.135 -17.265 -38.120  0.00  0.00    -0.037 C 
BRANCH  31  32
ATOM     32  C   UNL A   1      46.889 -18.298 -39.222  0.00  0.00    +0.009 C 
BRANCH  32  33
ATOM     33  N   UNL A   1      46.767 -19.633 -38.618  0.00  0.00    -0.343 N 
ATOM     34  H   UNL A   1      47.128 -19.880 -37.736  0.00  0.00    +0.000 HD
BRANCH  33  35
ATOM     35  C   UNL A   1      46.054 -20.524 -39.480  0.00  0.00    +0.041 A 
ATOM     36  C   UNL A   1      46.791 -21.406 -40.295  0.00  0.00    -0.005 A 
ATOM     37  C   UNL A   1      46.076 -22.239 -41.157  0.00  0.00    +0.047 A 
ATOM     38  N   UNL A   1      44.727 -22.201 -41.276  0.00  0.00    -0.251 NA
ATOM     39  C   UNL A   1      44.030 -21.349 -40.513  0.00  0.00    +0.073 A 
ATOM     40  C   UNL A   1      42.649 -21.336 -40.656  0.00  0.00    -0.036 A 
ATOM     41  C   UNL A   1      41.834 -20.481 -39.910  0.00  0.00    -0.060 A 
ATOM     42  C   UNL A   1      42.410 -19.614 -38.996  0.00  0.00    -0.061 A 
ATOM     43  C   UNL A   1      43.796 -19.609 -38.836  0.00  0.00    -0.051 A 
ATOM     44  C   UNL A   1      44.634 -20.474 -39.589  0.00  0.00    +0.021 A 
ATOM     45  C   UNL A   1      46.771 -23.213 -42.073  0.00  0.00    -0.010 C 
ATOM     46  C   UNL A   1      48.180 -23.570 -41.615  0.00  0.00    -0.047 C 
ATOM     47  C   UNL A   1      48.956 -22.301 -41.298  0.00  0.00    -0.049 C 
ATOM     48  C   UNL A   1      48.289 -21.537 -40.154  0.00  0.00    -0.024 C 
ENDBRANCH  33  35
ENDBRANCH  32  33
ENDBRANCH  31  32
ENDBRANCH  30  31
ENDBRANCH  29  30
ENDBRANCH  28  29
ENDBRANCH  27  28
ENDBRANCH  26  27
ENDBRANCH   3  26
TORSDOF 14
ENDMDL
MODEL 12
REMARK VINA RESULT:    -6.420      2.188      4.421
REMARK INTER + INTRA:         -16.961
REMARK INTER:                 -11.702
REMARK INTRA:                  -5.260
REMARK UNBOUND:                -5.287
REMARK  Name = cpd37.pdb
REMARK  16 active torsions:
REMARK  status: ('A' for Active; 'I' for Inactive)
REMARK    1  A    between atoms: C_1  and  C_2
REMARK    2  A    between atoms: C_6  and  N_7
REMARK    3  A    between atoms: N_7  and  C_8
REMARK    4  A    between atoms: C_13  and  C_14
REMARK    5  A    between atoms: N_16  and  C_17
REMARK    6  A    between atoms: C_17  and  C_18
REMARK    7  A    between atoms: N_20  and  C_21
REMARK    8  A    between atoms: C_21  and  C_22
REMARK    9  A    between atoms: C_22  and  C_23
REMARK   10  A    between atoms: C_23  and  C_24
REMARK   11  A    between atoms: C_24  and  C_25
REMARK   12  A    between atoms: C_25  and  C_26
REMARK   13  A    between atoms: C_26  and  C_27
REMARK   14  A    between atoms: C_27  and  N_28
REMARK   15  A    between atoms: N_28  and  C_29
REMARK   16  A    between atoms: C_43  and  C_44
REMARK                            x       y       z     vdW  Elec       q    Type
REMARK                         _______ _______ _______ _____ _____    ______ ____
ROOT
ATOM      1  C   UNL A   1      45.458 -18.078 -34.825  0.00  0.00    +0.230 C 
ATOM      2  O   UNL A   1      46.077 -17.135 -34.337  0.00  0.00    -0.274 OA
ATOM      3  N   UNL A   1      44.361 -18.655 -34.220  0.00  0.00    -0.314 N 
ATOM      4  H   UNL A   1      44.011 -19.499 -34.587  0.00  0.00    +0.000 HD
ENDROOT
BRANCH   1   5
ATOM      5  C   UNL A   1      45.930 -18.778 -36.108  0.00  0.00    +0.088 C 
BRANCH   5   8
ATOM      6  C   UNL A   1      44.354 -20.175 -37.494  0.00  0.00    +0.246 C 
ATOM      7  O   UNL A   1      44.291 -21.292 -37.997  0.00  0.00    -0.270 OA
ATOM      8  N   UNL A   1      45.141 -19.983 -36.384  0.00  0.00    -0.303 N 
ATOM      9  H   UNL A   1      45.179 -20.711 -35.722  0.00  0.00    +0.000 HD
BRANCH   6  15
ATOM     10  C   UNL A   1      43.966 -18.462 -39.320  0.00  0.00    +0.044 A 
ATOM     11  C   UNL A   1      43.180 -17.396 -39.792  0.00  0.00    -0.040 A 
ATOM     12  C   UNL A   1      42.129 -16.876 -39.030  0.00  0.00    -0.060 A 
ATOM     13  C   UNL A   1      41.833 -17.419 -37.783  0.00  0.00    -0.061 A 
ATOM     14  C   UNL A   1      42.574 -18.497 -37.307  0.00  0.00    -0.048 A 
ATOM     15  C   UNL A   1      43.612 -19.037 -38.081  0.00  0.00    +0.058 A 
BRANCH  10  16
ATOM     16  N   UNL A   1      45.019 -18.977 -40.119  0.00  0.00    -0.314 N 
ATOM     17  H   UNL A   1      45.876 -18.494 -40.074  0.00  0.00    +0.000 HD
BRANCH  16  23
ATOM     18  C   UNL A   1      47.166 -23.145 -41.868  0.00  0.00    -0.039 C 
ATOM     19  C   UNL A   1      46.067 -22.116 -41.866  0.00  0.00    -0.046 A 
ATOM     20  C   UNL A   1      45.045 -22.225 -42.821  0.00  0.00    -0.058 A 
ATOM     21  C   UNL A   1      44.017 -21.288 -42.872  0.00  0.00    -0.060 A 
ATOM     22  C   UNL A   1      43.997 -20.231 -41.967  0.00  0.00    -0.040 A 
ATOM     23  C   UNL A   1      44.983 -20.111 -40.977  0.00  0.00    +0.035 A 
ATOM     24  C   UNL A   1      46.031 -21.061 -40.922  0.00  0.00    -0.026 A 
ATOM     25  C   UNL A   1      47.122 -20.918 -39.888  0.00  0.00    -0.038 C 
ENDBRANCH  16  23
ENDBRANCH  10  16
ENDBRANCH   6  15
ENDBRANCH   5   8
ENDBRANCH   1   5
BRANCH   3  26
ATOM     26  C   UNL A   1      43.702 -18.073 -33.068  0.00  0.00    +0.012 C 
BRANCH  26  27
ATOM     27  C   UNL A   1      42.281 -17.652 -33.434  0.00  0.00    -0.037 C 
BRANCH  27  28
ATOM     28  C   UNL A   1      41.362 -18.853 -33.660  0.00  0.00    -0.052 C 
BRANCH  28  29
ATOM     29  C   UNL A   1      39.899 -18.450 -33.460  0.00  0.00    -0.053 C 
BRANCH  29  30
ATOM     30  C   UNL A   1      39.478 -17.229 -34.280  0.00  0.00    -0.052 C 
BRANCH  30  31
ATOM     31  C   UNL A   1      38.244 -17.478 -35.149  0.00  0.00    -0.037 C 
BRANCH  31  32
ATOM     32  C   UNL A   1      38.640 -18.045 -36.514  0.00  0.00    +0.009 C 
BRANCH  32  33
ATOM     33  N   UNL A   1      37.808 -19.220 -36.812  0.00  0.00    -0.343 N 
ATOM     34  H   UNL A   1      36.846 -19.184 -37.018  0.00  0.00    +0.000 HD
BRANCH  33  35
ATOM     35  C   UNL A   1      38.580 -20.423 -36.762  0.00  0.00    +0.041 A 
ATOM     36  C   UNL A   1      38.512 -21.220 -35.603  0.00  0.00    -0.005 A 
ATOM     37  C   UNL A   1      39.304 -22.368 -35.560  0.00  0.00    +0.047 A 
ATOM     38  N   UNL A   1      40.159 -22.717 -36.552  0.00  0.00    -0.251 NA
ATOM     39  C   UNL A   1      40.236 -21.948 -37.645  0.00  0.00    +0.073 A 
ATOM     40  C   UNL A   1      41.118 -22.333 -38.646  0.00  0.00    -0.036 A 
ATOM     41  C   UNL A   1      41.274 -21.596 -39.822  0.00  0.00    -0.060 A 
ATOM     42  C   UNL A   1      40.531 -20.442 -40.008  0.00  0.00    -0.061 A 
ATOM     43  C   UNL A   1      39.637 -20.035 -39.016  0.00  0.00    -0.051 A 
ATOM     44  C   UNL A   1      39.471 -20.777 -37.817  0.00  0.00    +0.021 A 
ATOM     45  C   UNL A   1      39.308 -23.283 -34.363  0.00  0.00    -0.010 C 
ATOM     46  C   UNL A   1      38.057 -23.152 -33.501  0.00  0.00    -0.047 C 
ATOM     47  C   UNL A   1      37.788 -21.685 -33.204  0.00  0.00    -0.049 C 
ATOM     48  C   UNL A   1      37.527 -20.915 -34.498  0.00  0.00    -0.024 C 
ENDBRANCH  33  35
ENDBRANCH  32  33
ENDBRANCH  31  32
ENDBRANCH  30  31
ENDBRANCH  29  30
ENDBRANCH  28  29
ENDBRANCH  27  28
ENDBRANCH  26  27
ENDBRANCH   3  26
TORSDOF 14
ENDMDL
MODEL 13
REMARK VINA RESULT:    -6.378      2.388      4.334
REMARK INTER + INTRA:         -16.884
REMARK INTER:                 -13.612
REMARK INTRA:                  -3.273
REMARK UNBOUND:                -5.287
REMARK  Name = cpd37.pdb
REMARK  16 active torsions:
REMARK  status: ('A' for Active; 'I' for Inactive)
REMARK    1  A    between atoms: C_1  and  C_2
REMARK    2  A    between atoms: C_6  and  N_7
REMARK    3  A    between atoms: N_7  and  C_8
REMARK    4  A    between atoms: C_13  and  C_14
REMARK    5  A    between atoms: N_16  and  C_17
REMARK    6  A    between atoms: C_17  and  C_18
REMARK    7  A    between atoms: N_20  and  C_21
REMARK    8  A    between atoms: C_21  and  C_22
REMARK    9  A    between atoms: C_22  and  C_23
REMARK   10  A    between atoms: C_23  and  C_24
REMARK   11  A    between atoms: C_24  and  C_25
REMARK   12  A    between atoms: C_25  and  C_26
REMARK   13  A    between atoms: C_26  and  C_27
REMARK   14  A    between atoms: C_27  and  N_28
REMARK   15  A    between atoms: N_28  and  C_29
REMARK   16  A    between atoms: C_43  and  C_44
REMARK                            x       y       z     vdW  Elec       q    Type
REMARK                         _______ _______ _______ _____ _____    ______ ____
ROOT
ATOM      1  C   UNL A   1      42.885 -19.847 -36.852  0.00  0.00    +0.230 C 
ATOM      2  O   UNL A   1      43.272 -20.973 -37.153  0.00  0.00    -0.274 OA
ATOM      3  N   UNL A   1      41.792 -19.242 -37.436  0.00  0.00    -0.314 N 
ATOM      4  H   UNL A   1      41.633 -18.286 -37.260  0.00  0.00    +0.000 HD
ENDROOT
BRANCH   1   5
ATOM      5  C   UNL A   1      43.666 -18.959 -35.870  0.00  0.00    +0.088 C 
BRANCH   5   8
ATOM      6  C   UNL A   1      46.164 -19.096 -35.564  0.00  0.00    +0.246 C 
ATOM      7  O   UNL A   1      46.989 -19.272 -34.673  0.00  0.00    -0.270 OA
ATOM      8  N   UNL A   1      44.899 -19.611 -35.418  0.00  0.00    -0.303 N 
ATOM      9  H   UNL A   1      44.813 -20.487 -34.976  0.00  0.00    +0.000 HD
BRANCH   6  15
ATOM     10  C   UNL A   1      46.594 -18.909 -38.054  0.00  0.00    +0.044 A 
ATOM     11  C   UNL A   1      46.914 -18.073 -39.138  0.00  0.00    -0.040 A 
ATOM     12  C   UNL A   1      47.211 -16.720 -38.949  0.00  0.00    -0.060 A 
ATOM     13  C   UNL A   1      47.182 -16.169 -37.671  0.00  0.00    -0.061 A 
ATOM     14  C   UNL A   1      46.835 -16.967 -36.584  0.00  0.00    -0.048 A 
ATOM     15  C   UNL A   1      46.512 -18.319 -36.775  0.00  0.00    +0.058 A 
BRANCH  10  16
ATOM     16  N   UNL A   1      46.287 -20.276 -38.276  0.00  0.00    -0.314 N 
ATOM     17  H   UNL A   1      45.845 -20.749 -37.534  0.00  0.00    +0.000 HD
BRANCH  16  23
ATOM     18  C   UNL A   1      44.763 -22.054 -42.699  0.00  0.00    -0.039 C 
ATOM     19  C   UNL A   1      45.766 -21.954 -41.580  0.00  0.00    -0.046 A 
ATOM     20  C   UNL A   1      46.928 -22.736 -41.650  0.00  0.00    -0.058 A 
ATOM     21  C   UNL A   1      47.876 -22.694 -40.632  0.00  0.00    -0.060 A 
ATOM     22  C   UNL A   1      47.675 -21.866 -39.532  0.00  0.00    -0.040 A 
ATOM     23  C   UNL A   1      46.542 -21.044 -39.446  0.00  0.00    +0.035 A 
ATOM     24  C   UNL A   1      45.575 -21.085 -40.479  0.00  0.00    -0.026 A 
ATOM     25  C   UNL A   1      44.329 -20.238 -40.376  0.00  0.00    -0.038 C 
ENDBRANCH  16  23
ENDBRANCH  10  16
ENDBRANCH   6  15
ENDBRANCH   5   8
ENDBRANCH   1   5
BRANCH   3  26
ATOM     26  C   UNL A   1      40.869 -19.952 -38.298  0.00  0.00    +0.012 C 
BRANCH  26  27
ATOM     27  C   UNL A   1      39.448 -19.831 -37.757  0.00  0.00    -0.037 C 
BRANCH  27  28
ATOM     28  C   UNL A   1      39.353 -20.234 -36.284  0.00  0.00    -0.052 C 
BRANCH  28  29
ATOM     29  C   UNL A   1      39.066 -21.732 -36.159  0.00  0.00    -0.053 C 
BRANCH  29  30
ATOM     30  C   UNL A   1      40.309 -22.578 -35.878  0.00  0.00    -0.052 C 
BRANCH  30  31
ATOM     31  C   UNL A   1      40.533 -22.851 -34.390  0.00  0.00    -0.037 C 
BRANCH  31  32
ATOM     32  C   UNL A   1      41.518 -21.844 -33.790  0.00  0.00    +0.009 C 
BRANCH  32  33
ATOM     33  N   UNL A   1      40.998 -21.365 -32.501  0.00  0.00    -0.343 N 
ATOM     34  H   UNL A   1      41.106 -21.841 -31.646  0.00  0.00    +0.000 HD
BRANCH  33  35
ATOM     35  C   UNL A   1      40.314 -20.119 -32.653  0.00  0.00    +0.041 A 
ATOM     36  C   UNL A   1      41.072 -18.932 -32.677  0.00  0.00    -0.005 A 
ATOM     37  C   UNL A   1      40.381 -17.725 -32.786  0.00  0.00    +0.047 A 
ATOM     38  N   UNL A   1      39.029 -17.645 -32.821  0.00  0.00    -0.251 NA
ATOM     39  C   UNL A   1      38.309 -18.773 -32.779  0.00  0.00    +0.073 A 
ATOM     40  C   UNL A   1      36.926 -18.659 -32.819  0.00  0.00    -0.036 A 
ATOM     41  C   UNL A   1      36.088 -19.775 -32.776  0.00  0.00    -0.060 A 
ATOM     42  C   UNL A   1      36.641 -21.042 -32.690  0.00  0.00    -0.061 A 
ATOM     43  C   UNL A   1      38.029 -21.181 -32.649  0.00  0.00    -0.051 A 
ATOM     44  C   UNL A   1      38.891 -20.053 -32.691  0.00  0.00    +0.021 A 
ATOM     45  C   UNL A   1      41.100 -16.401 -32.814  0.00  0.00    -0.010 C 
ATOM     46  C   UNL A   1      42.560 -16.518 -33.236  0.00  0.00    -0.047 C 
ATOM     47  C   UNL A   1      43.241 -17.616 -32.435  0.00  0.00    -0.049 C 
ATOM     48  C   UNL A   1      42.583 -18.968 -32.711  0.00  0.00    -0.024 C 
ENDBRANCH  33  35
ENDBRANCH  32  33
ENDBRANCH  31  32
ENDBRANCH  30  31
ENDBRANCH  29  30
ENDBRANCH  28  29
ENDBRANCH  27  28
ENDBRANCH  26  27
ENDBRANCH   3  26
TORSDOF 14
ENDMDL
MODEL 14
REMARK VINA RESULT:    -6.345      2.074      3.825
REMARK INTER + INTRA:         -16.825
REMARK INTER:                 -12.097
REMARK INTRA:                  -4.728
REMARK UNBOUND:                -5.287
REMARK  Name = cpd37.pdb
REMARK  16 active torsions:
REMARK  status: ('A' for Active; 'I' for Inactive)
REMARK    1  A    between atoms: C_1  and  C_2
REMARK    2  A    between atoms: C_6  and  N_7
REMARK    3  A    between atoms: N_7  and  C_8
REMARK    4  A    between atoms: C_13  and  C_14
REMARK    5  A    between atoms: N_16  and  C_17
REMARK    6  A    between atoms: C_17  and  C_18
REMARK    7  A    between atoms: N_20  and  C_21
REMARK    8  A    between atoms: C_21  and  C_22
REMARK    9  A    between atoms: C_22  and  C_23
REMARK   10  A    between atoms: C_23  and  C_24
REMARK   11  A    between atoms: C_24  and  C_25
REMARK   12  A    between atoms: C_25  and  C_26
REMARK   13  A    between atoms: C_26  and  C_27
REMARK   14  A    between atoms: C_27  and  N_28
REMARK   15  A    between atoms: N_28  and  C_29
REMARK   16  A    between atoms: C_43  and  C_44
REMARK                            x       y       z     vdW  Elec       q    Type
REMARK                         _______ _______ _______ _____ _____    ______ ____
ROOT
ATOM      1  C   UNL A   1      45.521 -18.145 -34.532  0.00  0.00    +0.230 C 
ATOM      2  O   UNL A   1      46.143 -17.183 -34.088  0.00  0.00    -0.274 OA
ATOM      3  N   UNL A   1      44.456 -18.725 -33.875  0.00  0.00    -0.314 N 
ATOM      4  H   UNL A   1      44.106 -19.581 -34.210  0.00  0.00    +0.000 HD
ENDROOT
BRANCH   1   5
ATOM      5  C   UNL A   1      45.956 -18.867 -35.817  0.00  0.00    +0.088 C 
BRANCH   5   8
ATOM      6  C   UNL A   1      44.219 -20.014 -37.239  0.00  0.00    +0.246 C 
ATOM      7  O   UNL A   1      44.037 -21.083 -37.812  0.00  0.00    -0.270 OA
ATOM      8  N   UNL A   1      45.050 -19.972 -36.145  0.00  0.00    -0.303 N 
ATOM      9  H   UNL A   1      45.037 -20.744 -35.535  0.00  0.00    +0.000 HD
BRANCH   6  15
ATOM     10  C   UNL A   1      44.045 -18.065 -38.849  0.00  0.00    +0.044 A 
ATOM     11  C   UNL A   1      43.342 -16.910 -39.233  0.00  0.00    -0.040 A 
ATOM     12  C   UNL A   1      42.256 -16.438 -38.488  0.00  0.00    -0.060 A 
ATOM     13  C   UNL A   1      41.841 -17.120 -37.348  0.00  0.00    -0.061 A 
ATOM     14  C   UNL A   1      42.498 -18.286 -36.964  0.00  0.00    -0.048 A 
ATOM     15  C   UNL A   1      43.572 -18.774 -37.724  0.00  0.00    +0.058 A 
BRANCH  10  16
ATOM     16  N   UNL A   1      45.136 -18.526 -39.629  0.00  0.00    -0.314 N 
ATOM     17  H   UNL A   1      46.017 -18.141 -39.415  0.00  0.00    +0.000 HD
BRANCH  16  23
ATOM     18  C   UNL A   1      47.095 -22.544 -41.879  0.00  0.00    -0.039 C 
ATOM     19  C   UNL A   1      46.106 -21.410 -41.806  0.00  0.00    -0.046 A 
ATOM     20  C   UNL A   1      45.213 -21.230 -42.873  0.00  0.00    -0.058 A 
ATOM     21  C   UNL A   1      44.294 -20.186 -42.862  0.00  0.00    -0.060 A 
ATOM     22  C   UNL A   1      44.253 -19.309 -41.782  0.00  0.00    -0.040 A 
ATOM     23  C   UNL A   1      45.108 -19.480 -40.683  0.00  0.00    +0.035 A 
ATOM     24  C   UNL A   1      46.045 -20.540 -40.691  0.00  0.00    -0.026 A 
ATOM     25  C   UNL A   1      46.999 -20.708 -39.532  0.00  0.00    -0.038 C 
ENDBRANCH  16  23
ENDBRANCH  10  16
ENDBRANCH   6  15
ENDBRANCH   5   8
ENDBRANCH   1   5
BRANCH   3  26
ATOM     26  C   UNL A   1      43.831 -18.127 -32.712  0.00  0.00    +0.012 C 
BRANCH  26  27
ATOM     27  C   UNL A   1      42.384 -17.758 -33.026  0.00  0.00    -0.037 C 
BRANCH  27  28
ATOM     28  C   UNL A   1      41.489 -18.991 -33.157  0.00  0.00    -0.052 C 
BRANCH  28  29
ATOM     29  C   UNL A   1      40.090 -18.694 -32.611  0.00  0.00    -0.053 C 
BRANCH  29  30
ATOM     30  C   UNL A   1      39.461 -17.421 -33.180  0.00  0.00    -0.052 C 
BRANCH  30  31
ATOM     31  C   UNL A   1      38.244 -17.690 -34.067  0.00  0.00    -0.037 C 
BRANCH  31  32
ATOM     32  C   UNL A   1      38.671 -17.999 -35.504  0.00  0.00    +0.009 C 
BRANCH  32  33
ATOM     33  N   UNL A   1      37.789 -19.035 -36.060  0.00  0.00    -0.343 N 
ATOM     34  H   UNL A   1      36.841 -18.897 -36.286  0.00  0.00    +0.000 HD
BRANCH  33  35
ATOM     35  C   UNL A   1      38.490 -20.270 -36.230  0.00  0.00    +0.041 A 
ATOM     36  C   UNL A   1      39.198 -20.484 -37.428  0.00  0.00    -0.005 A 
ATOM     37  C   UNL A   1      39.841 -21.712 -37.589  0.00  0.00    +0.047 A 
ATOM     38  N   UNL A   1      39.773 -22.710 -36.675  0.00  0.00    -0.251 NA
ATOM     39  C   UNL A   1      39.084 -22.511 -35.544  0.00  0.00    +0.073 A 
ATOM     40  C   UNL A   1      39.036 -23.552 -34.625  0.00  0.00    -0.036 A 
ATOM     41  C   UNL A   1      38.340 -23.444 -33.419  0.00  0.00    -0.060 A 
ATOM     42  C   UNL A   1      37.672 -22.268 -33.119  0.00  0.00    -0.061 A 
ATOM     43  C   UNL A   1      37.707 -21.210 -34.027  0.00  0.00    -0.051 A 
ATOM     44  C   UNL A   1      38.411 -21.308 -35.256  0.00  0.00    +0.021 A 
ATOM     45  C   UNL A   1      40.620 -22.041 -38.836  0.00  0.00    -0.010 C 
ATOM     46  C   UNL A   1      41.068 -20.806 -39.609  0.00  0.00    -0.047 C 
ATOM     47  C   UNL A   1      39.891 -19.863 -39.801  0.00  0.00    -0.049 C 
ATOM     48  C   UNL A   1      39.363 -19.383 -38.449  0.00  0.00    -0.024 C 
ENDBRANCH  33  35
ENDBRANCH  32  33
ENDBRANCH  31  32
ENDBRANCH  30  31
ENDBRANCH  29  30
ENDBRANCH  28  29
ENDBRANCH  27  28
ENDBRANCH  26  27
ENDBRANCH   3  26
TORSDOF 14
ENDMDL
MODEL 15
REMARK VINA RESULT:    -6.284     18.190     22.091
REMARK INTER + INTRA:         -16.714
REMARK INTER:                 -12.691
REMARK INTRA:                  -4.023
REMARK UNBOUND:                -5.287
REMARK  Name = cpd37.pdb
REMARK  16 active torsions:
REMARK  status: ('A' for Active; 'I' for Inactive)
REMARK    1  A    between atoms: C_1  and  C_2
REMARK    2  A    between atoms: C_6  and  N_7
REMARK    3  A    between atoms: N_7  and  C_8
REMARK    4  A    between atoms: C_13  and  C_14
REMARK    5  A    between atoms: N_16  and  C_17
REMARK    6  A    between atoms: C_17  and  C_18
REMARK    7  A    between atoms: N_20  and  C_21
REMARK    8  A    between atoms: C_21  and  C_22
REMARK    9  A    between atoms: C_22  and  C_23
REMARK   10  A    between atoms: C_23  and  C_24
REMARK   11  A    between atoms: C_24  and  C_25
REMARK   12  A    between atoms: C_25  and  C_26
REMARK   13  A    between atoms: C_26  and  C_27
REMARK   14  A    between atoms: C_27  and  N_28
REMARK   15  A    between atoms: N_28  and  C_29
REMARK   16  A    between atoms: C_43  and  C_44
REMARK                            x       y       z     vdW  Elec       q    Type
REMARK                         _______ _______ _______ _____ _____    ______ ____
ROOT
ATOM      1  C   UNL A   1      31.511 -37.435 -26.975  0.00  0.00    +0.230 C 
ATOM      2  O   UNL A   1      31.354 -38.006 -25.899  0.00  0.00    -0.274 OA
ATOM      3  N   UNL A   1      30.517 -36.710 -27.598  0.00  0.00    -0.314 N 
ATOM      4  H   UNL A   1      30.663 -36.411 -28.525  0.00  0.00    +0.000 HD
ENDROOT
BRANCH   1   5
ATOM      5  C   UNL A   1      32.808 -37.580 -27.786  0.00  0.00    +0.088 C 
BRANCH   5   8
ATOM      6  C   UNL A   1      35.229 -38.118 -27.330  0.00  0.00    +0.246 C 
ATOM      7  O   UNL A   1      36.210 -37.622 -26.787  0.00  0.00    -0.270 OA
ATOM      8  N   UNL A   1      33.973 -37.749 -26.911  0.00  0.00    -0.303 N 
ATOM      9  H   UNL A   1      33.844 -37.586 -25.948  0.00  0.00    +0.000 HD
BRANCH   6  15
ATOM     10  C   UNL A   1      36.124 -38.789 -29.603  0.00  0.00    +0.044 A 
ATOM     11  C   UNL A   1      36.222 -39.790 -30.585  0.00  0.00    -0.040 A 
ATOM     12  C   UNL A   1      35.553 -41.010 -30.449  0.00  0.00    -0.060 A 
ATOM     13  C   UNL A   1      34.779 -41.261 -29.319  0.00  0.00    -0.061 A 
ATOM     14  C   UNL A   1      34.693 -40.301 -28.315  0.00  0.00    -0.048 A 
ATOM     15  C   UNL A   1      35.384 -39.086 -28.439  0.00  0.00    +0.058 A 
BRANCH  10  16
ATOM     16  N   UNL A   1      36.823 -37.564 -29.763  0.00  0.00    -0.314 N 
ATOM     17  H   UNL A   1      36.268 -36.757 -29.863  0.00  0.00    +0.000 HD
BRANCH  16  23
ATOM     18  C   UNL A   1      40.880 -35.743 -32.056  0.00  0.00    -0.039 C 
ATOM     19  C   UNL A   1      40.213 -36.521 -30.953  0.00  0.00    -0.046 A 
ATOM     20  C   UNL A   1      41.021 -37.162 -30.002  0.00  0.00    -0.058 A 
ATOM     21  C   UNL A   1      40.453 -37.909 -28.975  0.00  0.00    -0.060 A 
ATOM     22  C   UNL A   1      39.069 -38.022 -28.883  0.00  0.00    -0.040 A 
ATOM     23  C   UNL A   1      38.231 -37.366 -29.796  0.00  0.00    +0.035 A 
ATOM     24  C   UNL A   1      38.804 -36.606 -30.843  0.00  0.00    -0.026 A 
ATOM     25  C   UNL A   1      37.912 -35.930 -31.857  0.00  0.00    -0.038 C 
ENDBRANCH  16  23
ENDBRANCH  10  16
ENDBRANCH   6  15
ENDBRANCH   5   8
ENDBRANCH   1   5
BRANCH   3  26
ATOM     26  C   UNL A   1      29.268 -36.368 -26.947  0.00  0.00    +0.012 C 
BRANCH  26  27
ATOM     27  C   UNL A   1      28.610 -35.190 -27.660  0.00  0.00    -0.037 C 
BRANCH  27  28
ATOM     28  C   UNL A   1      29.627 -34.128 -28.080  0.00  0.00    -0.052 C 
BRANCH  28  29
ATOM     29  C   UNL A   1      28.956 -33.065 -28.954  0.00  0.00    -0.053 C 
BRANCH  29  30
ATOM     30  C   UNL A   1      29.920 -32.342 -29.897  0.00  0.00    -0.052 C 
BRANCH  30  31
ATOM     31  C   UNL A   1      29.558 -32.503 -31.374  0.00  0.00    -0.037 C 
BRANCH  31  32
ATOM     32  C   UNL A   1      29.710 -33.959 -31.820  0.00  0.00    +0.009 C 
BRANCH  32  33
ATOM     33  N   UNL A   1      30.846 -34.066 -32.748  0.00  0.00    -0.343 N 
ATOM     34  H   UNL A   1      30.860 -33.687 -33.656  0.00  0.00    +0.000 HD
BRANCH  33  35
ATOM     35  C   UNL A   1      31.925 -34.794 -32.158  0.00  0.00    +0.041 A 
ATOM     36  C   UNL A   1      31.842 -36.199 -32.105  0.00  0.00    -0.005 A 
ATOM     37  C   UNL A   1      32.888 -36.886 -31.488  0.00  0.00    +0.047 A 
ATOM     38  N   UNL A   1      33.942 -36.265 -30.905  0.00  0.00    -0.251 NA
ATOM     39  C   UNL A   1      34.010 -34.929 -30.939  0.00  0.00    +0.073 A 
ATOM     40  C   UNL A   1      35.103 -34.321 -30.335  0.00  0.00    -0.036 A 
ATOM     41  C   UNL A   1      35.263 -32.934 -30.314  0.00  0.00    -0.060 A 
ATOM     42  C   UNL A   1      34.307 -32.127 -30.910  0.00  0.00    -0.061 A 
ATOM     43  C   UNL A   1      33.201 -32.715 -31.524  0.00  0.00    -0.051 A 
ATOM     44  C   UNL A   1      33.028 -34.124 -31.551  0.00  0.00    +0.021 A 
ATOM     45  C   UNL A   1      32.891 -38.389 -31.376  0.00  0.00    -0.010 C 
ATOM     46  C   UNL A   1      31.991 -39.071 -32.399  0.00  0.00    -0.047 C 
ATOM     47  C   UNL A   1      30.619 -38.416 -32.397  0.00  0.00    -0.049 C 
ATOM     48  C   UNL A   1      30.726 -36.945 -32.799  0.00  0.00    -0.024 C 
ENDBRANCH  33  35
ENDBRANCH  32  33
ENDBRANCH  31  32
ENDBRANCH  30  31
ENDBRANCH  29  30
ENDBRANCH  28  29
ENDBRANCH  27  28
ENDBRANCH  26  27
ENDBRANCH   3  26
TORSDOF 14
ENDMDL
MODEL 16
REMARK VINA RESULT:    -6.198      2.334      7.084
REMARK INTER + INTRA:         -16.557
REMARK INTER:                 -10.866
REMARK INTRA:                  -5.691
REMARK UNBOUND:                -5.287
REMARK  Name = cpd37.pdb
REMARK  16 active torsions:
REMARK  status: ('A' for Active; 'I' for Inactive)
REMARK    1  A    between atoms: C_1  and  C_2
REMARK    2  A    between atoms: C_6  and  N_7
REMARK    3  A    between atoms: N_7  and  C_8
REMARK    4  A    between atoms: C_13  and  C_14
REMARK    5  A    between atoms: N_16  and  C_17
REMARK    6  A    between atoms: C_17  and  C_18
REMARK    7  A    between atoms: N_20  and  C_21
REMARK    8  A    between atoms: C_21  and  C_22
REMARK    9  A    between atoms: C_22  and  C_23
REMARK   10  A    between atoms: C_23  and  C_24
REMARK   11  A    between atoms: C_24  and  C_25
REMARK   12  A    between atoms: C_25  and  C_26
REMARK   13  A    between atoms: C_26  and  C_27
REMARK   14  A    between atoms: C_27  and  N_28
REMARK   15  A    between atoms: N_28  and  C_29
REMARK   16  A    between atoms: C_43  and  C_44
REMARK                            x       y       z     vdW  Elec       q    Type
REMARK                         _______ _______ _______ _____ _____    ______ ____
ROOT
ATOM      1  C   UNL A   1      41.139 -21.869 -38.519  0.00  0.00    +0.230 C 
ATOM      2  O   UNL A   1      40.405 -22.839 -38.347  0.00  0.00    -0.274 OA
ATOM      3  N   UNL A   1      40.765 -20.575 -38.219  0.00  0.00    -0.314 N 
ATOM      4  H   UNL A   1      41.340 -19.837 -38.525  0.00  0.00    +0.000 HD
ENDROOT
BRANCH   1   5
ATOM      5  C   UNL A   1      42.510 -22.002 -39.201  0.00  0.00    +0.088 C 
BRANCH   5   8
ATOM      6  C   UNL A   1      43.784 -20.896 -41.073  0.00  0.00    +0.246 C 
ATOM      7  O   UNL A   1      43.625 -20.561 -42.242  0.00  0.00    -0.270 OA
ATOM      8  N   UNL A   1      42.690 -20.992 -40.247  0.00  0.00    -0.303 N 
ATOM      9  H   UNL A   1      41.971 -20.330 -40.367  0.00  0.00    +0.000 HD
BRANCH   6  15
ATOM     10  C   UNL A   1      45.809 -20.387 -39.637  0.00  0.00    +0.044 A 
ATOM     11  C   UNL A   1      47.079 -20.800 -39.198  0.00  0.00    -0.040 A 
ATOM     12  C   UNL A   1      47.683 -21.955 -39.703  0.00  0.00    -0.060 A 
ATOM     13  C   UNL A   1      47.024 -22.731 -40.651  0.00  0.00    -0.061 A 
ATOM     14  C   UNL A   1      45.751 -22.364 -41.080  0.00  0.00    -0.048 A 
ATOM     15  C   UNL A   1      45.133 -21.219 -40.555  0.00  0.00    +0.058 A 
BRANCH  10  16
ATOM     16  N   UNL A   1      45.216 -19.216 -39.100  0.00  0.00    -0.314 N 
ATOM     17  H   UNL A   1      44.696 -19.332 -38.272  0.00  0.00    +0.000 HD
BRANCH  16  23
ATOM     18  C   UNL A   1      42.915 -14.994 -40.487  0.00  0.00    -0.039 C 
ATOM     19  C   UNL A   1      44.142 -15.854 -40.346  0.00  0.00    -0.046 A 
ATOM     20  C   UNL A   1      45.360 -15.373 -40.850  0.00  0.00    -0.058 A 
ATOM     21  C   UNL A   1      46.518 -16.139 -40.761  0.00  0.00    -0.060 A 
ATOM     22  C   UNL A   1      46.475 -17.395 -40.164  0.00  0.00    -0.040 A 
ATOM     23  C   UNL A   1      45.283 -17.893 -39.618  0.00  0.00    +0.035 A 
ATOM     24  C   UNL A   1      44.102 -17.117 -39.707  0.00  0.00    -0.026 A 
ATOM     25  C   UNL A   1      42.803 -17.661 -39.162  0.00  0.00    -0.038 C 
ENDBRANCH  16  23
ENDBRANCH  10  16
ENDBRANCH   6  15
ENDBRANCH   5   8
ENDBRANCH   1   5
BRANCH   3  26
ATOM     26  C   UNL A   1      39.563 -20.258 -37.474  0.00  0.00    +0.012 C 
BRANCH  26  27
ATOM     27  C   UNL A   1      39.796 -19.026 -36.604  0.00  0.00    -0.037 C 
BRANCH  27  28
ATOM     28  C   UNL A   1      40.943 -19.228 -35.612  0.00  0.00    -0.052 C 
BRANCH  28  29
ATOM     29  C   UNL A   1      40.924 -18.130 -34.546  0.00  0.00    -0.053 C 
BRANCH  29  30
ATOM     30  C   UNL A   1      40.877 -16.712 -35.119  0.00  0.00    -0.052 C 
BRANCH  30  31
ATOM     31  C   UNL A   1      41.738 -15.715 -34.342  0.00  0.00    -0.037 C 
BRANCH  31  32
ATOM     32  C   UNL A   1      43.228 -15.994 -34.555  0.00  0.00    +0.009 C 
BRANCH  32  33
ATOM     33  N   UNL A   1      43.451 -16.394 -35.952  0.00  0.00    -0.343 N 
ATOM     34  H   UNL A   1      42.740 -16.482 -36.627  0.00  0.00    +0.000 HD
BRANCH  33  35
ATOM     35  C   UNL A   1      44.838 -16.637 -36.202  0.00  0.00    +0.041 A 
ATOM     36  C   UNL A   1      45.393 -17.862 -35.785  0.00  0.00    -0.005 A 
ATOM     37  C   UNL A   1      46.757 -18.062 -36.002  0.00  0.00    +0.047 A 
ATOM     38  N   UNL A   1      47.567 -17.122 -36.547  0.00  0.00    -0.251 NA
ATOM     39  C   UNL A   1      47.041 -15.950 -36.926  0.00  0.00    +0.073 A 
ATOM     40  C   UNL A   1      47.896 -15.008 -37.483  0.00  0.00    -0.036 A 
ATOM     41  C   UNL A   1      47.444 -13.756 -37.905  0.00  0.00    -0.060 A 
ATOM     42  C   UNL A   1      46.105 -13.430 -37.769  0.00  0.00    -0.061 A 
ATOM     43  C   UNL A   1      45.227 -14.362 -37.212  0.00  0.00    -0.051 A 
ATOM     44  C   UNL A   1      45.675 -15.638 -36.779  0.00  0.00    +0.021 A 
ATOM     45  C   UNL A   1      47.447 -19.336 -35.588  0.00  0.00    -0.010 C 
ATOM     46  C   UNL A   1      46.492 -20.512 -35.423  0.00  0.00    -0.047 C 
ATOM     47  C   UNL A   1      45.308 -20.098 -34.564  0.00  0.00    -0.049 C 
ATOM     48  C   UNL A   1      44.525 -18.970 -35.236  0.00  0.00    -0.024 C 
ENDBRANCH  33  35
ENDBRANCH  32  33
ENDBRANCH  31  32
ENDBRANCH  30  31
ENDBRANCH  29  30
ENDBRANCH  28  29
ENDBRANCH  27  28
ENDBRANCH  26  27
ENDBRANCH   3  26
TORSDOF 14
ENDMDL
MODEL 17
REMARK VINA RESULT:    -6.183      1.926      5.651
REMARK INTER + INTRA:         -16.530
REMARK INTER:                 -11.792
REMARK INTRA:                  -4.738
REMARK UNBOUND:                -5.287
REMARK  Name = cpd37.pdb
REMARK  16 active torsions:
REMARK  status: ('A' for Active; 'I' for Inactive)
REMARK    1  A    between atoms: C_1  and  C_2
REMARK    2  A    between atoms: C_6  and  N_7
REMARK    3  A    between atoms: N_7  and  C_8
REMARK    4  A    between atoms: C_13  and  C_14
REMARK    5  A    between atoms: N_16  and  C_17
REMARK    6  A    between atoms: C_17  and  C_18
REMARK    7  A    between atoms: N_20  and  C_21
REMARK    8  A    between atoms: C_21  and  C_22
REMARK    9  A    between atoms: C_22  and  C_23
REMARK   10  A    between atoms: C_23  and  C_24
REMARK   11  A    between atoms: C_24  and  C_25
REMARK   12  A    between atoms: C_25  and  C_26
REMARK   13  A    between atoms: C_26  and  C_27
REMARK   14  A    between atoms: C_27  and  N_28
REMARK   15  A    between atoms: N_28  and  C_29
REMARK   16  A    between atoms: C_43  and  C_44
REMARK                            x       y       z     vdW  Elec       q    Type
REMARK                         _______ _______ _______ _____ _____    ______ ____
ROOT
ATOM      1  C   UNL A   1      44.944 -16.766 -40.073  0.00  0.00    +0.230 C 
ATOM      2  O   UNL A   1      44.712 -15.941 -40.953  0.00  0.00    -0.274 OA
ATOM      3  N   UNL A   1      44.235 -16.831 -38.892  0.00  0.00    -0.314 N 
ATOM      4  H   UNL A   1      44.572 -17.410 -38.171  0.00  0.00    +0.000 HD
ENDROOT
BRANCH   1   5
ATOM      5  C   UNL A   1      46.136 -17.732 -40.163  0.00  0.00    +0.088 C 
BRANCH   5   8
ATOM      6  C   UNL A   1      46.222 -20.086 -39.266  0.00  0.00    +0.246 C 
ATOM      7  O   UNL A   1      46.833 -20.747 -38.432  0.00  0.00    -0.270 OA
ATOM      8  N   UNL A   1      46.102 -18.729 -39.088  0.00  0.00    -0.303 N 
ATOM      9  H   UNL A   1      45.985 -18.399 -38.168  0.00  0.00    +0.000 HD
BRANCH   6  15
ATOM     10  C   UNL A   1      44.244 -20.785 -40.686  0.00  0.00    +0.044 A 
ATOM     11  C   UNL A   1      43.798 -21.406 -41.866  0.00  0.00    -0.040 A 
ATOM     12  C   UNL A   1      44.695 -22.010 -42.753  0.00  0.00    -0.060 A 
ATOM     13  C   UNL A   1      46.060 -21.997 -42.484  0.00  0.00    -0.061 A 
ATOM     14  C   UNL A   1      46.532 -21.359 -41.340  0.00  0.00    -0.048 A 
ATOM     15  C   UNL A   1      45.636 -20.730 -40.463  0.00  0.00    +0.058 A 
BRANCH  10  16
ATOM     16  N   UNL A   1      43.313 -20.171 -39.810  0.00  0.00    -0.314 N 
ATOM     17  H   UNL A   1      43.008 -19.269 -40.062  0.00  0.00    +0.000 HD
BRANCH  16  23
ATOM     18  C   UNL A   1      39.512 -22.327 -37.372  0.00  0.00    -0.039 C 
ATOM     19  C   UNL A   1      40.883 -21.707 -37.414  0.00  0.00    -0.046 A 
ATOM     20  C   UNL A   1      41.585 -21.550 -36.210  0.00  0.00    -0.058 A 
ATOM     21  C   UNL A   1      42.848 -20.965 -36.194  0.00  0.00    -0.060 A 
ATOM     22  C   UNL A   1      43.426 -20.531 -37.383  0.00  0.00    -0.040 A 
ATOM     23  C   UNL A   1      42.768 -20.704 -38.610  0.00  0.00    +0.035 A 
ATOM     24  C   UNL A   1      41.483 -21.298 -38.630  0.00  0.00    -0.026 A 
ATOM     25  C   UNL A   1      40.746 -21.450 -39.939  0.00  0.00    -0.038 C 
ENDBRANCH  16  23
ENDBRANCH  10  16
ENDBRANCH   6  15
ENDBRANCH   5   8
ENDBRANCH   1   5
BRANCH   3  26
ATOM     26  C   UNL A   1      43.014 -16.082 -38.666  0.00  0.00    +0.012 C 
BRANCH  26  27
ATOM     27  C   UNL A   1      41.815 -17.026 -38.655  0.00  0.00    -0.037 C 
BRANCH  27  28
ATOM     28  C   UNL A   1      40.951 -16.848 -37.406  0.00  0.00    -0.052 C 
BRANCH  28  29
ATOM     29  C   UNL A   1      40.430 -18.202 -36.921  0.00  0.00    -0.053 C 
BRANCH  29  30
ATOM     30  C   UNL A   1      38.999 -18.510 -37.366  0.00  0.00    -0.052 C 
BRANCH  30  31
ATOM     31  C   UNL A   1      38.100 -18.994 -36.227  0.00  0.00    -0.037 C 
BRANCH  31  32
ATOM     32  C   UNL A   1      38.047 -17.966 -35.095  0.00  0.00    +0.009 C 
BRANCH  32  33
ATOM     33  N   UNL A   1      37.917 -18.666 -33.809  0.00  0.00    -0.343 N 
ATOM     34  H   UNL A   1      37.136 -18.596 -33.214  0.00  0.00    +0.000 HD
BRANCH  33  35
ATOM     35  C   UNL A   1      39.073 -19.461 -33.537  0.00  0.00    +0.041 A 
ATOM     36  C   UNL A   1      38.925 -20.859 -33.446  0.00  0.00    -0.005 A 
ATOM     37  C   UNL A   1      40.059 -21.611 -33.139  0.00  0.00    +0.047 A 
ATOM     38  N   UNL A   1      41.269 -21.058 -32.882  0.00  0.00    -0.251 NA
ATOM     39  C   UNL A   1      41.404 -19.727 -32.950  0.00  0.00    +0.073 A 
ATOM     40  C   UNL A   1      42.657 -19.190 -32.684  0.00  0.00    -0.036 A 
ATOM     41  C   UNL A   1      42.898 -17.815 -32.725  0.00  0.00    -0.060 A 
ATOM     42  C   UNL A   1      41.864 -16.949 -33.040  0.00  0.00    -0.061 A 
ATOM     43  C   UNL A   1      40.597 -17.466 -33.311  0.00  0.00    -0.051 A 
ATOM     44  C   UNL A   1      40.340 -18.862 -33.272  0.00  0.00    +0.021 A 
ATOM     45  C   UNL A   1      40.004 -23.111 -33.014  0.00  0.00    -0.010 C 
ATOM     46  C   UNL A   1      38.814 -23.732 -33.736  0.00  0.00    -0.047 C 
ATOM     47  C   UNL A   1      37.539 -22.995 -33.357  0.00  0.00    -0.049 C 
ATOM     48  C   UNL A   1      37.617 -21.532 -33.790  0.00  0.00    -0.024 C 
ENDBRANCH  33  35
ENDBRANCH  32  33
ENDBRANCH  31  32
ENDBRANCH  30  31
ENDBRANCH  29  30
ENDBRANCH  28  29
ENDBRANCH  27  28
ENDBRANCH  26  27
ENDBRANCH   3  26
TORSDOF 14
ENDMDL
MODEL 18
REMARK VINA RESULT:    -6.024      2.628      6.668
REMARK INTER + INTRA:         -16.240
REMARK INTER:                 -11.510
REMARK INTRA:                  -4.730
REMARK UNBOUND:                -5.287
REMARK  Name = cpd37.pdb
REMARK  16 active torsions:
REMARK  status: ('A' for Active; 'I' for Inactive)
REMARK    1  A    between atoms: C_1  and  C_2
REMARK    2  A    between atoms: C_6  and  N_7
REMARK    3  A    between atoms: N_7  and  C_8
REMARK    4  A    between atoms: C_13  and  C_14
REMARK    5  A    between atoms: N_16  and  C_17
REMARK    6  A    between atoms: C_17  and  C_18
REMARK    7  A    between atoms: N_20  and  C_21
REMARK    8  A    between atoms: C_21  and  C_22
REMARK    9  A    between atoms: C_22  and  C_23
REMARK   10  A    between atoms: C_23  and  C_24
REMARK   11  A    between atoms: C_24  and  C_25
REMARK   12  A    between atoms: C_25  and  C_26
REMARK   13  A    between atoms: C_26  and  C_27
REMARK   14  A    between atoms: C_27  and  N_28
REMARK   15  A    between atoms: N_28  and  C_29
REMARK   16  A    between atoms: C_43  and  C_44
REMARK                            x       y       z     vdW  Elec       q    Type
REMARK                         _______ _______ _______ _____ _____    ______ ____
ROOT
ATOM      1  C   UNL A   1      40.600 -18.682 -33.468  0.00  0.00    +0.230 C 
ATOM      2  O   UNL A   1      39.975 -18.329 -34.465  0.00  0.00    -0.274 OA
ATOM      3  N   UNL A   1      40.381 -19.882 -32.824  0.00  0.00    -0.314 N 
ATOM      4  H   UNL A   1      40.805 -20.031 -31.948  0.00  0.00    +0.000 HD
ENDROOT
BRANCH   1   5
ATOM      5  C   UNL A   1      41.610 -17.754 -32.775  0.00  0.00    +0.088 C 
BRANCH   5   8
ATOM      6  C   UNL A   1      44.115 -17.543 -32.596  0.00  0.00    +0.246 C 
ATOM      7  O   UNL A   1      45.071 -18.136 -32.106  0.00  0.00    -0.270 OA
ATOM      8  N   UNL A   1      42.982 -18.249 -32.920  0.00  0.00    -0.303 N 
ATOM      9  H   UNL A   1      43.100 -19.160 -33.277  0.00  0.00    +0.000 HD
BRANCH   6  15
ATOM     10  C   UNL A   1      44.146 -15.511 -34.111  0.00  0.00    +0.044 A 
ATOM     11  C   UNL A   1      44.178 -14.109 -34.205  0.00  0.00    -0.040 A 
ATOM     12  C   UNL A   1      44.296 -13.307 -33.066  0.00  0.00    -0.060 A 
ATOM     13  C   UNL A   1      44.372 -13.890 -31.804  0.00  0.00    -0.061 A 
ATOM     14  C   UNL A   1      44.308 -15.275 -31.679  0.00  0.00    -0.048 A 
ATOM     15  C   UNL A   1      44.164 -16.080 -32.820  0.00  0.00    +0.058 A 
BRANCH  10  16
ATOM     16  N   UNL A   1      44.015 -16.301 -35.282  0.00  0.00    -0.314 N 
ATOM     17  H   UNL A   1      43.170 -16.796 -35.381  0.00  0.00    +0.000 HD
BRANCH  16  23
ATOM     18  C   UNL A   1      47.297 -19.166 -37.745  0.00  0.00    -0.039 C 
ATOM     19  C   UNL A   1      46.605 -17.852 -37.493  0.00  0.00    -0.046 A 
ATOM     20  C   UNL A   1      46.999 -16.733 -38.241  0.00  0.00    -0.058 A 
ATOM     21  C   UNL A   1      46.404 -15.493 -38.032  0.00  0.00    -0.060 A 
ATOM     22  C   UNL A   1      45.405 -15.356 -37.073  0.00  0.00    -0.040 A 
ATOM     23  C   UNL A   1      44.963 -16.461 -36.331  0.00  0.00    +0.035 A 
ATOM     24  C   UNL A   1      45.566 -17.724 -36.540  0.00  0.00    -0.026 A 
ATOM     25  C   UNL A   1      45.127 -18.912 -35.717  0.00  0.00    -0.038 C 
ENDBRANCH  16  23
ENDBRANCH  10  16
ENDBRANCH   6  15
ENDBRANCH   5   8
ENDBRANCH   1   5
BRANCH   3  26
ATOM     26  C   UNL A   1      39.553 -20.933 -33.382  0.00  0.00    +0.012 C 
BRANCH  26  27
ATOM     27  C   UNL A   1      40.429 -22.054 -33.933  0.00  0.00    -0.037 C 
BRANCH  27  28
ATOM     28  C   UNL A   1      40.665 -21.917 -35.438  0.00  0.00    -0.052 C 
BRANCH  28  29
ATOM     29  C   UNL A   1      39.368 -21.516 -36.146  0.00  0.00    -0.053 C 
BRANCH  29  30
ATOM     30  C   UNL A   1      39.558 -21.135 -37.615  0.00  0.00    -0.052 C 
BRANCH  30  31
ATOM     31  C   UNL A   1      40.696 -20.138 -37.841  0.00  0.00    -0.037 C 
BRANCH  31  32
ATOM     32  C   UNL A   1      41.775 -20.735 -38.749  0.00  0.00    +0.009 C 
BRANCH  32  33
ATOM     33  N   UNL A   1      43.096 -20.270 -38.302  0.00  0.00    -0.343 N 
ATOM     34  H   UNL A   1      43.464 -20.418 -37.401  0.00  0.00    +0.000 HD
BRANCH  33  35
ATOM     35  C   UNL A   1      43.776 -19.572 -39.349  0.00  0.00    +0.041 A 
ATOM     36  C   UNL A   1      44.764 -20.256 -40.084  0.00  0.00    -0.005 A 
ATOM     37  C   UNL A   1      45.443 -19.544 -41.073  0.00  0.00    +0.047 A 
ATOM     38  N   UNL A   1      45.228 -18.229 -41.321  0.00  0.00    -0.251 NA
ATOM     39  C   UNL A   1      44.301 -17.576 -40.608  0.00  0.00    +0.073 A 
ATOM     40  C   UNL A   1      44.102 -16.230 -40.887  0.00  0.00    -0.036 A 
ATOM     41  C   UNL A   1      43.163 -15.461 -40.196  0.00  0.00    -0.060 A 
ATOM     42  C   UNL A   1      42.400 -16.047 -39.199  0.00  0.00    -0.061 A 
ATOM     43  C   UNL A   1      42.583 -17.398 -38.903  0.00  0.00    -0.051 A 
ATOM     44  C   UNL A   1      43.535 -18.189 -39.598  0.00  0.00    +0.021 A 
ATOM     45  C   UNL A   1      46.521 -20.183 -41.910  0.00  0.00    -0.010 C 
ATOM     46  C   UNL A   1      46.427 -21.703 -41.953  0.00  0.00    -0.047 C 
ATOM     47  C   UNL A   1      46.283 -22.250 -40.542  0.00  0.00    -0.049 C 
ATOM     48  C   UNL A   1      44.995 -21.737 -39.897  0.00  0.00    -0.024 C 
ENDBRANCH  33  35
ENDBRANCH  32  33
ENDBRANCH  31  32
ENDBRANCH  30  31
ENDBRANCH  29  30
ENDBRANCH  28  29
ENDBRANCH  27  28
ENDBRANCH  26  27
ENDBRANCH   3  26
TORSDOF 14
ENDMDL
MODEL 19
REMARK VINA RESULT:    -6.020      2.499      7.554
REMARK INTER + INTRA:         -16.233
REMARK INTER:                 -10.953
REMARK INTRA:                  -5.280
REMARK UNBOUND:                -5.287
REMARK  Name = cpd37.pdb
REMARK  16 active torsions:
REMARK  status: ('A' for Active; 'I' for Inactive)
REMARK    1  A    between atoms: C_1  and  C_2
REMARK    2  A    between atoms: C_6  and  N_7
REMARK    3  A    between atoms: N_7  and  C_8
REMARK    4  A    between atoms: C_13  and  C_14
REMARK    5  A    between atoms: N_16  and  C_17
REMARK    6  A    between atoms: C_17  and  C_18
REMARK    7  A    between atoms: N_20  and  C_21
REMARK    8  A    between atoms: C_21  and  C_22
REMARK    9  A    between atoms: C_22  and  C_23
REMARK   10  A    between atoms: C_23  and  C_24
REMARK   11  A    between atoms: C_24  and  C_25
REMARK   12  A    between atoms: C_25  and  C_26
REMARK   13  A    between atoms: C_26  and  C_27
REMARK   14  A    between atoms: C_27  and  N_28
REMARK   15  A    between atoms: N_28  and  C_29
REMARK   16  A    between atoms: C_43  and  C_44
REMARK                            x       y       z     vdW  Elec       q    Type
REMARK                         _______ _______ _______ _____ _____    ______ ____
ROOT
ATOM      1  C   UNL A   1      42.626 -14.821 -34.088  0.00  0.00    +0.230 C 
ATOM      2  O   UNL A   1      42.857 -13.961 -33.242  0.00  0.00    -0.274 OA
ATOM      3  N   UNL A   1      42.813 -14.621 -35.440  0.00  0.00    -0.314 N 
ATOM      4  H   UNL A   1      42.464 -15.293 -36.068  0.00  0.00    +0.000 HD
ENDROOT
BRANCH   1   5
ATOM      5  C   UNL A   1      41.990 -16.170 -33.718  0.00  0.00    +0.088 C 
BRANCH   5   8
ATOM      6  C   UNL A   1      42.981 -18.340 -32.905  0.00  0.00    +0.246 C 
ATOM      7  O   UNL A   1      44.079 -18.863 -32.742  0.00  0.00    -0.270 OA
ATOM      8  N   UNL A   1      42.880 -16.970 -32.871  0.00  0.00    -0.303 N 
ATOM      9  H   UNL A   1      43.449 -16.488 -32.229  0.00  0.00    +0.000 HD
BRANCH   6  15
ATOM     10  C   UNL A   1      41.673 -20.026 -34.272  0.00  0.00    +0.044 A 
ATOM     11  C   UNL A   1      40.493 -20.777 -34.405  0.00  0.00    -0.040 A 
ATOM     12  C   UNL A   1      39.431 -20.627 -33.507  0.00  0.00    -0.060 A 
ATOM     13  C   UNL A   1      39.532 -19.729 -32.449  0.00  0.00    -0.061 A 
ATOM     14  C   UNL A   1      40.703 -18.997 -32.274  0.00  0.00    -0.048 A 
ATOM     15  C   UNL A   1      41.779 -19.166 -33.159  0.00  0.00    +0.058 A 
BRANCH  10  16
ATOM     16  N   UNL A   1      42.739 -20.206 -35.191  0.00  0.00    -0.314 N 
ATOM     17  H   UNL A   1      43.636 -20.318 -34.801  0.00  0.00    +0.000 HD
BRANCH  16  23
ATOM     18  C   UNL A   1      42.471 -17.804 -39.573  0.00  0.00    -0.039 C 
ATOM     19  C   UNL A   1      42.476 -19.061 -38.744  0.00  0.00    -0.046 A 
ATOM     20  C   UNL A   1      42.282 -20.290 -39.390  0.00  0.00    -0.058 A 
ATOM     21  C   UNL A   1      42.259 -21.478 -38.666  0.00  0.00    -0.060 A 
ATOM     22  C   UNL A   1      42.433 -21.452 -37.285  0.00  0.00    -0.040 A 
ATOM     23  C   UNL A   1      42.664 -20.244 -36.611  0.00  0.00    +0.035 A 
ATOM     24  C   UNL A   1      42.687 -19.033 -37.344  0.00  0.00    -0.026 A 
ATOM     25  C   UNL A   1      42.892 -17.723 -36.623  0.00  0.00    -0.038 C 
ENDBRANCH  16  23
ENDBRANCH  10  16
ENDBRANCH   6  15
ENDBRANCH   5   8
ENDBRANCH   1   5
BRANCH   3  26
ATOM     26  C   UNL A   1      43.502 -13.463 -35.974  0.00  0.00    +0.012 C 
BRANCH  26  27
ATOM     27  C   UNL A   1      44.935 -13.832 -36.349  0.00  0.00    -0.037 C 
BRANCH  27  28
ATOM     28  C   UNL A   1      45.428 -13.063 -37.575  0.00  0.00    -0.052 C 
BRANCH  28  29
ATOM     29  C   UNL A   1      46.588 -13.809 -38.240  0.00  0.00    -0.053 C 
BRANCH  29  30
ATOM     30  C   UNL A   1      46.171 -14.648 -39.450  0.00  0.00    -0.052 C 
BRANCH  30  31
ATOM     31  C   UNL A   1      47.356 -15.148 -40.278  0.00  0.00    -0.037 C 
BRANCH  31  32
ATOM     32  C   UNL A   1      47.283 -16.664 -40.479  0.00  0.00    +0.009 C 
BRANCH  32  33
ATOM     33  N   UNL A   1      45.958 -17.146 -40.061  0.00  0.00    -0.343 N 
ATOM     34  H   UNL A   1      45.117 -16.651 -40.197  0.00  0.00    +0.000 HD
BRANCH  33  35
ATOM     35  C   UNL A   1      46.051 -18.426 -39.431  0.00  0.00    +0.041 A 
ATOM     36  C   UNL A   1      45.815 -19.578 -40.207  0.00  0.00    -0.005 A 
ATOM     37  C   UNL A   1      45.871 -20.814 -39.562  0.00  0.00    +0.047 A 
ATOM     38  N   UNL A   1      46.093 -20.948 -38.233  0.00  0.00    -0.251 NA
ATOM     39  C   UNL A   1      46.299 -19.851 -37.493  0.00  0.00    +0.073 A 
ATOM     40  C   UNL A   1      46.527 -20.020 -36.134  0.00  0.00    -0.036 A 
ATOM     41  C   UNL A   1      46.748 -18.939 -35.278  0.00  0.00    -0.060 A 
ATOM     42  C   UNL A   1      46.741 -17.651 -35.789  0.00  0.00    -0.061 A 
ATOM     43  C   UNL A   1      46.515 -17.456 -37.152  0.00  0.00    -0.051 A 
ATOM     44  C   UNL A   1      46.289 -18.548 -38.031  0.00  0.00    +0.021 A 
ATOM     45  C   UNL A   1      45.628 -22.104 -40.302  0.00  0.00    -0.010 C 
ATOM     46  C   UNL A   1      45.842 -21.985 -41.806  0.00  0.00    -0.047 C 
ATOM     47  C   UNL A   1      45.095 -20.773 -42.339  0.00  0.00    -0.049 C 
ATOM     48  C   UNL A   1      45.631 -19.491 -41.704  0.00  0.00    -0.024 C 
ENDBRANCH  33  35
ENDBRANCH  32  33
ENDBRANCH  31  32
ENDBRANCH  30  31
ENDBRANCH  29  30
ENDBRANCH  28  29
ENDBRANCH  27  28
ENDBRANCH  26  27
ENDBRANCH   3  26
TORSDOF 14
ENDMDL
MODEL 20
REMARK VINA RESULT:    -5.665      2.349      5.645
REMARK INTER + INTRA:         -15.588
REMARK INTER:                  -9.822
REMARK INTRA:                  -5.766
REMARK UNBOUND:                -5.287
REMARK  Name = cpd37.pdb
REMARK  16 active torsions:
REMARK  status: ('A' for Active; 'I' for Inactive)
REMARK    1  A    between atoms: C_1  and  C_2
REMARK    2  A    between atoms: C_6  and  N_7
REMARK    3  A    between atoms: N_7  and  C_8
REMARK    4  A    between atoms: C_13  and  C_14
REMARK    5  A    between atoms: N_16  and  C_17
REMARK    6  A    between atoms: C_17  and  C_18
REMARK    7  A    between atoms: N_20  and  C_21
REMARK    8  A    between atoms: C_21  and  C_22
REMARK    9  A    between atoms: C_22  and  C_23
REMARK   10  A    between atoms: C_23  and  C_24
REMARK   11  A    between atoms: C_24  and  C_25
REMARK   12  A    between atoms: C_25  and  C_26
REMARK   13  A    between atoms: C_26  and  C_27
REMARK   14  A    between atoms: C_27  and  N_28
REMARK   15  A    between atoms: N_28  and  C_29
REMARK   16  A    between atoms: C_43  and  C_44
REMARK                            x       y       z     vdW  Elec       q    Type
REMARK                         _______ _______ _______ _____ _____    ______ ____
ROOT
ATOM      1  C   UNL A   1      41.134 -20.651 -38.747  0.00  0.00    +0.230 C 
ATOM      2  O   UNL A   1      40.483 -20.080 -39.618  0.00  0.00    -0.274 OA
ATOM      3  N   UNL A   1      40.651 -20.890 -37.477  0.00  0.00    -0.314 N 
ATOM      4  H   UNL A   1      41.277 -21.211 -36.788  0.00  0.00    +0.000 HD
ENDROOT
BRANCH   1   5
ATOM      5  C   UNL A   1      42.603 -21.048 -38.964  0.00  0.00    +0.088 C 
BRANCH   5   8
ATOM      6  C   UNL A   1      44.379 -20.523 -40.673  0.00  0.00    +0.246 C 
ATOM      7  O   UNL A   1      44.740 -20.885 -41.788  0.00  0.00    -0.270 OA
ATOM      8  N   UNL A   1      43.065 -20.687 -40.307  0.00  0.00    -0.303 N 
ATOM      9  H   UNL A   1      42.380 -20.551 -41.001  0.00  0.00    +0.000 HD
BRANCH   6  15
ATOM     10  C   UNL A   1      45.424 -18.548 -39.478  0.00  0.00    +0.044 A 
ATOM     11  C   UNL A   1      46.367 -18.102 -38.536  0.00  0.00    -0.040 A 
ATOM     12  C   UNL A   1      47.246 -18.992 -37.910  0.00  0.00    -0.060 A 
ATOM     13  C   UNL A   1      47.192 -20.351 -38.204  0.00  0.00    -0.061 A 
ATOM     14  C   UNL A   1      46.245 -20.825 -39.108  0.00  0.00    -0.048 A 
ATOM     15  C   UNL A   1      45.346 -19.936 -39.718  0.00  0.00    +0.058 A 
BRANCH  10  16
ATOM     16  N   UNL A   1      44.538 -17.625 -40.090  0.00  0.00    -0.314 N 
ATOM     17  H   UNL A   1      44.814 -17.272 -40.966  0.00  0.00    +0.000 HD
BRANCH  16  23
ATOM     18  C   UNL A   1      40.613 -14.543 -40.467  0.00  0.00    -0.039 C 
ATOM     19  C   UNL A   1      41.410 -15.599 -39.748  0.00  0.00    -0.046 A 
ATOM     20  C   UNL A   1      40.967 -16.032 -38.490  0.00  0.00    -0.058 A 
ATOM     21  C   UNL A   1      41.679 -16.992 -37.777  0.00  0.00    -0.060 A 
ATOM     22  C   UNL A   1      42.843 -17.533 -38.315  0.00  0.00    -0.040 A 
ATOM     23  C   UNL A   1      43.296 -17.149 -39.585  0.00  0.00    +0.035 A 
ATOM     24  C   UNL A   1      42.575 -16.172 -40.313  0.00  0.00    -0.026 A 
ATOM     25  C   UNL A   1      43.077 -15.718 -41.663  0.00  0.00    -0.038 C 
ENDBRANCH  16  23
ENDBRANCH  10  16
ENDBRANCH   6  15
ENDBRANCH   5   8
ENDBRANCH   1   5
BRANCH   3  26
ATOM     26  C   UNL A   1      39.262 -20.690 -37.115  0.00  0.00    +0.012 C 
BRANCH  26  27
ATOM     27  C   UNL A   1      39.062 -19.279 -36.569  0.00  0.00    -0.037 C 
BRANCH  27  28
ATOM     28  C   UNL A   1      37.651 -19.066 -36.020  0.00  0.00    -0.052 C 
BRANCH  28  29
ATOM     29  C   UNL A   1      37.558 -17.720 -35.297  0.00  0.00    -0.053 C 
BRANCH  29  30
ATOM     30  C   UNL A   1      38.808 -16.850 -35.446  0.00  0.00    -0.052 C 
BRANCH  30  31
ATOM     31  C   UNL A   1      39.267 -16.218 -34.132  0.00  0.00    -0.037 C 
BRANCH  31  32
ATOM     32  C   UNL A   1      40.787 -16.319 -33.977  0.00  0.00    +0.009 C 
BRANCH  32  33
ATOM     33  N   UNL A   1      41.103 -17.245 -32.880  0.00  0.00    -0.343 N 
ATOM     34  H   UNL A   1      41.125 -16.994 -31.928  0.00  0.00    +0.000 HD
BRANCH  33  35
ATOM     35  C   UNL A   1      41.374 -18.558 -33.377  0.00  0.00    +0.041 A 
ATOM     36  C   UNL A   1      42.570 -18.776 -34.088  0.00  0.00    -0.005 A 
ATOM     37  C   UNL A   1      42.795 -20.055 -34.599  0.00  0.00    +0.047 A 
ATOM     38  N   UNL A   1      41.902 -21.068 -34.482  0.00  0.00    -0.251 NA
ATOM     39  C   UNL A   1      40.757 -20.853 -33.822  0.00  0.00    +0.073 A 
ATOM     40  C   UNL A   1      39.863 -21.911 -33.717  0.00  0.00    -0.036 A 
ATOM     41  C   UNL A   1      38.641 -21.786 -33.053  0.00  0.00    -0.060 A 
ATOM     42  C   UNL A   1      38.297 -20.574 -32.477  0.00  0.00    -0.061 A 
ATOM     43  C   UNL A   1      39.180 -19.498 -32.570  0.00  0.00    -0.051 A 
ATOM     44  C   UNL A   1      40.424 -19.613 -33.243  0.00  0.00    +0.021 A 
ATOM     45  C   UNL A   1      44.040 -20.389 -35.378  0.00  0.00    -0.010 C 
ATOM     46  C   UNL A   1      45.194 -19.431 -35.107  0.00  0.00    -0.047 C 
ATOM     47  C   UNL A   1      44.711 -17.995 -35.228  0.00  0.00    -0.049 C 
ATOM     48  C   UNL A   1      43.629 -17.703 -34.188  0.00  0.00    -0.024 C 
ENDBRANCH  33  35
ENDBRANCH  32  33
ENDBRANCH  31  32
ENDBRANCH  30  31
ENDBRANCH  29  30
ENDBRANCH  28  29
ENDBRANCH  27  28
ENDBRANCH  26  27
ENDBRANCH   3  26
TORSDOF 14
ENDMDL
