@<TRIPOS>MOLECULE
*****
 45 49 0 0 0
SMALL
GASTEIGER

@<TRIPOS>ATOM
      1 C          -0.8660   -1.5000    0.0000 C.3     1  UNL1        0.0307
      2 C          -0.8660   -0.5000    0.0000 C.ar    1  UNL1       -0.0245
      3 C          -1.7321    0.0000    0.0000 C.ar    1  UNL1       -0.0045
      4 C          -1.7321    1.0000    0.0000 C.ar    1  UNL1        0.0010
      5 C          -0.8660    1.5000    0.0000 C.ar    1  UNL1        0.0162
      6 C           0.0000    1.0000    0.0000 C.ar    1  UNL1        0.0662
      7 N           0.8660    1.5000    0.0000 N.pl3   1  UNL1       -0.2127
      8 C           0.8660    2.5000    0.0000 C.ar    1  UNL1        0.0749
      9 C           0.0000    3.0000    0.0000 C.ar    1  UNL1        0.0167
     10 C           0.0000    4.0000    0.0000 C.ar    1  UNL1        0.0013
     11 C           0.8660    4.5000    0.0000 C.ar    1  UNL1        0.0002
     12 C           1.7321    4.0000    0.0000 C.ar    1  UNL1        0.0059
     13 C           1.7321    3.0000    0.0000 C.ar    1  UNL1        0.0702
     14 C           2.5981    2.5000    0.0000 C.2     1  UNL1        0.2660
     15 O           2.5981    1.5000    0.0000 O.2     1  UNL1       -0.2683
     16 N           3.4641    3.0000    0.0000 N.am    1  UNL1       -0.2016
     17 C           3.4641    4.0000    0.0000 C.3     1  UNL1        0.1155
     18 C           4.3301    4.5000    0.0000 C.3     1  UNL1        0.0235
     19 C           5.1962    4.0000    0.0000 C.3     1  UNL1        0.0023
     20 C           6.0622    4.5000    0.0000 C.3     1  UNL1        0.0097
     21 C           6.9282    4.0000    0.0000 C.3     1  UNL1        0.0868
     22 C           7.7942    4.5000    0.0000 C.2     1  UNL1        0.2414
     23 O           8.6603    4.0000    0.0000 O.2     1  UNL1       -0.2733
     24 N           7.7942    5.5000    0.0000 N.am    1  UNL1       -0.2054
     25 C           8.6603    6.0000    0.0000 C.3     1  UNL1        0.1152
     26 C           9.5263    5.5000    0.0000 C.3     1  UNL1        0.0252
     27 C          10.3923    6.0000    0.0000 C.3     1  UNL1        0.0252
     28 C          11.2583    5.5000    0.0000 C.3     1  UNL1        0.1122
     29 N          12.1244    6.0000    0.0000 N.pl3   1  UNL1       -0.2378
     30 C          12.9904    5.5000    0.0000 C.ar    1  UNL1        0.0638
     31 C          13.8564    6.0000    0.0000 C.ar    1  UNL1        0.0062
     32 C          14.7224    5.5000    0.0000 C.ar    1  UNL1        0.0562
     33 N          14.7224    4.5000    0.0000 N.ar    1  UNL1       -0.2499
     34 C          13.8564    4.0000    0.0000 C.ar    1  UNL1        0.0821
     35 C          13.8564    3.0000    0.0000 C.ar    1  UNL1        0.0191
     36 C          12.9904    2.5000    0.0000 C.ar    1  UNL1        0.0015
     37 C          12.1244    3.0000    0.0000 C.ar    1  UNL1        0.0001
     38 C          12.1244    4.0000    0.0000 C.ar    1  UNL1        0.0028
     39 C          12.9904    4.5000    0.0000 C.ar    1  UNL1        0.0322
     40 C          15.5885    6.0000    0.0000 C.3     1  UNL1        0.0455
     41 C          15.5885    7.0000    0.0000 C.3     1  UNL1        0.0066
     42 C          14.7224    7.5000    0.0000 C.3     1  UNL1        0.0052
     43 C          13.8564    7.0000    0.0000 C.3     1  UNL1        0.0289
     44 C           0.0000    0.0000    0.0000 C.ar    1  UNL1       -0.0105
     45 C           0.8660   -0.5000    0.0000 C.3     1  UNL1        0.0321
@<TRIPOS>BOND
     1     1     2    1
     2     2     3   ar
     3     3     4   ar
     4     4     5   ar
     5     5     6   ar
     6     6     7    1
     7     7     8    1
     8     8     9   ar
     9     9    10   ar
    10    10    11   ar
    11    11    12   ar
    12    12    13   ar
    13     8    13   ar
    14    13    14    1
    15    14    15    2
    16    14    16   am
    17    16    17    1
    18    17    18    1
    19    18    19    1
    20    19    20    1
    21    20    21    1
    22    21    22    1
    23    22    23    2
    24    22    24   am
    25    24    25    1
    26    25    26    1
    27    26    27    1
    28    27    28    1
    29    28    29    1
    30    29    30    1
    31    30    31   ar
    32    31    32   ar
    33    32    33   ar
    34    33    34   ar
    35    34    35   ar
    36    35    36   ar
    37    36    37   ar
    38    37    38   ar
    39    38    39   ar
    40    30    39   ar
    41    34    39   ar
    42    32    40    1
    43    40    41    1
    44    41    42    1
    45    42    43    1
    46    31    43    1
    47     6    44   ar
    48     2    44   ar
    49    44    45    1
