MODEL 1
REMARK VINA RESULT:    -6.561      0.000      0.000
REMARK INTER + INTRA:         -18.588
REMARK INTER:                 -12.315
REMARK INTRA:                  -6.273
REMARK UNBOUND:                -6.273
REMARK  Name = cpd182.pdb
REMARK  17 active torsions:
REMARK  status: ('A' for Active; 'I' for Inactive)
REMARK    1  A    between atoms: C_1  and  C_2
REMARK    2  A    between atoms: C_6  and  N_7
REMARK    3  A    between atoms: N_7  and  C_8
REMARK    4  A    between atoms: C_13  and  C_14
REMARK    5  A    between atoms: N_16  and  C_17
REMARK    6  A    between atoms: C_17  and  C_18
REMARK    7  A    between atoms: C_18  and  C_19
REMARK    8  A    between atoms: C_19  and  C_20
REMARK    9  A    between atoms: C_20  and  C_21
REMARK   10  A    between atoms: C_21  and  C_22
REMARK   11  A    between atoms: N_24  and  C_25
REMARK   12  A    between atoms: C_25  and  C_26
REMARK   13  A    between atoms: C_26  and  C_27
REMARK   14  A    between atoms: C_27  and  C_28
REMARK   15  A    between atoms: C_28  and  N_29
REMARK   16  A    between atoms: N_29  and  C_30
REMARK   17  A    between atoms: C_44  and  C_45
REMARK                            x       y       z     vdW  Elec       q    Type
REMARK                         _______ _______ _______ _____ _____    ______ ____
ROOT
ATOM      1  C   UNL A   1      39.732 -15.554 -39.007  0.00  0.00    +0.024 C 
ENDROOT
BRANCH   1   2
ATOM      2  C   UNL A   1      41.079 -14.860 -38.967  0.00  0.00    +0.213 C 
ATOM      3  O   UNL A   1      41.460 -14.242 -37.978  0.00  0.00    -0.276 OA
ATOM      4  N   UNL A   1      41.839 -15.020 -40.103  0.00  0.00    -0.315 N 
ATOM      5  H   UNL A   1      41.450 -15.487 -40.877  0.00  0.00    +0.000 HD
BRANCH   4   6
ATOM      6  C   UNL A   1      43.197 -14.521 -40.190  0.00  0.00    +0.012 C 
BRANCH   6   7
ATOM      7  C   UNL A   1      44.025 -15.366 -41.154  0.00  0.00    -0.036 C 
BRANCH   7   8
ATOM      8  C   UNL A   1      45.455 -15.563 -40.643  0.00  0.00    -0.036 C 
BRANCH   8   9
ATOM      9  C   UNL A   1      46.002 -16.951 -40.984  0.00  0.00    +0.009 C 
BRANCH   9  10
ATOM     10  N   UNL A   1      47.135 -17.261 -40.098  0.00  0.00    -0.343 N 
ATOM     11  H   UNL A   1      47.956 -16.722 -40.042  0.00  0.00    +0.000 HD
BRANCH  10  12
ATOM     12  C   UNL A   1      46.899 -18.440 -39.328  0.00  0.00    +0.041 A 
ATOM     13  C   UNL A   1      46.689 -18.361 -37.935  0.00  0.00    -0.005 A 
ATOM     14  C   UNL A   1      46.418 -19.552 -37.255  0.00  0.00    +0.047 A 
ATOM     15  N   UNL A   1      46.301 -20.752 -37.871  0.00  0.00    -0.251 NA
ATOM     16  C   UNL A   1      46.487 -20.824 -39.196  0.00  0.00    +0.073 A 
ATOM     17  C   UNL A   1      46.376 -22.066 -39.810  0.00  0.00    -0.036 A 
ATOM     18  C   UNL A   1      46.567 -22.234 -41.183  0.00  0.00    -0.060 A 
ATOM     19  C   UNL A   1      46.882 -21.136 -41.968  0.00  0.00    -0.061 A 
ATOM     20  C   UNL A   1      46.997 -19.881 -41.374  0.00  0.00    -0.051 A 
ATOM     21  C   UNL A   1      46.791 -19.698 -39.985  0.00  0.00    +0.021 A 
ATOM     22  C   UNL A   1      46.169 -19.580 -35.768  0.00  0.00    -0.010 C 
ATOM     23  C   UNL A   1      46.716 -18.359 -35.041  0.00  0.00    -0.047 C 
ATOM     24  C   UNL A   1      46.271 -17.094 -35.758  0.00  0.00    -0.049 C 
ATOM     25  C   UNL A   1      46.830 -17.061 -37.180  0.00  0.00    -0.024 C 
ENDBRANCH  10  12
ENDBRANCH   9  10
ENDBRANCH   8   9
ENDBRANCH   7   8
ENDBRANCH   6   7
ENDBRANCH   4   6
ENDBRANCH   1   2
BRANCH   1  26
ATOM     26  C   UNL A   1      39.811 -16.963 -39.592  0.00  0.00    -0.045 C 
BRANCH  26  27
ATOM     27  C   UNL A   1      38.815 -17.930 -38.946  0.00  0.00    -0.051 C 
BRANCH  27  28
ATOM     28  C   UNL A   1      39.335 -19.371 -38.881  0.00  0.00    -0.037 C 
BRANCH  28  29
ATOM     29  C   UNL A   1      39.021 -20.055 -37.549  0.00  0.00    +0.012 C 
BRANCH  29  32
ATOM     30  C   UNL A   1      39.643 -22.283 -36.505  0.00  0.00    +0.246 C 
ATOM     31  O   UNL A   1      39.523 -23.502 -36.582  0.00  0.00    -0.270 OA
ATOM     32  N   UNL A   1      39.293 -21.484 -37.565  0.00  0.00    -0.311 N 
ATOM     33  H   UNL A   1      39.218 -21.930 -38.439  0.00  0.00    +0.000 HD
BRANCH  30  39
ATOM     34  C   UNL A   1      41.491 -21.220 -35.155  0.00  0.00    +0.044 A 
ATOM     35  C   UNL A   1      41.874 -20.632 -33.936  0.00  0.00    -0.040 A 
ATOM     36  C   UNL A   1      40.996 -20.573 -32.850  0.00  0.00    -0.060 A 
ATOM     37  C   UNL A   1      39.706 -21.087 -32.961  0.00  0.00    -0.061 A 
ATOM     38  C   UNL A   1      39.287 -21.639 -34.168  0.00  0.00    -0.048 A 
ATOM     39  C   UNL A   1      40.161 -21.673 -35.265  0.00  0.00    +0.058 A 
BRANCH  34  40
ATOM     40  N   UNL A   1      42.389 -21.241 -36.255  0.00  0.00    -0.314 N 
ATOM     41  H   UNL A   1      42.946 -22.047 -36.348  0.00  0.00    +0.000 HD
BRANCH  40  47
ATOM     42  C   UNL A   1      43.287 -19.925 -40.996  0.00  0.00    -0.039 C 
ATOM     43  C   UNL A   1      43.076 -19.596 -39.544  0.00  0.00    -0.046 A 
ATOM     44  C   UNL A   1      43.187 -18.258 -39.134  0.00  0.00    -0.058 A 
ATOM     45  C   UNL A   1      43.020 -17.907 -37.799  0.00  0.00    -0.060 A 
ATOM     46  C   UNL A   1      42.732 -18.888 -36.854  0.00  0.00    -0.040 A 
ATOM     47  C   UNL A   1      42.572 -20.228 -37.236  0.00  0.00    +0.035 A 
ATOM     48  C   UNL A   1      42.751 -20.592 -38.591  0.00  0.00    -0.026 A 
ATOM     49  C   UNL A   1      42.639 -22.040 -39.002  0.00  0.00    -0.038 C 
ENDBRANCH  40  47
ENDBRANCH  34  40
ENDBRANCH  30  39
ENDBRANCH  29  32
ENDBRANCH  28  29
ENDBRANCH  27  28
ENDBRANCH  26  27
ENDBRANCH   1  26
TORSDOF 15
ENDMDL
MODEL 2
REMARK VINA RESULT:    -6.389      2.208      6.643
REMARK INTER + INTRA:         -18.264
REMARK INTER:                 -13.437
REMARK INTRA:                  -4.827
REMARK UNBOUND:                -6.273
REMARK  Name = cpd182.pdb
REMARK  17 active torsions:
REMARK  status: ('A' for Active; 'I' for Inactive)
REMARK    1  A    between atoms: C_1  and  C_2
REMARK    2  A    between atoms: C_6  and  N_7
REMARK    3  A    between atoms: N_7  and  C_8
REMARK    4  A    between atoms: C_13  and  C_14
REMARK    5  A    between atoms: N_16  and  C_17
REMARK    6  A    between atoms: C_17  and  C_18
REMARK    7  A    between atoms: C_18  and  C_19
REMARK    8  A    between atoms: C_19  and  C_20
REMARK    9  A    between atoms: C_20  and  C_21
REMARK   10  A    between atoms: C_21  and  C_22
REMARK   11  A    between atoms: N_24  and  C_25
REMARK   12  A    between atoms: C_25  and  C_26
REMARK   13  A    between atoms: C_26  and  C_27
REMARK   14  A    between atoms: C_27  and  C_28
REMARK   15  A    between atoms: C_28  and  N_29
REMARK   16  A    between atoms: N_29  and  C_30
REMARK   17  A    between atoms: C_44  and  C_45
REMARK                            x       y       z     vdW  Elec       q    Type
REMARK                         _______ _______ _______ _____ _____    ______ ____
ROOT
ATOM      1  C   UNL A   1      43.429 -17.084 -37.375  0.00  0.00    +0.024 C 
ENDROOT
BRANCH   1   2
ATOM      2  C   UNL A   1      42.687 -17.063 -38.698  0.00  0.00    +0.213 C 
ATOM      3  O   UNL A   1      43.279 -17.016 -39.771  0.00  0.00    -0.276 OA
ATOM      4  N   UNL A   1      41.318 -17.145 -38.587  0.00  0.00    -0.315 N 
ATOM      5  H   UNL A   1      40.909 -17.129 -37.691  0.00  0.00    +0.000 HD
BRANCH   4   6
ATOM      6  C   UNL A   1      40.462 -17.254 -39.751  0.00  0.00    +0.012 C 
BRANCH   6   7
ATOM      7  C   UNL A   1      39.123 -16.564 -39.507  0.00  0.00    -0.036 C 
BRANCH   7   8
ATOM      8  C   UNL A   1      38.029 -17.573 -39.147  0.00  0.00    -0.036 C 
BRANCH   8   9
ATOM      9  C   UNL A   1      37.961 -17.837 -37.641  0.00  0.00    +0.009 C 
BRANCH   9  10
ATOM     10  N   UNL A   1      37.724 -19.269 -37.405  0.00  0.00    -0.343 N 
ATOM     11  H   UNL A   1      36.908 -19.746 -37.680  0.00  0.00    +0.000 HD
BRANCH  10  12
ATOM     12  C   UNL A   1      38.821 -19.885 -36.729  0.00  0.00    +0.041 A 
ATOM     13  C   UNL A   1      38.989 -19.726 -35.337  0.00  0.00    -0.005 A 
ATOM     14  C   UNL A   1      40.058 -20.397 -34.736  0.00  0.00    +0.047 A 
ATOM     15  N   UNL A   1      40.897 -21.218 -35.412  0.00  0.00    -0.251 NA
ATOM     16  C   UNL A   1      40.727 -21.379 -36.731  0.00  0.00    +0.073 A 
ATOM     17  C   UNL A   1      41.605 -22.215 -37.410  0.00  0.00    -0.036 A 
ATOM     18  C   UNL A   1      41.510 -22.429 -38.787  0.00  0.00    -0.060 A 
ATOM     19  C   UNL A   1      40.515 -21.789 -39.510  0.00  0.00    -0.061 A 
ATOM     20  C   UNL A   1      39.623 -20.948 -38.849  0.00  0.00    -0.051 A 
ATOM     21  C   UNL A   1      39.703 -20.736 -37.451  0.00  0.00    +0.021 A 
ATOM     22  C   UNL A   1      40.325 -20.304 -33.255  0.00  0.00    -0.010 C 
ATOM     23  C   UNL A   1      39.686 -19.086 -32.602  0.00  0.00    -0.047 C 
ATOM     24  C   UNL A   1      38.225 -18.991 -33.014  0.00  0.00    -0.049 C 
ATOM     25  C   UNL A   1      38.108 -18.806 -34.526  0.00  0.00    -0.024 C 
ENDBRANCH  10  12
ENDBRANCH   9  10
ENDBRANCH   8   9
ENDBRANCH   7   8
ENDBRANCH   6   7
ENDBRANCH   4   6
ENDBRANCH   1   2
BRANCH   1  26
ATOM     26  C   UNL A   1      42.800 -18.037 -36.360  0.00  0.00    -0.045 C 
BRANCH  26  27
ATOM     27  C   UNL A   1      43.290 -17.788 -34.931  0.00  0.00    -0.051 C 
BRANCH  27  28
ATOM     28  C   UNL A   1      43.722 -19.073 -34.214  0.00  0.00    -0.037 C 
BRANCH  28  29
ATOM     29  C   UNL A   1      44.263 -20.135 -35.174  0.00  0.00    +0.012 C 
BRANCH  29  32
ATOM     30  C   UNL A   1      46.798 -20.043 -35.083  0.00  0.00    +0.246 C 
ATOM     31  O   UNL A   1      47.796 -20.360 -34.445  0.00  0.00    -0.270 OA
ATOM     32  N   UNL A   1      45.584 -20.618 -34.802  0.00  0.00    -0.311 N 
ATOM     33  H   UNL A   1      45.609 -21.457 -34.288  0.00  0.00    +0.000 HD
BRANCH  30  39
ATOM     34  C   UNL A   1      46.978 -19.394 -37.515  0.00  0.00    +0.044 A 
ATOM     35  C   UNL A   1      47.049 -18.351 -38.456  0.00  0.00    -0.040 A 
ATOM     36  C   UNL A   1      47.122 -17.014 -38.055  0.00  0.00    -0.060 A 
ATOM     37  C   UNL A   1      47.111 -16.685 -36.702  0.00  0.00    -0.061 A 
ATOM     38  C   UNL A   1      47.002 -17.694 -35.750  0.00  0.00    -0.048 A 
ATOM     39  C   UNL A   1      46.901 -19.033 -36.155  0.00  0.00    +0.058 A 
BRANCH  34  40
ATOM     40  N   UNL A   1      46.872 -20.743 -37.945  0.00  0.00    -0.314 N 
ATOM     41  H   UNL A   1      46.973 -21.432 -37.250  0.00  0.00    +0.000 HD
BRANCH  40  47
ATOM     42  C   UNL A   1      43.729 -21.550 -41.752  0.00  0.00    -0.039 C 
ATOM     43  C   UNL A   1      45.080 -21.659 -41.098  0.00  0.00    -0.046 A 
ATOM     44  C   UNL A   1      46.099 -22.350 -41.772  0.00  0.00    -0.058 A 
ATOM     45  C   UNL A   1      47.358 -22.494 -41.200  0.00  0.00    -0.060 A 
ATOM     46  C   UNL A   1      47.620 -21.943 -39.949  0.00  0.00    -0.040 A 
ATOM     47  C   UNL A   1      46.637 -21.209 -39.268  0.00  0.00    +0.035 A 
ATOM     48  C   UNL A   1      45.352 -21.068 -39.841  0.00  0.00    -0.026 A 
ATOM     49  C   UNL A   1      44.270 -20.330 -39.089  0.00  0.00    -0.038 C 
ENDBRANCH  40  47
ENDBRANCH  34  40
ENDBRANCH  30  39
ENDBRANCH  29  32
ENDBRANCH  28  29
ENDBRANCH  27  28
ENDBRANCH  26  27
ENDBRANCH   1  26
TORSDOF 15
ENDMDL
MODEL 3
REMARK VINA RESULT:    -6.280      2.172      5.033
REMARK INTER + INTRA:         -18.061
REMARK INTER:                 -12.350
REMARK INTRA:                  -5.711
REMARK UNBOUND:                -6.273
REMARK  Name = cpd182.pdb
REMARK  17 active torsions:
REMARK  status: ('A' for Active; 'I' for Inactive)
REMARK    1  A    between atoms: C_1  and  C_2
REMARK    2  A    between atoms: C_6  and  N_7
REMARK    3  A    between atoms: N_7  and  C_8
REMARK    4  A    between atoms: C_13  and  C_14
REMARK    5  A    between atoms: N_16  and  C_17
REMARK    6  A    between atoms: C_17  and  C_18
REMARK    7  A    between atoms: C_18  and  C_19
REMARK    8  A    between atoms: C_19  and  C_20
REMARK    9  A    between atoms: C_20  and  C_21
REMARK   10  A    between atoms: C_21  and  C_22
REMARK   11  A    between atoms: N_24  and  C_25
REMARK   12  A    between atoms: C_25  and  C_26
REMARK   13  A    between atoms: C_26  and  C_27
REMARK   14  A    between atoms: C_27  and  C_28
REMARK   15  A    between atoms: C_28  and  N_29
REMARK   16  A    between atoms: N_29  and  C_30
REMARK   17  A    between atoms: C_44  and  C_45
REMARK                            x       y       z     vdW  Elec       q    Type
REMARK                         _______ _______ _______ _____ _____    ______ ____
ROOT
ATOM      1  C   UNL A   1      42.389 -16.532 -34.169  0.00  0.00    +0.024 C 
ENDROOT
BRANCH   1   2
ATOM      2  C   UNL A   1      43.854 -16.574 -34.560  0.00  0.00    +0.213 C 
ATOM      3  O   UNL A   1      44.369 -15.690 -35.236  0.00  0.00    -0.276 OA
ATOM      4  N   UNL A   1      44.549 -17.651 -34.059  0.00  0.00    -0.315 N 
ATOM      5  H   UNL A   1      44.060 -18.348 -33.565  0.00  0.00    +0.000 HD
BRANCH   4   6
ATOM      6  C   UNL A   1      45.981 -17.786 -34.237  0.00  0.00    +0.012 C 
BRANCH   6   7
ATOM      7  C   UNL A   1      46.301 -18.895 -35.234  0.00  0.00    -0.036 C 
BRANCH   7   8
ATOM      8  C   UNL A   1      47.195 -18.389 -36.370  0.00  0.00    -0.036 C 
BRANCH   8   9
ATOM      9  C   UNL A   1      47.251 -19.373 -37.541  0.00  0.00    +0.009 C 
BRANCH   9  10
ATOM     10  N   UNL A   1      45.949 -20.044 -37.679  0.00  0.00    -0.343 N 
ATOM     11  H   UNL A   1      45.524 -20.575 -36.968  0.00  0.00    +0.000 HD
BRANCH  10  12
ATOM     12  C   UNL A   1      45.376 -19.831 -38.969  0.00  0.00    +0.041 A 
ATOM     13  C   UNL A   1      44.605 -18.679 -39.234  0.00  0.00    -0.005 A 
ATOM     14  C   UNL A   1      44.115 -18.516 -40.533  0.00  0.00    +0.047 A 
ATOM     15  N   UNL A   1      44.385 -19.376 -41.545  0.00  0.00    -0.251 NA
ATOM     16  C   UNL A   1      45.128 -20.462 -41.295  0.00  0.00    +0.073 A 
ATOM     17  C   UNL A   1      45.383 -21.339 -42.342  0.00  0.00    -0.036 A 
ATOM     18  C   UNL A   1      46.137 -22.502 -42.168  0.00  0.00    -0.060 A 
ATOM     19  C   UNL A   1      46.647 -22.803 -40.915  0.00  0.00    -0.061 A 
ATOM     20  C   UNL A   1      46.405 -21.936 -39.851  0.00  0.00    -0.051 A 
ATOM     21  C   UNL A   1      45.654 -20.748 -40.022  0.00  0.00    +0.021 A 
ATOM     22  C   UNL A   1      43.289 -17.318 -40.927  0.00  0.00    -0.010 C 
ATOM     23  C   UNL A   1      42.642 -16.615 -39.742  0.00  0.00    -0.047 C 
ATOM     24  C   UNL A   1      43.683 -16.368 -38.662  0.00  0.00    -0.049 C 
ATOM     25  C   UNL A   1      44.245 -17.694 -38.149  0.00  0.00    -0.024 C 
ENDBRANCH  10  12
ENDBRANCH   9  10
ENDBRANCH   8   9
ENDBRANCH   7   8
ENDBRANCH   6   7
ENDBRANCH   4   6
ENDBRANCH   1   2
BRANCH   1  26
ATOM     26  C   UNL A   1      41.464 -16.979 -35.300  0.00  0.00    -0.045 C 
BRANCH  26  27
ATOM     27  C   UNL A   1      41.671 -18.445 -35.691  0.00  0.00    -0.051 C 
BRANCH  27  28
ATOM     28  C   UNL A   1      41.452 -19.413 -34.522  0.00  0.00    -0.037 C 
BRANCH  28  29
ATOM     29  C   UNL A   1      42.090 -20.783 -34.758  0.00  0.00    +0.012 C 
BRANCH  29  32
ATOM     30  C   UNL A   1      40.596 -22.438 -35.971  0.00  0.00    +0.246 C 
ATOM     31  O   UNL A   1      40.047 -23.533 -35.911  0.00  0.00    -0.270 OA
ATOM     32  N   UNL A   1      41.114 -21.859 -34.840  0.00  0.00    -0.311 N 
ATOM     33  H   UNL A   1      40.787 -22.213 -33.982  0.00  0.00    +0.000 HD
BRANCH  30  39
ATOM     34  C   UNL A   1      39.656 -20.955 -37.784  0.00  0.00    +0.044 A 
ATOM     35  C   UNL A   1      39.874 -20.315 -39.017  0.00  0.00    -0.040 A 
ATOM     36  C   UNL A   1      41.053 -20.515 -39.741  0.00  0.00    -0.060 A 
ATOM     37  C   UNL A   1      42.050 -21.349 -39.242  0.00  0.00    -0.061 A 
ATOM     38  C   UNL A   1      41.877 -21.965 -38.005  0.00  0.00    -0.048 A 
ATOM     39  C   UNL A   1      40.705 -21.741 -37.268  0.00  0.00    +0.058 A 
BRANCH  34  40
ATOM     40  N   UNL A   1      38.464 -20.712 -37.051  0.00  0.00    -0.314 N 
ATOM     41  H   UNL A   1      37.759 -21.395 -37.125  0.00  0.00    +0.000 HD
BRANCH  40  47
ATOM     42  C   UNL A   1      36.809 -18.857 -32.710  0.00  0.00    -0.039 C 
ATOM     43  C   UNL A   1      37.304 -18.696 -34.121  0.00  0.00    -0.046 A 
ATOM     44  C   UNL A   1      37.365 -17.405 -34.669  0.00  0.00    -0.058 A 
ATOM     45  C   UNL A   1      37.797 -17.206 -35.975  0.00  0.00    -0.060 A 
ATOM     46  C   UNL A   1      38.183 -18.294 -36.752  0.00  0.00    -0.040 A 
ATOM     47  C   UNL A   1      38.176 -19.593 -36.222  0.00  0.00    +0.035 A 
ATOM     48  C   UNL A   1      37.727 -19.802 -34.897  0.00  0.00    -0.026 A 
ATOM     49  C   UNL A   1      37.661 -21.202 -34.337  0.00  0.00    -0.038 C 
ENDBRANCH  40  47
ENDBRANCH  34  40
ENDBRANCH  30  39
ENDBRANCH  29  32
ENDBRANCH  28  29
ENDBRANCH  27  28
ENDBRANCH  26  27
ENDBRANCH   1  26
TORSDOF 15
ENDMDL
MODEL 4
REMARK VINA RESULT:    -6.020      2.021      4.670
REMARK INTER + INTRA:         -17.571
REMARK INTER:                 -12.754
REMARK INTRA:                  -4.818
REMARK UNBOUND:                -6.273
REMARK  Name = cpd182.pdb
REMARK  17 active torsions:
REMARK  status: ('A' for Active; 'I' for Inactive)
REMARK    1  A    between atoms: C_1  and  C_2
REMARK    2  A    between atoms: C_6  and  N_7
REMARK    3  A    between atoms: N_7  and  C_8
REMARK    4  A    between atoms: C_13  and  C_14
REMARK    5  A    between atoms: N_16  and  C_17
REMARK    6  A    between atoms: C_17  and  C_18
REMARK    7  A    between atoms: C_18  and  C_19
REMARK    8  A    between atoms: C_19  and  C_20
REMARK    9  A    between atoms: C_20  and  C_21
REMARK   10  A    between atoms: C_21  and  C_22
REMARK   11  A    between atoms: N_24  and  C_25
REMARK   12  A    between atoms: C_25  and  C_26
REMARK   13  A    between atoms: C_26  and  C_27
REMARK   14  A    between atoms: C_27  and  C_28
REMARK   15  A    between atoms: C_28  and  N_29
REMARK   16  A    between atoms: N_29  and  C_30
REMARK   17  A    between atoms: C_44  and  C_45
REMARK                            x       y       z     vdW  Elec       q    Type
REMARK                         _______ _______ _______ _____ _____    ______ ____
ROOT
ATOM      1  C   UNL A   1      43.994 -15.532 -35.087  0.00  0.00    +0.024 C 
ENDROOT
BRANCH   1   2
ATOM      2  C   UNL A   1      45.301 -16.281 -35.268  0.00  0.00    +0.213 C 
ATOM      3  O   UNL A   1      46.109 -15.973 -36.137  0.00  0.00    -0.276 OA
ATOM      4  N   UNL A   1      45.511 -17.291 -34.357  0.00  0.00    -0.315 N 
ATOM      5  H   UNL A   1      44.797 -17.516 -33.718  0.00  0.00    +0.000 HD
BRANCH   4   6
ATOM      6  C   UNL A   1      46.756 -18.032 -34.312  0.00  0.00    +0.012 C 
BRANCH   6   7
ATOM      7  C   UNL A   1      46.599 -19.396 -34.976  0.00  0.00    -0.036 C 
BRANCH   7   8
ATOM      8  C   UNL A   1      47.481 -19.519 -36.222  0.00  0.00    -0.036 C 
BRANCH   8   9
ATOM      9  C   UNL A   1      46.665 -19.851 -37.474  0.00  0.00    +0.009 C 
BRANCH   9  10
ATOM     10  N   UNL A   1      47.325 -19.274 -38.656  0.00  0.00    -0.343 N 
ATOM     11  H   UNL A   1      48.203 -18.829 -38.635  0.00  0.00    +0.000 HD
BRANCH  10  12
ATOM     12  C   UNL A   1      46.540 -19.438 -39.836  0.00  0.00    +0.041 A 
ATOM     13  C   UNL A   1      46.568 -20.651 -40.558  0.00  0.00    -0.005 A 
ATOM     14  C   UNL A   1      45.737 -20.754 -41.677  0.00  0.00    +0.047 A 
ATOM     15  N   UNL A   1      44.883 -19.777 -42.064  0.00  0.00    -0.251 NA
ATOM     16  C   UNL A   1      44.847 -18.632 -41.370  0.00  0.00    +0.073 A 
ATOM     17  C   UNL A   1      43.974 -17.635 -41.790  0.00  0.00    -0.036 A 
ATOM     18  C   UNL A   1      43.882 -16.406 -41.134  0.00  0.00    -0.060 A 
ATOM     19  C   UNL A   1      44.684 -16.159 -40.031  0.00  0.00    -0.061 A 
ATOM     20  C   UNL A   1      45.565 -17.145 -39.591  0.00  0.00    -0.051 A 
ATOM     21  C   UNL A   1      45.655 -18.400 -40.242  0.00  0.00    +0.021 A 
ATOM     22  C   UNL A   1      45.682 -22.007 -42.514  0.00  0.00    -0.010 C 
ATOM     23  C   UNL A   1      46.908 -22.896 -42.352  0.00  0.00    -0.047 C 
ATOM     24  C   UNL A   1      47.198 -23.105 -40.874  0.00  0.00    -0.049 C 
ATOM     25  C   UNL A   1      47.514 -21.771 -40.198  0.00  0.00    -0.024 C 
ENDBRANCH  10  12
ENDBRANCH   9  10
ENDBRANCH   8   9
ENDBRANCH   7   8
ENDBRANCH   6   7
ENDBRANCH   4   6
ENDBRANCH   1   2
BRANCH   1  26
ATOM     26  C   UNL A   1      42.770 -16.416 -35.316  0.00  0.00    -0.045 C 
BRANCH  26  27
ATOM     27  C   UNL A   1      42.936 -17.362 -36.509  0.00  0.00    -0.051 C 
BRANCH  27  28
ATOM     28  C   UNL A   1      42.949 -18.840 -36.103  0.00  0.00    -0.037 C 
BRANCH  28  29
ATOM     29  C   UNL A   1      42.058 -19.132 -34.894  0.00  0.00    +0.012 C 
BRANCH  29  32
ATOM     30  C   UNL A   1      40.885 -21.330 -34.414  0.00  0.00    +0.246 C 
ATOM     31  O   UNL A   1      40.977 -22.553 -34.455  0.00  0.00    -0.270 OA
ATOM     32  N   UNL A   1      42.002 -20.546 -34.557  0.00  0.00    -0.311 N 
ATOM     33  H   UNL A   1      42.867 -20.993 -34.414  0.00  0.00    +0.000 HD
BRANCH  30  39
ATOM     34  C   UNL A   1      38.647 -20.538 -35.270  0.00  0.00    +0.044 A 
ATOM     35  C   UNL A   1      37.409 -19.946 -34.964  0.00  0.00    -0.040 A 
ATOM     36  C   UNL A   1      37.131 -19.462 -33.682  0.00  0.00    -0.060 A 
ATOM     37  C   UNL A   1      38.080 -19.572 -32.670  0.00  0.00    -0.061 A 
ATOM     38  C   UNL A   1      39.300 -20.189 -32.934  0.00  0.00    -0.048 A 
ATOM     39  C   UNL A   1      39.566 -20.699 -34.214  0.00  0.00    +0.058 A 
BRANCH  34  40
ATOM     40  N   UNL A   1      38.895 -21.051 -36.570  0.00  0.00    -0.314 N 
ATOM     41  H   UNL A   1      38.478 -21.916 -36.786  0.00  0.00    +0.000 HD
BRANCH  40  47
ATOM     42  C   UNL A   1      42.699 -21.309 -39.809  0.00  0.00    -0.039 C 
ATOM     43  C   UNL A   1      41.581 -20.567 -39.129  0.00  0.00    -0.046 A 
ATOM     44  C   UNL A   1      41.390 -19.211 -39.435  0.00  0.00    -0.058 A 
ATOM     45  C   UNL A   1      40.383 -18.477 -38.819  0.00  0.00    -0.060 A 
ATOM     46  C   UNL A   1      39.545 -19.091 -37.893  0.00  0.00    -0.040 A 
ATOM     47  C   UNL A   1      39.679 -20.455 -37.596  0.00  0.00    +0.035 A 
ATOM     48  C   UNL A   1      40.709 -21.203 -38.212  0.00  0.00    -0.026 A 
ATOM     49  C   UNL A   1      40.899 -22.658 -37.856  0.00  0.00    -0.038 C 
ENDBRANCH  40  47
ENDBRANCH  34  40
ENDBRANCH  30  39
ENDBRANCH  29  32
ENDBRANCH  28  29
ENDBRANCH  27  28
ENDBRANCH  26  27
ENDBRANCH   1  26
TORSDOF 15
ENDMDL
MODEL 5
REMARK VINA RESULT:    -6.013      2.194      7.406
REMARK INTER + INTRA:         -17.559
REMARK INTER:                 -11.662
REMARK INTRA:                  -5.897
REMARK UNBOUND:                -6.273
REMARK  Name = cpd182.pdb
REMARK  17 active torsions:
REMARK  status: ('A' for Active; 'I' for Inactive)
REMARK    1  A    between atoms: C_1  and  C_2
REMARK    2  A    between atoms: C_6  and  N_7
REMARK    3  A    between atoms: N_7  and  C_8
REMARK    4  A    between atoms: C_13  and  C_14
REMARK    5  A    between atoms: N_16  and  C_17
REMARK    6  A    between atoms: C_17  and  C_18
REMARK    7  A    between atoms: C_18  and  C_19
REMARK    8  A    between atoms: C_19  and  C_20
REMARK    9  A    between atoms: C_20  and  C_21
REMARK   10  A    between atoms: C_21  and  C_22
REMARK   11  A    between atoms: N_24  and  C_25
REMARK   12  A    between atoms: C_25  and  C_26
REMARK   13  A    between atoms: C_26  and  C_27
REMARK   14  A    between atoms: C_27  and  C_28
REMARK   15  A    between atoms: C_28  and  N_29
REMARK   16  A    between atoms: N_29  and  C_30
REMARK   17  A    between atoms: C_44  and  C_45
REMARK                            x       y       z     vdW  Elec       q    Type
REMARK                         _______ _______ _______ _____ _____    ______ ____
ROOT
ATOM      1  C   UNL A   1      43.199 -18.551 -35.742  0.00  0.00    +0.024 C 
ENDROOT
BRANCH   1   2
ATOM      2  C   UNL A   1      43.179 -19.896 -36.443  0.00  0.00    +0.213 C 
ATOM      3  O   UNL A   1      43.013 -20.944 -35.828  0.00  0.00    -0.276 OA
ATOM      4  N   UNL A   1      43.317 -19.830 -37.810  0.00  0.00    -0.315 N 
ATOM      5  H   UNL A   1      43.497 -18.959 -38.232  0.00  0.00    +0.000 HD
BRANCH   4   6
ATOM      6  C   UNL A   1      43.206 -21.008 -38.647  0.00  0.00    +0.012 C 
BRANCH   6   7
ATOM      7  C   UNL A   1      42.180 -20.792 -39.755  0.00  0.00    -0.036 C 
BRANCH   7   8
ATOM      8  C   UNL A   1      40.847 -20.288 -39.195  0.00  0.00    -0.036 C 
BRANCH   8   9
ATOM      9  C   UNL A   1      40.219 -21.285 -38.218  0.00  0.00    +0.009 C 
BRANCH   9  10
ATOM     10  N   UNL A   1      39.009 -20.695 -37.626  0.00  0.00    -0.343 N 
ATOM     11  H   UNL A   1      38.116 -20.735 -38.039  0.00  0.00    +0.000 HD
BRANCH  10  12
ATOM     12  C   UNL A   1      39.285 -20.055 -36.380  0.00  0.00    +0.041 A 
ATOM     13  C   UNL A   1      39.604 -20.815 -35.235  0.00  0.00    -0.005 A 
ATOM     14  C   UNL A   1      39.908 -20.118 -34.062  0.00  0.00    +0.047 A 
ATOM     15  N   UNL A   1      39.957 -18.767 -33.990  0.00  0.00    -0.251 NA
ATOM     16  C   UNL A   1      39.667 -18.046 -35.082  0.00  0.00    +0.073 A 
ATOM     17  C   UNL A   1      39.710 -16.660 -34.985  0.00  0.00    -0.036 A 
ATOM     18  C   UNL A   1      39.409 -15.832 -36.069  0.00  0.00    -0.060 A 
ATOM     19  C   UNL A   1      39.051 -16.399 -37.283  0.00  0.00    -0.061 A 
ATOM     20  C   UNL A   1      39.004 -17.786 -37.402  0.00  0.00    -0.051 A 
ATOM     21  C   UNL A   1      39.320 -18.634 -36.313  0.00  0.00    +0.021 A 
ATOM     22  C   UNL A   1      40.271 -20.831 -32.785  0.00  0.00    -0.010 C 
ATOM     23  C   UNL A   1      39.803 -22.279 -32.747  0.00  0.00    -0.047 C 
ATOM     24  C   UNL A   1      40.212 -22.984 -34.031  0.00  0.00    -0.049 C 
ATOM     25  C   UNL A   1      39.544 -22.324 -35.237  0.00  0.00    -0.024 C 
ENDBRANCH  10  12
ENDBRANCH   9  10
ENDBRANCH   8   9
ENDBRANCH   7   8
ENDBRANCH   6   7
ENDBRANCH   4   6
ENDBRANCH   1   2
BRANCH   1  26
ATOM     26  C   UNL A   1      42.984 -17.382 -36.702  0.00  0.00    -0.045 C 
BRANCH  26  27
ATOM     27  C   UNL A   1      43.141 -16.019 -36.021  0.00  0.00    -0.051 C 
BRANCH  27  28
ATOM     28  C   UNL A   1      43.837 -14.982 -36.910  0.00  0.00    -0.037 C 
BRANCH  28  29
ATOM     29  C   UNL A   1      44.444 -15.596 -38.173  0.00  0.00    +0.012 C 
BRANCH  29  32
ATOM     30  C   UNL A   1      46.957 -15.939 -38.262  0.00  0.00    +0.246 C 
ATOM     31  O   UNL A   1      48.005 -15.585 -38.793  0.00  0.00    -0.270 OA
ATOM     32  N   UNL A   1      45.820 -15.183 -38.402  0.00  0.00    -0.311 N 
ATOM     33  H   UNL A   1      45.951 -14.251 -38.690  0.00  0.00    +0.000 HD
BRANCH  30  39
ATOM     34  C   UNL A   1      46.935 -18.456 -38.085  0.00  0.00    +0.044 A 
ATOM     35  C   UNL A   1      46.918 -19.579 -37.240  0.00  0.00    -0.040 A 
ATOM     36  C   UNL A   1      46.805 -19.444 -35.853  0.00  0.00    -0.060 A 
ATOM     37  C   UNL A   1      46.722 -18.180 -35.275  0.00  0.00    -0.061 A 
ATOM     38  C   UNL A   1      46.776 -17.049 -36.086  0.00  0.00    -0.048 A 
ATOM     39  C   UNL A   1      46.917 -17.186 -37.475  0.00  0.00    +0.058 A 
BRANCH  34  40
ATOM     40  N   UNL A   1      47.082 -18.617 -39.488  0.00  0.00    -0.314 N 
ATOM     41  H   UNL A   1      47.982 -18.461 -39.854  0.00  0.00    +0.000 HD
BRANCH  40  47
ATOM     42  C   UNL A   1      45.160 -21.913 -42.723  0.00  0.00    -0.039 C 
ATOM     43  C   UNL A   1      45.178 -20.568 -42.050  0.00  0.00    -0.046 A 
ATOM     44  C   UNL A   1      44.242 -19.602 -42.453  0.00  0.00    -0.058 A 
ATOM     45  C   UNL A   1      44.232 -18.337 -41.876  0.00  0.00    -0.060 A 
ATOM     46  C   UNL A   1      45.153 -18.021 -40.881  0.00  0.00    -0.040 A 
ATOM     47  C   UNL A   1      46.073 -18.976 -40.424  0.00  0.00    +0.035 A 
ATOM     48  C   UNL A   1      46.095 -20.261 -41.016  0.00  0.00    -0.026 A 
ATOM     49  C   UNL A   1      47.120 -21.276 -40.572  0.00  0.00    -0.038 C 
ENDBRANCH  40  47
ENDBRANCH  34  40
ENDBRANCH  30  39
ENDBRANCH  29  32
ENDBRANCH  28  29
ENDBRANCH  27  28
ENDBRANCH  26  27
ENDBRANCH   1  26
TORSDOF 15
ENDMDL
MODEL 6
REMARK VINA RESULT:    -5.998      2.261      6.780
REMARK INTER + INTRA:         -17.531
REMARK INTER:                 -12.355
REMARK INTRA:                  -5.176
REMARK UNBOUND:                -6.273
REMARK  Name = cpd182.pdb
REMARK  17 active torsions:
REMARK  status: ('A' for Active; 'I' for Inactive)
REMARK    1  A    between atoms: C_1  and  C_2
REMARK    2  A    between atoms: C_6  and  N_7
REMARK    3  A    between atoms: N_7  and  C_8
REMARK    4  A    between atoms: C_13  and  C_14
REMARK    5  A    between atoms: N_16  and  C_17
REMARK    6  A    between atoms: C_17  and  C_18
REMARK    7  A    between atoms: C_18  and  C_19
REMARK    8  A    between atoms: C_19  and  C_20
REMARK    9  A    between atoms: C_20  and  C_21
REMARK   10  A    between atoms: C_21  and  C_22
REMARK   11  A    between atoms: N_24  and  C_25
REMARK   12  A    between atoms: C_25  and  C_26
REMARK   13  A    between atoms: C_26  and  C_27
REMARK   14  A    between atoms: C_27  and  C_28
REMARK   15  A    between atoms: C_28  and  N_29
REMARK   16  A    between atoms: N_29  and  C_30
REMARK   17  A    between atoms: C_44  and  C_45
REMARK                            x       y       z     vdW  Elec       q    Type
REMARK                         _______ _______ _______ _____ _____    ______ ____
ROOT
ATOM      1  C   UNL A   1      40.056 -15.692 -36.154  0.00  0.00    +0.024 C 
ENDROOT
BRANCH   1   2
ATOM      2  C   UNL A   1      40.696 -15.640 -34.780  0.00  0.00    +0.213 C 
ATOM      3  O   UNL A   1      40.996 -14.578 -34.245  0.00  0.00    -0.276 OA
ATOM      4  N   UNL A   1      40.864 -16.868 -34.181  0.00  0.00    -0.315 N 
ATOM      5  H   UNL A   1      40.646 -17.682 -34.689  0.00  0.00    +0.000 HD
BRANCH   4   6
ATOM      6  C   UNL A   1      41.353 -16.994 -32.822  0.00  0.00    +0.012 C 
BRANCH   6   7
ATOM      7  C   UNL A   1      42.868 -17.166 -32.804  0.00  0.00    -0.036 C 
BRANCH   7   8
ATOM      8  C   UNL A   1      43.266 -18.636 -32.647  0.00  0.00    -0.036 C 
BRANCH   8   9
ATOM      9  C   UNL A   1      43.980 -19.175 -33.889  0.00  0.00    +0.009 C 
BRANCH   9  10
ATOM     10  N   UNL A   1      43.548 -20.559 -34.140  0.00  0.00    -0.343 N 
ATOM     11  H   UNL A   1      44.018 -21.354 -33.800  0.00  0.00    +0.000 HD
BRANCH  10  12
ATOM     12  C   UNL A   1      42.365 -20.609 -34.939  0.00  0.00    +0.041 A 
ATOM     13  C   UNL A   1      41.107 -20.852 -34.348  0.00  0.00    -0.005 A 
ATOM     14  C   UNL A   1      39.988 -20.841 -35.185  0.00  0.00    +0.047 A 
ATOM     15  N   UNL A   1      40.052 -20.563 -36.509  0.00  0.00    -0.251 NA
ATOM     16  C   UNL A   1      41.245 -20.318 -37.066  0.00  0.00    +0.073 A 
ATOM     17  C   UNL A   1      41.292 -20.047 -38.429  0.00  0.00    -0.036 A 
ATOM     18  C   UNL A   1      42.494 -19.795 -39.093  0.00  0.00    -0.060 A 
ATOM     19  C   UNL A   1      43.685 -19.817 -38.383  0.00  0.00    -0.061 A 
ATOM     20  C   UNL A   1      43.660 -20.085 -37.016  0.00  0.00    -0.051 A 
ATOM     21  C   UNL A   1      42.445 -20.328 -36.331  0.00  0.00    +0.021 A 
ATOM     22  C   UNL A   1      38.597 -21.080 -34.657  0.00  0.00    -0.010 C 
ATOM     23  C   UNL A   1      38.575 -21.800 -33.316  0.00  0.00    -0.047 C 
ATOM     24  C   UNL A   1      39.535 -21.120 -32.353  0.00  0.00    -0.049 C 
ATOM     25  C   UNL A   1      40.967 -21.195 -32.884  0.00  0.00    -0.024 C 
ENDBRANCH  10  12
ENDBRANCH   9  10
ENDBRANCH   8   9
ENDBRANCH   7   8
ENDBRANCH   6   7
ENDBRANCH   4   6
ENDBRANCH   1   2
BRANCH   1  26
ATOM     26  C   UNL A   1      40.856 -16.536 -37.146  0.00  0.00    -0.045 C 
BRANCH  26  27
ATOM     27  C   UNL A   1      42.361 -16.261 -37.077  0.00  0.00    -0.051 C 
BRANCH  27  28
ATOM     28  C   UNL A   1      42.871 -15.422 -38.254  0.00  0.00    -0.037 C 
BRANCH  28  29
ATOM     29  C   UNL A   1      43.726 -16.228 -39.233  0.00  0.00    +0.012 C 
BRANCH  29  32
ATOM     30  C   UNL A   1      46.238 -15.920 -39.427  0.00  0.00    +0.246 C 
ATOM     31  O   UNL A   1      47.145 -15.430 -40.091  0.00  0.00    -0.270 OA
ATOM     32  N   UNL A   1      44.938 -15.532 -39.638  0.00  0.00    -0.311 N 
ATOM     33  H   UNL A   1      44.810 -14.684 -40.120  0.00  0.00    +0.000 HD
BRANCH  30  39
ATOM     34  C   UNL A   1      46.958 -18.238 -38.737  0.00  0.00    +0.044 A 
ATOM     35  C   UNL A   1      47.247 -19.117 -37.680  0.00  0.00    -0.040 A 
ATOM     36  C   UNL A   1      47.056 -18.741 -36.347  0.00  0.00    -0.060 A 
ATOM     37  C   UNL A   1      46.583 -17.468 -36.039  0.00  0.00    -0.061 A 
ATOM     38  C   UNL A   1      46.324 -16.562 -37.065  0.00  0.00    -0.048 A 
ATOM     39  C   UNL A   1      46.544 -16.934 -38.400  0.00  0.00    +0.058 A 
BRANCH  34  40
ATOM     40  N   UNL A   1      47.190 -18.631 -40.082  0.00  0.00    -0.314 N 
ATOM     41  H   UNL A   1      48.061 -18.381 -40.466  0.00  0.00    +0.000 HD
BRANCH  40  47
ATOM     42  C   UNL A   1      46.060 -22.774 -42.648  0.00  0.00    -0.039 C 
ATOM     43  C   UNL A   1      45.794 -21.351 -42.238  0.00  0.00    -0.046 A 
ATOM     44  C   UNL A   1      44.706 -20.677 -42.814  0.00  0.00    -0.058 A 
ATOM     45  C   UNL A   1      44.432 -19.355 -42.483  0.00  0.00    -0.060 A 
ATOM     46  C   UNL A   1      45.236 -18.689 -41.563  0.00  0.00    -0.040 A 
ATOM     47  C   UNL A   1      46.306 -19.345 -40.935  0.00  0.00    +0.035 A 
ATOM     48  C   UNL A   1      46.595 -20.687 -41.277  0.00  0.00    -0.026 A 
ATOM     49  C   UNL A   1      47.779 -21.384 -40.651  0.00  0.00    -0.038 C 
ENDBRANCH  40  47
ENDBRANCH  34  40
ENDBRANCH  30  39
ENDBRANCH  29  32
ENDBRANCH  28  29
ENDBRANCH  27  28
ENDBRANCH  26  27
ENDBRANCH   1  26
TORSDOF 15
ENDMDL
MODEL 7
REMARK VINA RESULT:    -5.998      1.414      3.419
REMARK INTER + INTRA:         -17.530
REMARK INTER:                 -11.841
REMARK INTRA:                  -5.689
REMARK UNBOUND:                -6.273
REMARK  Name = cpd182.pdb
REMARK  17 active torsions:
REMARK  status: ('A' for Active; 'I' for Inactive)
REMARK    1  A    between atoms: C_1  and  C_2
REMARK    2  A    between atoms: C_6  and  N_7
REMARK    3  A    between atoms: N_7  and  C_8
REMARK    4  A    between atoms: C_13  and  C_14
REMARK    5  A    between atoms: N_16  and  C_17
REMARK    6  A    between atoms: C_17  and  C_18
REMARK    7  A    between atoms: C_18  and  C_19
REMARK    8  A    between atoms: C_19  and  C_20
REMARK    9  A    between atoms: C_20  and  C_21
REMARK   10  A    between atoms: C_21  and  C_22
REMARK   11  A    between atoms: N_24  and  C_25
REMARK   12  A    between atoms: C_25  and  C_26
REMARK   13  A    between atoms: C_26  and  C_27
REMARK   14  A    between atoms: C_27  and  C_28
REMARK   15  A    between atoms: C_28  and  N_29
REMARK   16  A    between atoms: N_29  and  C_30
REMARK   17  A    between atoms: C_44  and  C_45
REMARK                            x       y       z     vdW  Elec       q    Type
REMARK                         _______ _______ _______ _____ _____    ______ ____
ROOT
ATOM      1  C   UNL A   1      40.181 -15.606 -39.279  0.00  0.00    +0.024 C 
ENDROOT
BRANCH   1   2
ATOM      2  C   UNL A   1      41.532 -15.634 -39.968  0.00  0.00    +0.213 C 
ATOM      3  O   UNL A   1      42.033 -16.679 -40.369  0.00  0.00    -0.276 OA
ATOM      4  N   UNL A   1      42.113 -14.398 -40.137  0.00  0.00    -0.315 N 
ATOM      5  H   UNL A   1      41.678 -13.607 -39.745  0.00  0.00    +0.000 HD
BRANCH   4   6
ATOM      6  C   UNL A   1      43.348 -14.229 -40.877  0.00  0.00    +0.012 C 
BRANCH   6   7
ATOM      7  C   UNL A   1      44.511 -13.940 -39.933  0.00  0.00    -0.036 C 
BRANCH   7   8
ATOM      8  C   UNL A   1      45.251 -15.222 -39.544  0.00  0.00    -0.036 C 
BRANCH   8   9
ATOM      9  C   UNL A   1      45.386 -16.190 -40.722  0.00  0.00    +0.009 C 
BRANCH   9  10
ATOM     10  N   UNL A   1      46.511 -17.105 -40.477  0.00  0.00    -0.343 N 
ATOM     11  H   UNL A   1      47.448 -16.897 -40.694  0.00  0.00    +0.000 HD
BRANCH  10  12
ATOM     12  C   UNL A   1      46.080 -18.331 -39.887  0.00  0.00    +0.041 A 
ATOM     13  C   UNL A   1      45.350 -19.276 -40.640  0.00  0.00    -0.005 A 
ATOM     14  C   UNL A   1      45.002 -20.473 -40.008  0.00  0.00    +0.047 A 
ATOM     15  N   UNL A   1      45.371 -20.783 -38.743  0.00  0.00    -0.251 NA
ATOM     16  C   UNL A   1      46.077 -19.892 -38.034  0.00  0.00    +0.073 A 
ATOM     17  C   UNL A   1      46.436 -20.222 -36.733  0.00  0.00    -0.036 A 
ATOM     18  C   UNL A   1      47.158 -19.347 -35.919  0.00  0.00    -0.060 A 
ATOM     19  C   UNL A   1      47.531 -18.106 -36.412  0.00  0.00    -0.061 A 
ATOM     20  C   UNL A   1      47.183 -17.756 -37.714  0.00  0.00    -0.051 A 
ATOM     21  C   UNL A   1      46.463 -18.641 -38.552  0.00  0.00    +0.021 A 
ATOM     22  C   UNL A   1      44.231 -21.554 -40.722  0.00  0.00    -0.010 C 
ATOM     23  C   UNL A   1      43.466 -21.048 -41.938  0.00  0.00    -0.047 C 
ATOM     24  C   UNL A   1      44.388 -20.212 -42.812  0.00  0.00    -0.049 C 
ATOM     25  C   UNL A   1      44.883 -18.985 -42.046  0.00  0.00    -0.024 C 
ENDBRANCH  10  12
ENDBRANCH   9  10
ENDBRANCH   8   9
ENDBRANCH   7   8
ENDBRANCH   6   7
ENDBRANCH   4   6
ENDBRANCH   1   2
BRANCH   1  26
ATOM     26  C   UNL A   1      39.251 -16.720 -39.758  0.00  0.00    -0.045 C 
BRANCH  26  27
ATOM     27  C   UNL A   1      39.018 -17.795 -38.693  0.00  0.00    -0.051 C 
BRANCH  27  28
ATOM     28  C   UNL A   1      39.588 -19.162 -39.089  0.00  0.00    -0.037 C 
BRANCH  28  29
ATOM     29  C   UNL A   1      39.225 -20.267 -38.095  0.00  0.00    +0.012 C 
BRANCH  29  32
ATOM     30  C   UNL A   1      40.581 -22.059 -36.916  0.00  0.00    +0.246 C 
ATOM     31  O   UNL A   1      41.194 -23.113 -37.052  0.00  0.00    -0.270 OA
ATOM     32  N   UNL A   1      40.232 -21.314 -38.014  0.00  0.00    -0.311 N 
ATOM     33  H   UNL A   1      40.720 -21.511 -38.846  0.00  0.00    +0.000 HD
BRANCH  30  39
ATOM     34  C   UNL A   1      41.151 -20.997 -34.699  0.00  0.00    +0.044 A 
ATOM     35  C   UNL A   1      40.689 -20.566 -33.443  0.00  0.00    -0.040 A 
ATOM     36  C   UNL A   1      39.370 -20.793 -33.037  0.00  0.00    -0.060 A 
ATOM     37  C   UNL A   1      38.477 -21.444 -33.884  0.00  0.00    -0.061 A 
ATOM     38  C   UNL A   1      38.897 -21.846 -35.149  0.00  0.00    -0.048 A 
ATOM     39  C   UNL A   1      40.213 -21.593 -35.565  0.00  0.00    +0.058 A 
BRANCH  34  40
ATOM     40  N   UNL A   1      42.486 -20.727 -35.103  0.00  0.00    -0.314 N 
ATOM     41  H   UNL A   1      43.123 -21.474 -35.031  0.00  0.00    +0.000 HD
BRANCH  40  47
ATOM     42  C   UNL A   1      44.898 -16.417 -34.315  0.00  0.00    -0.039 C 
ATOM     43  C   UNL A   1      44.127 -17.367 -35.190  0.00  0.00    -0.046 A 
ATOM     44  C   UNL A   1      43.810 -16.969 -36.498  0.00  0.00    -0.058 A 
ATOM     45  C   UNL A   1      43.082 -17.804 -37.338  0.00  0.00    -0.060 A 
ATOM     46  C   UNL A   1      42.667 -19.053 -36.886  0.00  0.00    -0.040 A 
ATOM     47  C   UNL A   1      43.004 -19.500 -35.600  0.00  0.00    +0.035 A 
ATOM     48  C   UNL A   1      43.735 -18.650 -34.737  0.00  0.00    -0.026 A 
ATOM     49  C   UNL A   1      44.052 -19.098 -33.331  0.00  0.00    -0.038 C 
ENDBRANCH  40  47
ENDBRANCH  34  40
ENDBRANCH  30  39
ENDBRANCH  29  32
ENDBRANCH  28  29
ENDBRANCH  27  28
ENDBRANCH  26  27
ENDBRANCH   1  26
TORSDOF 15
ENDMDL
MODEL 8
REMARK VINA RESULT:    -5.944      2.059      7.409
REMARK INTER + INTRA:         -17.430
REMARK INTER:                 -11.946
REMARK INTRA:                  -5.484
REMARK UNBOUND:                -6.273
REMARK  Name = cpd182.pdb
REMARK  17 active torsions:
REMARK  status: ('A' for Active; 'I' for Inactive)
REMARK    1  A    between atoms: C_1  and  C_2
REMARK    2  A    between atoms: C_6  and  N_7
REMARK    3  A    between atoms: N_7  and  C_8
REMARK    4  A    between atoms: C_13  and  C_14
REMARK    5  A    between atoms: N_16  and  C_17
REMARK    6  A    between atoms: C_17  and  C_18
REMARK    7  A    between atoms: C_18  and  C_19
REMARK    8  A    between atoms: C_19  and  C_20
REMARK    9  A    between atoms: C_20  and  C_21
REMARK   10  A    between atoms: C_21  and  C_22
REMARK   11  A    between atoms: N_24  and  C_25
REMARK   12  A    between atoms: C_25  and  C_26
REMARK   13  A    between atoms: C_26  and  C_27
REMARK   14  A    between atoms: C_27  and  C_28
REMARK   15  A    between atoms: C_28  and  N_29
REMARK   16  A    between atoms: N_29  and  C_30
REMARK   17  A    between atoms: C_44  and  C_45
REMARK                            x       y       z     vdW  Elec       q    Type
REMARK                         _______ _______ _______ _____ _____    ______ ____
ROOT
ATOM      1  C   UNL A   1      42.866 -17.468 -36.243  0.00  0.00    +0.024 C 
ENDROOT
BRANCH   1   2
ATOM      2  C   UNL A   1      43.049 -18.966 -36.391  0.00  0.00    +0.213 C 
ATOM      3  O   UNL A   1      42.624 -19.756 -35.555  0.00  0.00    -0.276 OA
ATOM      4  N   UNL A   1      43.685 -19.352 -37.548  0.00  0.00    -0.315 N 
ATOM      5  H   UNL A   1      44.044 -18.662 -38.151  0.00  0.00    +0.000 HD
BRANCH   4   6
ATOM      6  C   UNL A   1      43.840 -20.749 -37.905  0.00  0.00    +0.012 C 
BRANCH   6   7
ATOM      7  C   UNL A   1      43.425 -20.988 -39.353  0.00  0.00    -0.036 C 
BRANCH   7   8
ATOM      8  C   UNL A   1      42.022 -20.442 -39.633  0.00  0.00    -0.036 C 
BRANCH   8   9
ATOM      9  C   UNL A   1      40.927 -21.423 -39.209  0.00  0.00    +0.009 C 
BRANCH   9  10
ATOM     10  N   UNL A   1      39.644 -20.710 -39.106  0.00  0.00    -0.343 N 
ATOM     11  H   UNL A   1      38.992 -20.639 -39.839  0.00  0.00    +0.000 HD
BRANCH  10  12
ATOM     12  C   UNL A   1      39.459 -20.133 -37.813  0.00  0.00    +0.041 A 
ATOM     13  C   UNL A   1      39.409 -18.733 -37.650  0.00  0.00    -0.005 A 
ATOM     14  C   UNL A   1      39.178 -18.242 -36.361  0.00  0.00    +0.047 A 
ATOM     15  N   UNL A   1      38.955 -19.038 -35.289  0.00  0.00    -0.251 NA
ATOM     16  C   UNL A   1      38.989 -20.368 -35.448  0.00  0.00    +0.073 A 
ATOM     17  C   UNL A   1      38.772 -21.170 -34.334  0.00  0.00    -0.036 A 
ATOM     18  C   UNL A   1      38.803 -22.564 -34.407  0.00  0.00    -0.060 A 
ATOM     19  C   UNL A   1      39.063 -23.179 -35.622  0.00  0.00    -0.061 A 
ATOM     20  C   UNL A   1      39.283 -22.394 -36.751  0.00  0.00    -0.051 A 
ATOM     21  C   UNL A   1      39.239 -20.980 -36.691  0.00  0.00    +0.021 A 
ATOM     22  C   UNL A   1      39.096 -16.764 -36.076  0.00  0.00    -0.010 C 
ATOM     23  C   UNL A   1      39.759 -15.905 -37.144  0.00  0.00    -0.047 C 
ATOM     24  C   UNL A   1      39.276 -16.336 -38.520  0.00  0.00    -0.049 C 
ATOM     25  C   UNL A   1      39.673 -17.786 -38.796  0.00  0.00    -0.024 C 
ENDBRANCH  10  12
ENDBRANCH   9  10
ENDBRANCH   8   9
ENDBRANCH   7   8
ENDBRANCH   6   7
ENDBRANCH   4   6
ENDBRANCH   1   2
BRANCH   1  26
ATOM     26  C   UNL A   1      43.253 -16.698 -37.505  0.00  0.00    -0.045 C 
BRANCH  26  27
ATOM     27  C   UNL A   1      43.273 -15.182 -37.291  0.00  0.00    -0.051 C 
BRANCH  27  28
ATOM     28  C   UNL A   1      43.805 -14.413 -38.507  0.00  0.00    -0.037 C 
BRANCH  28  29
ATOM     29  C   UNL A   1      44.518 -15.317 -39.514  0.00  0.00    +0.012 C 
BRANCH  29  32
ATOM     30  C   UNL A   1      47.043 -15.570 -39.480  0.00  0.00    +0.246 C 
ATOM     31  O   UNL A   1      48.094 -15.281 -40.043  0.00  0.00    -0.270 OA
ATOM     32  N   UNL A   1      45.885 -14.900 -39.785  0.00  0.00    -0.311 N 
ATOM     33  H   UNL A   1      45.992 -14.034 -40.242  0.00  0.00    +0.000 HD
BRANCH  30  39
ATOM     34  C   UNL A   1      47.052 -18.010 -38.834  0.00  0.00    +0.044 A 
ATOM     35  C   UNL A   1      47.053 -18.955 -37.793  0.00  0.00    -0.040 A 
ATOM     36  C   UNL A   1      46.949 -18.563 -36.455  0.00  0.00    -0.060 A 
ATOM     37  C   UNL A   1      46.855 -17.214 -36.124  0.00  0.00    -0.061 A 
ATOM     38  C   UNL A   1      46.890 -16.254 -37.132  0.00  0.00    -0.048 A 
ATOM     39  C   UNL A   1      47.023 -16.648 -38.472  0.00  0.00    +0.058 A 
BRANCH  34  40
ATOM     40  N   UNL A   1      47.191 -18.429 -40.183  0.00  0.00    -0.314 N 
ATOM     41  H   UNL A   1      48.066 -18.266 -40.604  0.00  0.00    +0.000 HD
BRANCH  40  47
ATOM     42  C   UNL A   1      45.652 -22.385 -42.830  0.00  0.00    -0.039 C 
ATOM     43  C   UNL A   1      45.494 -20.971 -42.340  0.00  0.00    -0.046 A 
ATOM     44  C   UNL A   1      44.403 -20.218 -42.801  0.00  0.00    -0.058 A 
ATOM     45  C   UNL A   1      44.225 -18.901 -42.392  0.00  0.00    -0.060 A 
ATOM     46  C   UNL A   1      45.131 -18.320 -41.510  0.00  0.00    -0.040 A 
ATOM     47  C   UNL A   1      46.208 -19.057 -40.996  0.00  0.00    +0.035 A 
ATOM     48  C   UNL A   1      46.399 -20.394 -41.417  0.00  0.00    -0.026 A 
ATOM     49  C   UNL A   1      47.588 -21.178 -40.915  0.00  0.00    -0.038 C 
ENDBRANCH  40  47
ENDBRANCH  34  40
ENDBRANCH  30  39
ENDBRANCH  29  32
ENDBRANCH  28  29
ENDBRANCH  27  28
ENDBRANCH  26  27
ENDBRANCH   1  26
TORSDOF 15
ENDMDL
MODEL 9
REMARK VINA RESULT:    -5.890      1.680      2.715
REMARK INTER + INTRA:         -17.328
REMARK INTER:                 -12.033
REMARK INTRA:                  -5.295
REMARK UNBOUND:                -6.273
REMARK  Name = cpd182.pdb
REMARK  17 active torsions:
REMARK  status: ('A' for Active; 'I' for Inactive)
REMARK    1  A    between atoms: C_1  and  C_2
REMARK    2  A    between atoms: C_6  and  N_7
REMARK    3  A    between atoms: N_7  and  C_8
REMARK    4  A    between atoms: C_13  and  C_14
REMARK    5  A    between atoms: N_16  and  C_17
REMARK    6  A    between atoms: C_17  and  C_18
REMARK    7  A    between atoms: C_18  and  C_19
REMARK    8  A    between atoms: C_19  and  C_20
REMARK    9  A    between atoms: C_20  and  C_21
REMARK   10  A    between atoms: C_21  and  C_22
REMARK   11  A    between atoms: N_24  and  C_25
REMARK   12  A    between atoms: C_25  and  C_26
REMARK   13  A    between atoms: C_26  and  C_27
REMARK   14  A    between atoms: C_27  and  C_28
REMARK   15  A    between atoms: C_28  and  N_29
REMARK   16  A    between atoms: N_29  and  C_30
REMARK   17  A    between atoms: C_44  and  C_45
REMARK                            x       y       z     vdW  Elec       q    Type
REMARK                         _______ _______ _______ _____ _____    ______ ____
ROOT
ATOM      1  C   UNL A   1      42.151 -16.092 -34.839  0.00  0.00    +0.024 C 
ENDROOT
BRANCH   1   2
ATOM      2  C   UNL A   1      41.931 -16.155 -36.338  0.00  0.00    +0.213 C 
ATOM      3  O   UNL A   1      40.841 -16.442 -36.822  0.00  0.00    -0.276 OA
ATOM      4  N   UNL A   1      43.034 -15.823 -37.092  0.00  0.00    -0.315 N 
ATOM      5  H   UNL A   1      43.890 -15.652 -36.637  0.00  0.00    +0.000 HD
BRANCH   4   6
ATOM      6  C   UNL A   1      42.969 -15.719 -38.536  0.00  0.00    +0.012 C 
BRANCH   6   7
ATOM      7  C   UNL A   1      43.808 -14.546 -39.033  0.00  0.00    -0.036 C 
BRANCH   7   8
ATOM      8  C   UNL A   1      45.224 -14.989 -39.414  0.00  0.00    -0.036 C 
BRANCH   8   9
ATOM      9  C   UNL A   1      45.279 -16.467 -39.805  0.00  0.00    +0.009 C 
BRANCH   9  10
ATOM     10  N   UNL A   1      46.617 -17.002 -39.510  0.00  0.00    -0.343 N 
ATOM     11  H   UNL A   1      47.457 -16.533 -39.720  0.00  0.00    +0.000 HD
BRANCH  10  12
ATOM     12  C   UNL A   1      46.552 -18.284 -38.885  0.00  0.00    +0.041 A 
ATOM     13  C   UNL A   1      46.340 -18.397 -37.495  0.00  0.00    -0.005 A 
ATOM     14  C   UNL A   1      46.240 -19.684 -36.960  0.00  0.00    +0.047 A 
ATOM     15  N   UNL A   1      46.289 -20.809 -37.713  0.00  0.00    -0.251 NA
ATOM     16  C   UNL A   1      46.476 -20.700 -39.035  0.00  0.00    +0.073 A 
ATOM     17  C   UNL A   1      46.536 -21.866 -39.789  0.00  0.00    -0.036 A 
ATOM     18  C   UNL A   1      46.743 -21.845 -41.170  0.00  0.00    -0.060 A 
ATOM     19  C   UNL A   1      46.898 -20.630 -41.819  0.00  0.00    -0.061 A 
ATOM     20  C   UNL A   1      46.840 -19.449 -41.082  0.00  0.00    -0.051 A 
ATOM     21  C   UNL A   1      46.617 -19.459 -39.684  0.00  0.00    +0.021 A 
ATOM     22  C   UNL A   1      46.005 -19.920 -35.489  0.00  0.00    -0.010 C 
ATOM     23  C   UNL A   1      46.380 -18.727 -34.620  0.00  0.00    -0.047 C 
ATOM     24  C   UNL A   1      45.759 -17.462 -35.190  0.00  0.00    -0.049 C 
ATOM     25  C   UNL A   1      46.302 -17.186 -36.592  0.00  0.00    -0.024 C 
ENDBRANCH  10  12
ENDBRANCH   9  10
ENDBRANCH   8   9
ENDBRANCH   7   8
ENDBRANCH   6   7
ENDBRANCH   4   6
ENDBRANCH   1   2
BRANCH   1  26
ATOM     26  C   UNL A   1      41.584 -17.308 -34.108  0.00  0.00    -0.045 C 
BRANCH  26  27
ATOM     27  C   UNL A   1      42.643 -18.055 -33.292  0.00  0.00    -0.051 C 
BRANCH  27  28
ATOM     28  C   UNL A   1      42.173 -19.438 -32.824  0.00  0.00    -0.037 C 
BRANCH  28  29
ATOM     29  C   UNL A   1      42.577 -20.558 -33.784  0.00  0.00    +0.012 C 
BRANCH  29  32
ATOM     30  C   UNL A   1      40.775 -22.346 -33.756  0.00  0.00    +0.246 C 
ATOM     31  O   UNL A   1      40.549 -23.549 -33.675  0.00  0.00    -0.270 OA
ATOM     32  N   UNL A   1      42.011 -21.849 -33.423  0.00  0.00    -0.311 N 
ATOM     33  H   UNL A   1      42.582 -22.435 -32.876  0.00  0.00    +0.000 HD
BRANCH  30  39
ATOM     34  C   UNL A   1      39.565 -21.082 -35.574  0.00  0.00    +0.044 A 
ATOM     35  C   UNL A   1      38.506 -20.219 -35.907  0.00  0.00    -0.040 A 
ATOM     36  C   UNL A   1      37.685 -19.662 -34.923  0.00  0.00    -0.060 A 
ATOM     37  C   UNL A   1      37.893 -19.966 -33.580  0.00  0.00    -0.061 A 
ATOM     38  C   UNL A   1      38.910 -20.849 -33.224  0.00  0.00    -0.048 A 
ATOM     39  C   UNL A   1      39.715 -21.428 -34.217  0.00  0.00    +0.058 A 
BRANCH  34  40
ATOM     40  N   UNL A   1      40.366 -21.662 -36.593  0.00  0.00    -0.314 N 
ATOM     41  H   UNL A   1      40.338 -22.643 -36.666  0.00  0.00    +0.000 HD
BRANCH  40  47
ATOM     42  C   UNL A   1      42.677 -21.507 -41.027  0.00  0.00    -0.039 C 
ATOM     43  C   UNL A   1      42.381 -20.947 -39.663  0.00  0.00    -0.046 A 
ATOM     44  C   UNL A   1      43.051 -19.783 -39.255  0.00  0.00    -0.058 A 
ATOM     45  C   UNL A   1      42.827 -19.238 -37.995  0.00  0.00    -0.060 A 
ATOM     46  C   UNL A   1      41.923 -19.844 -37.128  0.00  0.00    -0.040 A 
ATOM     47  C   UNL A   1      41.204 -20.983 -37.520  0.00  0.00    +0.035 A 
ATOM     48  C   UNL A   1      41.437 -21.547 -38.796  0.00  0.00    -0.026 A 
ATOM     49  C   UNL A   1      40.711 -22.806 -39.205  0.00  0.00    -0.038 C 
ENDBRANCH  40  47
ENDBRANCH  34  40
ENDBRANCH  30  39
ENDBRANCH  29  32
ENDBRANCH  28  29
ENDBRANCH  27  28
ENDBRANCH  26  27
ENDBRANCH   1  26
TORSDOF 15
ENDMDL
MODEL 10
REMARK VINA RESULT:    -5.871      2.198      5.211
REMARK INTER + INTRA:         -17.292
REMARK INTER:                 -12.658
REMARK INTRA:                  -4.634
REMARK UNBOUND:                -6.273
REMARK  Name = cpd182.pdb
REMARK  17 active torsions:
REMARK  status: ('A' for Active; 'I' for Inactive)
REMARK    1  A    between atoms: C_1  and  C_2
REMARK    2  A    between atoms: C_6  and  N_7
REMARK    3  A    between atoms: N_7  and  C_8
REMARK    4  A    between atoms: C_13  and  C_14
REMARK    5  A    between atoms: N_16  and  C_17
REMARK    6  A    between atoms: C_17  and  C_18
REMARK    7  A    between atoms: C_18  and  C_19
REMARK    8  A    between atoms: C_19  and  C_20
REMARK    9  A    between atoms: C_20  and  C_21
REMARK   10  A    between atoms: C_21  and  C_22
REMARK   11  A    between atoms: N_24  and  C_25
REMARK   12  A    between atoms: C_25  and  C_26
REMARK   13  A    between atoms: C_26  and  C_27
REMARK   14  A    between atoms: C_27  and  C_28
REMARK   15  A    between atoms: C_28  and  N_29
REMARK   16  A    between atoms: N_29  and  C_30
REMARK   17  A    between atoms: C_44  and  C_45
REMARK                            x       y       z     vdW  Elec       q    Type
REMARK                         _______ _______ _______ _____ _____    ______ ____
ROOT
ATOM      1  C   UNL A   1      43.092 -14.175 -37.087  0.00  0.00    +0.024 C 
ENDROOT
BRANCH   1   2
ATOM      2  C   UNL A   1      43.982 -13.655 -38.199  0.00  0.00    +0.213 C 
ATOM      3  O   UNL A   1      45.152 -13.345 -38.001  0.00  0.00    -0.276 OA
ATOM      4  N   UNL A   1      43.381 -13.605 -39.436  0.00  0.00    -0.315 N 
ATOM      5  H   UNL A   1      42.423 -13.822 -39.512  0.00  0.00    +0.000 HD
BRANCH   4   6
ATOM      6  C   UNL A   1      44.118 -13.243 -40.630  0.00  0.00    +0.012 C 
BRANCH   6   7
ATOM      7  C   UNL A   1      44.057 -14.361 -41.666  0.00  0.00    -0.036 C 
BRANCH   7   8
ATOM      8  C   UNL A   1      42.890 -15.315 -41.395  0.00  0.00    -0.036 C 
BRANCH   8   9
ATOM      9  C   UNL A   1      43.365 -16.669 -40.862  0.00  0.00    +0.009 C 
BRANCH   9  10
ATOM     10  N   UNL A   1      44.810 -16.809 -41.100  0.00  0.00    -0.343 N 
ATOM     11  H   UNL A   1      45.351 -16.160 -41.604  0.00  0.00    +0.000 HD
BRANCH  10  12
ATOM     12  C   UNL A   1      45.332 -18.001 -40.513  0.00  0.00    +0.041 A 
ATOM     13  C   UNL A   1      45.254 -19.234 -41.194  0.00  0.00    -0.005 A 
ATOM     14  C   UNL A   1      45.829 -20.349 -40.577  0.00  0.00    +0.047 A 
ATOM     15  N   UNL A   1      46.489 -20.290 -39.396  0.00  0.00    -0.251 NA
ATOM     16  C   UNL A   1      46.575 -19.115 -38.757  0.00  0.00    +0.073 A 
ATOM     17  C   UNL A   1      47.246 -19.076 -37.541  0.00  0.00    -0.036 A 
ATOM     18  C   UNL A   1      47.371 -17.898 -36.801  0.00  0.00    -0.060 A 
ATOM     19  C   UNL A   1      46.809 -16.726 -37.283  0.00  0.00    -0.061 A 
ATOM     20  C   UNL A   1      46.134 -16.743 -38.502  0.00  0.00    -0.051 A 
ATOM     21  C   UNL A   1      46.014 -17.929 -39.265  0.00  0.00    +0.021 A 
ATOM     22  C   UNL A   1      45.809 -21.713 -41.220  0.00  0.00    -0.010 C 
ATOM     23  C   UNL A   1      44.730 -21.864 -42.283  0.00  0.00    -0.047 C 
ATOM     24  C   UNL A   1      44.787 -20.685 -43.243  0.00  0.00    -0.049 C 
ATOM     25  C   UNL A   1      44.510 -19.378 -42.500  0.00  0.00    -0.024 C 
ENDBRANCH  10  12
ENDBRANCH   9  10
ENDBRANCH   8   9
ENDBRANCH   7   8
ENDBRANCH   6   7
ENDBRANCH   4   6
ENDBRANCH   1   2
BRANCH   1  26
ATOM     26  C   UNL A   1      42.154 -15.287 -37.552  0.00  0.00    -0.045 C 
BRANCH  26  27
ATOM     27  C   UNL A   1      42.655 -16.683 -37.172  0.00  0.00    -0.051 C 
BRANCH  27  28
ATOM     28  C   UNL A   1      43.252 -16.741 -35.761  0.00  0.00    -0.037 C 
BRANCH  28  29
ATOM     29  C   UNL A   1      42.585 -17.797 -34.877  0.00  0.00    +0.012 C 
BRANCH  29  32
ATOM     30  C   UNL A   1      43.890 -19.966 -35.062  0.00  0.00    +0.246 C 
ATOM     31  O   UNL A   1      44.905 -20.564 -34.722  0.00  0.00    -0.270 OA
ATOM     32  N   UNL A   1      43.512 -18.817 -34.412  0.00  0.00    -0.311 N 
ATOM     33  H   UNL A   1      43.915 -18.666 -33.527  0.00  0.00    +0.000 HD
BRANCH  30  39
ATOM     34  C   UNL A   1      41.903 -21.237 -35.960  0.00  0.00    +0.044 A 
ATOM     35  C   UNL A   1      41.186 -21.658 -37.094  0.00  0.00    -0.040 A 
ATOM     36  C   UNL A   1      41.656 -21.406 -38.386  0.00  0.00    -0.060 A 
ATOM     37  C   UNL A   1      42.849 -20.713 -38.577  0.00  0.00    -0.061 A 
ATOM     38  C   UNL A   1      43.560 -20.251 -37.473  0.00  0.00    -0.048 A 
ATOM     39  C   UNL A   1      43.072 -20.481 -36.178  0.00  0.00    +0.058 A 
BRANCH  34  40
ATOM     40  N   UNL A   1      41.391 -21.476 -34.658  0.00  0.00    -0.314 N 
ATOM     41  H   UNL A   1      42.003 -21.297 -33.908  0.00  0.00    +0.000 HD
BRANCH  40  47
ATOM     42  C   UNL A   1      36.783 -20.579 -32.930  0.00  0.00    -0.039 C 
ATOM     43  C   UNL A   1      37.865 -21.508 -33.409  0.00  0.00    -0.046 A 
ATOM     44  C   UNL A   1      37.617 -22.890 -33.399  0.00  0.00    -0.058 A 
ATOM     45  C   UNL A   1      38.593 -23.790 -33.814  0.00  0.00    -0.060 A 
ATOM     46  C   UNL A   1      39.828 -23.322 -34.252  0.00  0.00    -0.040 A 
ATOM     47  C   UNL A   1      40.093 -21.946 -34.316  0.00  0.00    +0.035 A 
ATOM     48  C   UNL A   1      39.108 -21.027 -33.885  0.00  0.00    -0.026 A 
ATOM     49  C   UNL A   1      39.405 -19.547 -33.894  0.00  0.00    -0.038 C 
ENDBRANCH  40  47
ENDBRANCH  34  40
ENDBRANCH  30  39
ENDBRANCH  29  32
ENDBRANCH  28  29
ENDBRANCH  27  28
ENDBRANCH  26  27
ENDBRANCH   1  26
TORSDOF 15
ENDMDL
MODEL 11
REMARK VINA RESULT:    -5.837      2.444      6.827
REMARK INTER + INTRA:         -17.228
REMARK INTER:                 -11.816
REMARK INTRA:                  -5.412
REMARK UNBOUND:                -6.273
REMARK  Name = cpd182.pdb
REMARK  17 active torsions:
REMARK  status: ('A' for Active; 'I' for Inactive)
REMARK    1  A    between atoms: C_1  and  C_2
REMARK    2  A    between atoms: C_6  and  N_7
REMARK    3  A    between atoms: N_7  and  C_8
REMARK    4  A    between atoms: C_13  and  C_14
REMARK    5  A    between atoms: N_16  and  C_17
REMARK    6  A    between atoms: C_17  and  C_18
REMARK    7  A    between atoms: C_18  and  C_19
REMARK    8  A    between atoms: C_19  and  C_20
REMARK    9  A    between atoms: C_20  and  C_21
REMARK   10  A    between atoms: C_21  and  C_22
REMARK   11  A    between atoms: N_24  and  C_25
REMARK   12  A    between atoms: C_25  and  C_26
REMARK   13  A    between atoms: C_26  and  C_27
REMARK   14  A    between atoms: C_27  and  C_28
REMARK   15  A    between atoms: C_28  and  N_29
REMARK   16  A    between atoms: N_29  and  C_30
REMARK   17  A    between atoms: C_44  and  C_45
REMARK                            x       y       z     vdW  Elec       q    Type
REMARK                         _______ _______ _______ _____ _____    ______ ____
ROOT
ATOM      1  C   UNL A   1      43.480 -15.220 -35.406  0.00  0.00    +0.024 C 
ENDROOT
BRANCH   1   2
ATOM      2  C   UNL A   1      42.143 -15.936 -35.415  0.00  0.00    +0.213 C 
ATOM      3  O   UNL A   1      41.877 -16.800 -36.243  0.00  0.00    -0.276 OA
ATOM      4  N   UNL A   1      41.289 -15.565 -34.401  0.00  0.00    -0.315 N 
ATOM      5  H   UNL A   1      41.549 -14.828 -33.802  0.00  0.00    +0.000 HD
BRANCH   4   6
ATOM      6  C   UNL A   1      40.018 -16.229 -34.191  0.00  0.00    +0.012 C 
BRANCH   6   7
ATOM      7  C   UNL A   1      39.966 -16.877 -32.812  0.00  0.00    -0.036 C 
BRANCH   7   8
ATOM      8  C   UNL A   1      39.116 -18.150 -32.821  0.00  0.00    -0.036 C 
BRANCH   8   9
ATOM      9  C   UNL A   1      39.288 -18.949 -34.115  0.00  0.00    +0.009 C 
BRANCH   9  10
ATOM     10  N   UNL A   1      40.158 -20.108 -33.863  0.00  0.00    -0.343 N 
ATOM     11  H   UNL A   1      40.023 -20.750 -33.129  0.00  0.00    +0.000 HD
BRANCH  10  12
ATOM     12  C   UNL A   1      41.222 -20.190 -34.811  0.00  0.00    +0.041 A 
ATOM     13  C   UNL A   1      42.513 -19.721 -34.487  0.00  0.00    -0.005 A 
ATOM     14  C   UNL A   1      43.515 -19.877 -35.449  0.00  0.00    +0.047 A 
ATOM     15  N   UNL A   1      43.317 -20.493 -36.638  0.00  0.00    -0.251 NA
ATOM     16  C   UNL A   1      42.095 -20.950 -36.939  0.00  0.00    +0.073 A 
ATOM     17  C   UNL A   1      41.907 -21.567 -38.170  0.00  0.00    -0.036 A 
ATOM     18  C   UNL A   1      40.664 -22.060 -38.570  0.00  0.00    -0.060 A 
ATOM     19  C   UNL A   1      39.574 -21.932 -37.723  0.00  0.00    -0.061 A 
ATOM     20  C   UNL A   1      39.739 -21.318 -36.484  0.00  0.00    -0.051 A 
ATOM     21  C   UNL A   1      40.999 -20.827 -36.064  0.00  0.00    +0.021 A 
ATOM     22  C   UNL A   1      44.931 -19.420 -35.203  0.00  0.00    -0.010 C 
ATOM     23  C   UNL A   1      45.046 -18.376 -34.100  0.00  0.00    -0.047 C 
ATOM     24  C   UNL A   1      44.285 -18.845 -32.870  0.00  0.00    -0.049 C 
ATOM     25  C   UNL A   1      42.798 -19.002 -33.190  0.00  0.00    -0.024 C 
ENDBRANCH  10  12
ENDBRANCH   9  10
ENDBRANCH   8   9
ENDBRANCH   7   8
ENDBRANCH   6   7
ENDBRANCH   4   6
ENDBRANCH   1   2
BRANCH   1  26
ATOM     26  C   UNL A   1      44.460 -15.787 -36.432  0.00  0.00    -0.045 C 
BRANCH  26  27
ATOM     27  C   UNL A   1      45.666 -14.873 -36.666  0.00  0.00    -0.051 C 
BRANCH  27  28
ATOM     28  C   UNL A   1      46.923 -15.639 -37.097  0.00  0.00    -0.037 C 
BRANCH  28  29
ATOM     29  C   UNL A   1      46.669 -17.136 -37.288  0.00  0.00    +0.012 C 
BRANCH  29  32
ATOM     30  C   UNL A   1      46.485 -17.561 -39.783  0.00  0.00    +0.246 C 
ATOM     31  O   UNL A   1      47.108 -17.713 -40.829  0.00  0.00    -0.270 OA
ATOM     32  N   UNL A   1      47.132 -17.632 -38.575  0.00  0.00    -0.311 N 
ATOM     33  H   UNL A   1      48.013 -18.071 -38.579  0.00  0.00    +0.000 HD
BRANCH  30  39
ATOM     34  C   UNL A   1      44.081 -18.327 -39.706  0.00  0.00    +0.044 A 
ATOM     35  C   UNL A   1      42.725 -17.959 -39.735  0.00  0.00    -0.040 A 
ATOM     36  C   UNL A   1      42.334 -16.635 -39.952  0.00  0.00    -0.060 A 
ATOM     37  C   UNL A   1      43.293 -15.641 -40.133  0.00  0.00    -0.061 A 
ATOM     38  C   UNL A   1      44.644 -15.970 -40.071  0.00  0.00    -0.048 A 
ATOM     39  C   UNL A   1      45.034 -17.295 -39.825  0.00  0.00    +0.058 A 
BRANCH  34  40
ATOM     40  N   UNL A   1      44.455 -19.673 -39.452  0.00  0.00    -0.314 N 
ATOM     41  H   UNL A   1      44.425 -19.964 -38.512  0.00  0.00    +0.000 HD
BRANCH  40  47
ATOM     42  C   UNL A   1      47.704 -23.184 -40.914  0.00  0.00    -0.039 C 
ATOM     43  C   UNL A   1      46.498 -22.314 -41.139  0.00  0.00    -0.046 A 
ATOM     44  C   UNL A   1      45.838 -22.386 -42.376  0.00  0.00    -0.058 A 
ATOM     45  C   UNL A   1      44.730 -21.588 -42.638  0.00  0.00    -0.060 A 
ATOM     46  C   UNL A   1      44.260 -20.712 -41.665  0.00  0.00    -0.040 A 
ATOM     47  C   UNL A   1      44.869 -20.646 -40.403  0.00  0.00    +0.035 A 
ATOM     48  C   UNL A   1      46.002 -21.448 -40.135  0.00  0.00    -0.026 A 
ATOM     49  C   UNL A   1      46.700 -21.342 -38.800  0.00  0.00    -0.038 C 
ENDBRANCH  40  47
ENDBRANCH  34  40
ENDBRANCH  30  39
ENDBRANCH  29  32
ENDBRANCH  28  29
ENDBRANCH  27  28
ENDBRANCH  26  27
ENDBRANCH   1  26
TORSDOF 15
ENDMDL
MODEL 12
REMARK VINA RESULT:    -5.787      2.241      7.094
REMARK INTER + INTRA:         -17.135
REMARK INTER:                 -12.373
REMARK INTRA:                  -4.762
REMARK UNBOUND:                -6.273
REMARK  Name = cpd182.pdb
REMARK  17 active torsions:
REMARK  status: ('A' for Active; 'I' for Inactive)
REMARK    1  A    between atoms: C_1  and  C_2
REMARK    2  A    between atoms: C_6  and  N_7
REMARK    3  A    between atoms: N_7  and  C_8
REMARK    4  A    between atoms: C_13  and  C_14
REMARK    5  A    between atoms: N_16  and  C_17
REMARK    6  A    between atoms: C_17  and  C_18
REMARK    7  A    between atoms: C_18  and  C_19
REMARK    8  A    between atoms: C_19  and  C_20
REMARK    9  A    between atoms: C_20  and  C_21
REMARK   10  A    between atoms: C_21  and  C_22
REMARK   11  A    between atoms: N_24  and  C_25
REMARK   12  A    between atoms: C_25  and  C_26
REMARK   13  A    between atoms: C_26  and  C_27
REMARK   14  A    between atoms: C_27  and  C_28
REMARK   15  A    between atoms: C_28  and  N_29
REMARK   16  A    between atoms: N_29  and  C_30
REMARK   17  A    between atoms: C_44  and  C_45
REMARK                            x       y       z     vdW  Elec       q    Type
REMARK                         _______ _______ _______ _____ _____    ______ ____
ROOT
ATOM      1  C   UNL A   1      40.020 -15.611 -36.175  0.00  0.00    +0.024 C 
ENDROOT
BRANCH   1   2
ATOM      2  C   UNL A   1      40.641 -15.625 -34.791  0.00  0.00    +0.213 C 
ATOM      3  O   UNL A   1      40.950 -14.590 -34.210  0.00  0.00    -0.276 OA
ATOM      4  N   UNL A   1      40.783 -16.878 -34.241  0.00  0.00    -0.315 N 
ATOM      5  H   UNL A   1      40.560 -17.668 -34.785  0.00  0.00    +0.000 HD
BRANCH   4   6
ATOM      6  C   UNL A   1      41.252 -17.067 -32.883  0.00  0.00    +0.012 C 
BRANCH   6   7
ATOM      7  C   UNL A   1      42.758 -17.309 -32.857  0.00  0.00    -0.036 C 
BRANCH   7   8
ATOM      8  C   UNL A   1      43.086 -18.796 -32.698  0.00  0.00    -0.036 C 
BRANCH   8   9
ATOM      9  C   UNL A   1      43.826 -19.356 -33.915  0.00  0.00    +0.009 C 
BRANCH   9  10
ATOM     10  N   UNL A   1      43.398 -20.744 -34.152  0.00  0.00    -0.343 N 
ATOM     11  H   UNL A   1      43.860 -21.533 -33.789  0.00  0.00    +0.000 HD
BRANCH  10  12
ATOM     12  C   UNL A   1      42.231 -20.807 -34.973  0.00  0.00    +0.041 A 
ATOM     13  C   UNL A   1      42.314 -20.568 -36.361  0.00  0.00    -0.005 A 
ATOM     14  C   UNL A   1      41.138 -20.694 -37.107  0.00  0.00    +0.047 A 
ATOM     15  N   UNL A   1      39.954 -21.076 -36.574  0.00  0.00    -0.251 NA
ATOM     16  C   UNL A   1      39.880 -21.316 -35.258  0.00  0.00    +0.073 A 
ATOM     17  C   UNL A   1      38.653 -21.694 -34.726  0.00  0.00    -0.036 A 
ATOM     18  C   UNL A   1      38.484 -21.950 -33.363  0.00  0.00    -0.060 A 
ATOM     19  C   UNL A   1      39.564 -21.821 -32.504  0.00  0.00    -0.061 A 
ATOM     20  C   UNL A   1      40.804 -21.445 -33.017  0.00  0.00    -0.051 A 
ATOM     21  C   UNL A   1      40.989 -21.197 -34.399  0.00  0.00    +0.021 A 
ATOM     22  C   UNL A   1      41.115 -20.470 -38.598  0.00  0.00    -0.010 C 
ATOM     23  C   UNL A   1      42.290 -19.644 -39.103  0.00  0.00    -0.047 C 
ATOM     24  C   UNL A   1      43.588 -20.205 -38.544  0.00  0.00    -0.049 C 
ATOM     25  C   UNL A   1      43.595 -20.114 -37.018  0.00  0.00    -0.024 C 
ENDBRANCH  10  12
ENDBRANCH   9  10
ENDBRANCH   8   9
ENDBRANCH   7   8
ENDBRANCH   6   7
ENDBRANCH   4   6
ENDBRANCH   1   2
BRANCH   1  26
ATOM     26  C   UNL A   1      40.819 -16.427 -37.189  0.00  0.00    -0.045 C 
BRANCH  26  27
ATOM     27  C   UNL A   1      42.329 -16.209 -37.067  0.00  0.00    -0.051 C 
BRANCH  27  28
ATOM     28  C   UNL A   1      42.910 -15.382 -38.219  0.00  0.00    -0.037 C 
BRANCH  28  29
ATOM     29  C   UNL A   1      43.757 -16.218 -39.182  0.00  0.00    +0.012 C 
BRANCH  29  32
ATOM     30  C   UNL A   1      46.281 -16.003 -39.326  0.00  0.00    +0.246 C 
ATOM     31  O   UNL A   1      47.220 -15.544 -39.969  0.00  0.00    -0.270 OA
ATOM     32  N   UNL A   1      45.001 -15.566 -39.558  0.00  0.00    -0.311 N 
ATOM     33  H   UNL A   1      44.915 -14.710 -40.036  0.00  0.00    +0.000 HD
BRANCH  30  39
ATOM     34  C   UNL A   1      46.933 -18.342 -38.638  0.00  0.00    +0.044 A 
ATOM     35  C   UNL A   1      47.166 -19.239 -37.581  0.00  0.00    -0.040 A 
ATOM     36  C   UNL A   1      46.928 -18.875 -36.252  0.00  0.00    -0.060 A 
ATOM     37  C   UNL A   1      46.465 -17.598 -35.946  0.00  0.00    -0.061 A 
ATOM     38  C   UNL A   1      46.264 -16.676 -36.970  0.00  0.00    -0.048 A 
ATOM     39  C   UNL A   1      46.529 -17.035 -38.300  0.00  0.00    +0.058 A 
BRANCH  34  40
ATOM     40  N   UNL A   1      47.212 -18.723 -39.977  0.00  0.00    -0.314 N 
ATOM     41  H   UNL A   1      48.098 -18.473 -40.327  0.00  0.00    +0.000 HD
BRANCH  40  47
ATOM     42  C   UNL A   1      46.165 -22.828 -42.637  0.00  0.00    -0.039 C 
ATOM     43  C   UNL A   1      45.886 -21.411 -42.215  0.00  0.00    -0.046 A 
ATOM     44  C   UNL A   1      44.818 -20.728 -42.817  0.00  0.00    -0.058 A 
ATOM     45  C   UNL A   1      44.533 -19.411 -42.475  0.00  0.00    -0.060 A 
ATOM     46  C   UNL A   1      45.307 -18.758 -41.521  0.00  0.00    -0.040 A 
ATOM     47  C   UNL A   1      46.356 -19.424 -40.868  0.00  0.00    +0.035 A 
ATOM     48  C   UNL A   1      46.656 -20.761 -41.220  0.00  0.00    -0.026 A 
ATOM     49  C   UNL A   1      47.818 -21.468 -40.566  0.00  0.00    -0.038 C 
ENDBRANCH  40  47
ENDBRANCH  34  40
ENDBRANCH  30  39
ENDBRANCH  29  32
ENDBRANCH  28  29
ENDBRANCH  27  28
ENDBRANCH  26  27
ENDBRANCH   1  26
TORSDOF 15
ENDMDL
MODEL 13
REMARK VINA RESULT:    -5.749      2.251      7.311
REMARK INTER + INTRA:         -17.063
REMARK INTER:                 -11.225
REMARK INTRA:                  -5.838
REMARK UNBOUND:                -6.273
REMARK  Name = cpd182.pdb
REMARK  17 active torsions:
REMARK  status: ('A' for Active; 'I' for Inactive)
REMARK    1  A    between atoms: C_1  and  C_2
REMARK    2  A    between atoms: C_6  and  N_7
REMARK    3  A    between atoms: N_7  and  C_8
REMARK    4  A    between atoms: C_13  and  C_14
REMARK    5  A    between atoms: N_16  and  C_17
REMARK    6  A    between atoms: C_17  and  C_18
REMARK    7  A    between atoms: C_18  and  C_19
REMARK    8  A    between atoms: C_19  and  C_20
REMARK    9  A    between atoms: C_20  and  C_21
REMARK   10  A    between atoms: C_21  and  C_22
REMARK   11  A    between atoms: N_24  and  C_25
REMARK   12  A    between atoms: C_25  and  C_26
REMARK   13  A    between atoms: C_26  and  C_27
REMARK   14  A    between atoms: C_27  and  C_28
REMARK   15  A    between atoms: C_28  and  N_29
REMARK   16  A    between atoms: N_29  and  C_30
REMARK   17  A    between atoms: C_44  and  C_45
REMARK                            x       y       z     vdW  Elec       q    Type
REMARK                         _______ _______ _______ _____ _____    ______ ____
ROOT
ATOM      1  C   UNL A   1      42.238 -14.097 -40.234  0.00  0.00    +0.024 C 
ENDROOT
BRANCH   1   2
ATOM      2  C   UNL A   1      40.881 -14.355 -39.608  0.00  0.00    +0.213 C 
ATOM      3  O   UNL A   1      40.695 -14.250 -38.400  0.00  0.00    -0.276 OA
ATOM      4  N   UNL A   1      39.888 -14.668 -40.506  0.00  0.00    -0.315 N 
ATOM      5  H   UNL A   1      40.120 -14.784 -41.456  0.00  0.00    +0.000 HD
BRANCH   4   6
ATOM      6  C   UNL A   1      38.508 -14.833 -40.093  0.00  0.00    +0.012 C 
BRANCH   6   7
ATOM      7  C   UNL A   1      37.945 -16.158 -40.597  0.00  0.00    -0.036 C 
BRANCH   7   8
ATOM      8  C   UNL A   1      38.588 -17.350 -39.883  0.00  0.00    -0.036 C 
BRANCH   8   9
ATOM      9  C   UNL A   1      38.215 -17.401 -38.399  0.00  0.00    +0.009 C 
BRANCH   9  10
ATOM     10  N   UNL A   1      37.584 -18.695 -38.097  0.00  0.00    -0.343 N 
ATOM     11  H   UNL A   1      36.701 -18.969 -38.433  0.00  0.00    +0.000 HD
BRANCH  10  12
ATOM     12  C   UNL A   1      38.407 -19.504 -37.256  0.00  0.00    +0.041 A 
ATOM     13  C   UNL A   1      39.334 -20.410 -37.813  0.00  0.00    -0.005 A 
ATOM     14  C   UNL A   1      40.138 -21.135 -36.928  0.00  0.00    +0.047 A 
ATOM     15  N   UNL A   1      40.101 -20.972 -35.584  0.00  0.00    -0.251 NA
ATOM     16  C   UNL A   1      39.230 -20.101 -35.058  0.00  0.00    +0.073 A 
ATOM     17  C   UNL A   1      39.196 -19.958 -33.676  0.00  0.00    -0.036 A 
ATOM     18  C   UNL A   1      38.310 -19.084 -33.042  0.00  0.00    -0.060 A 
ATOM     19  C   UNL A   1      37.428 -18.334 -33.805  0.00  0.00    -0.061 A 
ATOM     20  C   UNL A   1      37.446 -18.461 -35.192  0.00  0.00    -0.051 A 
ATOM     21  C   UNL A   1      38.350 -19.334 -35.844  0.00  0.00    +0.021 A 
ATOM     22  C   UNL A   1      41.168 -22.122 -37.415  0.00  0.00    -0.010 C 
ATOM     23  C   UNL A   1      40.912 -22.610 -38.835  0.00  0.00    -0.047 C 
ATOM     24  C   UNL A   1      40.659 -21.421 -39.748  0.00  0.00    -0.049 C 
ATOM     25  C   UNL A   1      39.411 -20.660 -39.300  0.00  0.00    -0.024 C 
ENDBRANCH  10  12
ENDBRANCH   9  10
ENDBRANCH   8   9
ENDBRANCH   7   8
ENDBRANCH   6   7
ENDBRANCH   4   6
ENDBRANCH   1   2
BRANCH   1  26
ATOM     26  C   UNL A   1      42.421 -14.821 -41.567  0.00  0.00    -0.045 C 
BRANCH  26  27
ATOM     27  C   UNL A   1      43.303 -16.068 -41.447  0.00  0.00    -0.051 C 
BRANCH  27  28
ATOM     28  C   UNL A   1      44.353 -15.953 -40.336  0.00  0.00    -0.037 C 
BRANCH  28  29
ATOM     29  C   UNL A   1      45.712 -16.527 -40.742  0.00  0.00    +0.012 C 
BRANCH  29  32
ATOM     30  C   UNL A   1      46.413 -18.709 -39.653  0.00  0.00    +0.246 C 
ATOM     31  O   UNL A   1      47.223 -19.250 -38.907  0.00  0.00    -0.270 OA
ATOM     32  N   UNL A   1      46.321 -17.341 -39.701  0.00  0.00    -0.311 N 
ATOM     33  H   UNL A   1      46.713 -16.852 -38.942  0.00  0.00    +0.000 HD
BRANCH  30  39
ATOM     34  C   UNL A   1      44.501 -20.326 -39.970  0.00  0.00    +0.044 A 
ATOM     35  C   UNL A   1      43.710 -21.054 -40.875  0.00  0.00    -0.040 A 
ATOM     36  C   UNL A   1      43.989 -21.058 -42.245  0.00  0.00    -0.060 A 
ATOM     37  C   UNL A   1      45.058 -20.320 -42.746  0.00  0.00    -0.061 A 
ATOM     38  C   UNL A   1      45.835 -19.558 -41.877  0.00  0.00    -0.048 A 
ATOM     39  C   UNL A   1      45.536 -19.534 -40.507  0.00  0.00    +0.058 A 
BRANCH  34  40
ATOM     40  N   UNL A   1      44.180 -20.311 -38.587  0.00  0.00    -0.314 N 
ATOM     41  H   UNL A   1      44.535 -21.055 -38.048  0.00  0.00    +0.000 HD
BRANCH  40  47
ATOM     42  C   UNL A   1      42.443 -18.431 -34.289  0.00  0.00    -0.039 C 
ATOM     43  C   UNL A   1      42.508 -18.472 -35.791  0.00  0.00    -0.046 A 
ATOM     44  C   UNL A   1      41.680 -17.606 -36.524  0.00  0.00    -0.058 A 
ATOM     45  C   UNL A   1      41.689 -17.620 -37.914  0.00  0.00    -0.060 A 
ATOM     46  C   UNL A   1      42.532 -18.495 -38.594  0.00  0.00    -0.040 A 
ATOM     47  C   UNL A   1      43.403 -19.343 -37.894  0.00  0.00    +0.035 A 
ATOM     48  C   UNL A   1      43.389 -19.340 -36.479  0.00  0.00    -0.026 A 
ATOM     49  C   UNL A   1      44.281 -20.291 -35.717  0.00  0.00    -0.038 C 
ENDBRANCH  40  47
ENDBRANCH  34  40
ENDBRANCH  30  39
ENDBRANCH  29  32
ENDBRANCH  28  29
ENDBRANCH  27  28
ENDBRANCH  26  27
ENDBRANCH   1  26
TORSDOF 15
ENDMDL
MODEL 14
REMARK VINA RESULT:    -5.626      1.721      6.729
REMARK INTER + INTRA:         -16.832
REMARK INTER:                 -11.377
REMARK INTRA:                  -5.455
REMARK UNBOUND:                -6.273
REMARK  Name = cpd182.pdb
REMARK  17 active torsions:
REMARK  status: ('A' for Active; 'I' for Inactive)
REMARK    1  A    between atoms: C_1  and  C_2
REMARK    2  A    between atoms: C_6  and  N_7
REMARK    3  A    between atoms: N_7  and  C_8
REMARK    4  A    between atoms: C_13  and  C_14
REMARK    5  A    between atoms: N_16  and  C_17
REMARK    6  A    between atoms: C_17  and  C_18
REMARK    7  A    between atoms: C_18  and  C_19
REMARK    8  A    between atoms: C_19  and  C_20
REMARK    9  A    between atoms: C_20  and  C_21
REMARK   10  A    between atoms: C_21  and  C_22
REMARK   11  A    between atoms: N_24  and  C_25
REMARK   12  A    between atoms: C_25  and  C_26
REMARK   13  A    between atoms: C_26  and  C_27
REMARK   14  A    between atoms: C_27  and  C_28
REMARK   15  A    between atoms: C_28  and  N_29
REMARK   16  A    between atoms: N_29  and  C_30
REMARK   17  A    between atoms: C_44  and  C_45
REMARK                            x       y       z     vdW  Elec       q    Type
REMARK                         _______ _______ _______ _____ _____    ______ ____
ROOT
ATOM      1  C   UNL A   1      42.832 -14.624 -39.282  0.00  0.00    +0.024 C 
ENDROOT
BRANCH   1   2
ATOM      2  C   UNL A   1      41.479 -14.751 -38.610  0.00  0.00    +0.213 C 
ATOM      3  O   UNL A   1      41.233 -14.205 -37.540  0.00  0.00    -0.276 OA
ATOM      4  N   UNL A   1      40.556 -15.486 -39.318  0.00  0.00    -0.315 N 
ATOM      5  H   UNL A   1      40.837 -15.938 -40.146  0.00  0.00    +0.000 HD
BRANCH   4   6
ATOM      6  C   UNL A   1      39.180 -15.612 -38.878  0.00  0.00    +0.012 C 
BRANCH   6   7
ATOM      7  C   UNL A   1      38.920 -17.001 -38.304  0.00  0.00    -0.036 C 
BRANCH   7   8
ATOM      8  C   UNL A   1      39.287 -18.101 -39.303  0.00  0.00    -0.036 C 
BRANCH   8   9
ATOM      9  C   UNL A   1      39.325 -19.485 -38.650  0.00  0.00    +0.009 C 
BRANCH   9  10
ATOM     10  N   UNL A   1      40.670 -19.735 -38.111  0.00  0.00    -0.343 N 
ATOM     11  H   UNL A   1      41.485 -19.783 -38.661  0.00  0.00    +0.000 HD
BRANCH  10  12
ATOM     12  C   UNL A   1      40.652 -19.899 -36.692  0.00  0.00    +0.041 A 
ATOM     13  C   UNL A   1      40.098 -21.058 -36.108  0.00  0.00    -0.005 A 
ATOM     14  C   UNL A   1      40.159 -21.170 -34.716  0.00  0.00    +0.047 A 
ATOM     15  N   UNL A   1      40.759 -20.254 -33.920  0.00  0.00    -0.251 NA
ATOM     16  C   UNL A   1      41.298 -19.161 -34.477  0.00  0.00    +0.073 A 
ATOM     17  C   UNL A   1      41.898 -18.226 -33.643  0.00  0.00    -0.036 A 
ATOM     18  C   UNL A   1      42.471 -17.052 -34.138  0.00  0.00    -0.060 A 
ATOM     19  C   UNL A   1      42.442 -16.799 -35.500  0.00  0.00    -0.061 A 
ATOM     20  C   UNL A   1      41.846 -17.724 -36.354  0.00  0.00    -0.051 A 
ATOM     21  C   UNL A   1      41.275 -18.924 -35.864  0.00  0.00    +0.021 A 
ATOM     22  C   UNL A   1      39.605 -22.370 -33.990  0.00  0.00    -0.010 C 
ATOM     23  C   UNL A   1      38.582 -23.150 -34.805  0.00  0.00    -0.047 C 
ATOM     24  C   UNL A   1      39.133 -23.421 -36.196  0.00  0.00    -0.049 C 
ATOM     25  C   UNL A   1      39.391 -22.107 -36.933  0.00  0.00    -0.024 C 
ENDBRANCH  10  12
ENDBRANCH   9  10
ENDBRANCH   8   9
ENDBRANCH   7   8
ENDBRANCH   6   7
ENDBRANCH   4   6
ENDBRANCH   1   2
BRANCH   1  26
ATOM     26  C   UNL A   1      43.872 -15.581 -38.703  0.00  0.00    -0.045 C 
BRANCH  26  27
ATOM     27  C   UNL A   1      43.745 -17.002 -39.260  0.00  0.00    -0.051 C 
BRANCH  27  28
ATOM     28  C   UNL A   1      44.054 -17.087 -40.759  0.00  0.00    -0.037 C 
BRANCH  28  29
ATOM     29  C   UNL A   1      44.369 -18.512 -41.220  0.00  0.00    +0.012 C 
BRANCH  29  32
ATOM     30  C   UNL A   1      43.649 -20.728 -40.214  0.00  0.00    +0.246 C 
ATOM     31  O   UNL A   1      42.785 -21.307 -39.563  0.00  0.00    -0.270 OA
ATOM     32  N   UNL A   1      43.399 -19.489 -40.750  0.00  0.00    -0.311 N 
ATOM     33  H   UNL A   1      42.452 -19.231 -40.825  0.00  0.00    +0.000 HD
BRANCH  30  39
ATOM     34  C   UNL A   1      45.961 -21.354 -39.420  0.00  0.00    +0.044 A 
ATOM     35  C   UNL A   1      47.170 -22.011 -39.710  0.00  0.00    -0.040 A 
ATOM     36  C   UNL A   1      47.407 -22.580 -40.964  0.00  0.00    -0.060 A 
ATOM     37  C   UNL A   1      46.432 -22.520 -41.957  0.00  0.00    -0.061 A 
ATOM     38  C   UNL A   1      45.210 -21.910 -41.686  0.00  0.00    -0.048 A 
ATOM     39  C   UNL A   1      44.965 -21.364 -40.417  0.00  0.00    +0.058 A 
BRANCH  34  40
ATOM     40  N   UNL A   1      45.731 -20.811 -38.129  0.00  0.00    -0.314 N 
ATOM     41  H   UNL A   1      45.187 -21.357 -37.516  0.00  0.00    +0.000 HD
BRANCH  40  47
ATOM     42  C   UNL A   1      45.851 -17.403 -34.469  0.00  0.00    -0.039 C 
ATOM     43  C   UNL A   1      46.197 -17.878 -35.853  0.00  0.00    -0.046 A 
ATOM     44  C   UNL A   1      46.898 -17.011 -36.706  0.00  0.00    -0.058 A 
ATOM     45  C   UNL A   1      47.223 -17.397 -38.002  0.00  0.00    -0.060 A 
ATOM     46  C   UNL A   1      46.860 -18.659 -38.462  0.00  0.00    -0.040 A 
ATOM     47  C   UNL A   1      46.197 -19.567 -37.622  0.00  0.00    +0.035 A 
ATOM     48  C   UNL A   1      45.855 -19.175 -36.307  0.00  0.00    -0.026 A 
ATOM     49  C   UNL A   1      45.091 -20.123 -35.414  0.00  0.00    -0.038 C 
ENDBRANCH  40  47
ENDBRANCH  34  40
ENDBRANCH  30  39
ENDBRANCH  29  32
ENDBRANCH  28  29
ENDBRANCH  27  28
ENDBRANCH  26  27
ENDBRANCH   1  26
TORSDOF 15
ENDMDL
MODEL 15
REMARK VINA RESULT:    -5.584      1.459      2.435
REMARK INTER + INTRA:         -16.754
REMARK INTER:                 -11.467
REMARK INTRA:                  -5.287
REMARK UNBOUND:                -6.273
REMARK  Name = cpd182.pdb
REMARK  17 active torsions:
REMARK  status: ('A' for Active; 'I' for Inactive)
REMARK    1  A    between atoms: C_1  and  C_2
REMARK    2  A    between atoms: C_6  and  N_7
REMARK    3  A    between atoms: N_7  and  C_8
REMARK    4  A    between atoms: C_13  and  C_14
REMARK    5  A    between atoms: N_16  and  C_17
REMARK    6  A    between atoms: C_17  and  C_18
REMARK    7  A    between atoms: C_18  and  C_19
REMARK    8  A    between atoms: C_19  and  C_20
REMARK    9  A    between atoms: C_20  and  C_21
REMARK   10  A    between atoms: C_21  and  C_22
REMARK   11  A    between atoms: N_24  and  C_25
REMARK   12  A    between atoms: C_25  and  C_26
REMARK   13  A    between atoms: C_26  and  C_27
REMARK   14  A    between atoms: C_27  and  C_28
REMARK   15  A    between atoms: C_28  and  N_29
REMARK   16  A    between atoms: N_29  and  C_30
REMARK   17  A    between atoms: C_44  and  C_45
REMARK                            x       y       z     vdW  Elec       q    Type
REMARK                         _______ _______ _______ _____ _____    ______ ____
ROOT
ATOM      1  C   UNL A   1      39.731 -15.774 -39.180  0.00  0.00    +0.024 C 
ENDROOT
BRANCH   1   2
ATOM      2  C   UNL A   1      41.121 -15.709 -39.784  0.00  0.00    +0.213 C 
ATOM      3  O   UNL A   1      41.747 -16.722 -40.077  0.00  0.00    -0.276 OA
ATOM      4  N   UNL A   1      41.588 -14.435 -40.009  0.00  0.00    -0.315 N 
ATOM      5  H   UNL A   1      41.052 -13.667 -39.702  0.00  0.00    +0.000 HD
BRANCH   4   6
ATOM      6  C   UNL A   1      42.846 -14.190 -40.684  0.00  0.00    +0.012 C 
BRANCH   6   7
ATOM      7  C   UNL A   1      43.927 -13.781 -39.688  0.00  0.00    -0.036 C 
BRANCH   7   8
ATOM      8  C   UNL A   1      44.835 -14.960 -39.329  0.00  0.00    -0.036 C 
BRANCH   8   9
ATOM      9  C   UNL A   1      45.025 -15.920 -40.505  0.00  0.00    +0.009 C 
BRANCH   9  10
ATOM     10  N   UNL A   1      46.255 -16.702 -40.306  0.00  0.00    -0.343 N 
ATOM     11  H   UNL A   1      47.151 -16.397 -40.576  0.00  0.00    +0.000 HD
BRANCH  10  12
ATOM     12  C   UNL A   1      45.993 -17.955 -39.676  0.00  0.00    +0.041 A 
ATOM     13  C   UNL A   1      46.331 -18.165 -38.322  0.00  0.00    -0.005 A 
ATOM     14  C   UNL A   1      46.002 -19.402 -37.760  0.00  0.00    +0.047 A 
ATOM     15  N   UNL A   1      45.339 -20.373 -38.432  0.00  0.00    -0.251 NA
ATOM     16  C   UNL A   1      45.005 -20.167 -39.712  0.00  0.00    +0.073 A 
ATOM     17  C   UNL A   1      44.337 -21.180 -40.390  0.00  0.00    -0.036 A 
ATOM     18  C   UNL A   1      43.965 -21.055 -41.730  0.00  0.00    -0.060 A 
ATOM     19  C   UNL A   1      44.270 -19.891 -42.418  0.00  0.00    -0.061 A 
ATOM     20  C   UNL A   1      44.938 -18.862 -41.757  0.00  0.00    -0.051 A 
ATOM     21  C   UNL A   1      45.307 -18.974 -40.395  0.00  0.00    +0.021 A 
ATOM     22  C   UNL A   1      46.309 -19.729 -36.320  0.00  0.00    -0.010 C 
ATOM     23  C   UNL A   1      47.401 -18.852 -35.722  0.00  0.00    -0.047 C 
ATOM     24  C   UNL A   1      47.100 -17.390 -36.014  0.00  0.00    -0.049 C 
ATOM     25  C   UNL A   1      47.094 -17.137 -37.521  0.00  0.00    -0.024 C 
ENDBRANCH  10  12
ENDBRANCH   9  10
ENDBRANCH   8   9
ENDBRANCH   7   8
ENDBRANCH   6   7
ENDBRANCH   4   6
ENDBRANCH   1   2
BRANCH   1  26
ATOM     26  C   UNL A   1      39.000 -17.072 -39.518  0.00  0.00    -0.045 C 
BRANCH  26  27
ATOM     27  C   UNL A   1      39.097 -18.114 -38.400  0.00  0.00    -0.051 C 
BRANCH  27  28
ATOM     28  C   UNL A   1      39.598 -19.477 -38.894  0.00  0.00    -0.037 C 
BRANCH  28  29
ATOM     29  C   UNL A   1      39.111 -20.638 -38.026  0.00  0.00    +0.012 C 
BRANCH  29  32
ATOM     30  C   UNL A   1      40.427 -22.183 -36.502  0.00  0.00    +0.246 C 
ATOM     31  O   UNL A   1      41.112 -23.199 -36.443  0.00  0.00    -0.270 OA
ATOM     32  N   UNL A   1      40.161 -21.595 -37.713  0.00  0.00    -0.311 N 
ATOM     33  H   UNL A   1      40.751 -21.850 -38.458  0.00  0.00    +0.000 HD
BRANCH  30  39
ATOM     34  C   UNL A   1      40.689 -20.869 -34.363  0.00  0.00    +0.044 A 
ATOM     35  C   UNL A   1      40.063 -20.328 -33.226  0.00  0.00    -0.040 A 
ATOM     36  C   UNL A   1      38.711 -20.566 -32.958  0.00  0.00    -0.060 A 
ATOM     37  C   UNL A   1      37.948 -21.340 -33.829  0.00  0.00    -0.061 A 
ATOM     38  C   UNL A   1      38.533 -21.856 -34.982  0.00  0.00    -0.048 A 
ATOM     39  C   UNL A   1      39.882 -21.592 -35.264  0.00  0.00    +0.058 A 
BRANCH  34  40
ATOM     40  N   UNL A   1      42.054 -20.588 -34.632  0.00  0.00    -0.314 N 
ATOM     41  H   UNL A   1      42.699 -21.297 -34.407  0.00  0.00    +0.000 HD
BRANCH  40  47
ATOM     42  C   UNL A   1      44.305 -16.162 -34.027  0.00  0.00    -0.039 C 
ATOM     43  C   UNL A   1      43.636 -17.207 -34.877  0.00  0.00    -0.046 A 
ATOM     44  C   UNL A   1      43.435 -16.937 -36.240  0.00  0.00    -0.058 A 
ATOM     45  C   UNL A   1      42.804 -17.863 -37.063  0.00  0.00    -0.060 A 
ATOM     46  C   UNL A   1      42.371 -19.077 -36.537  0.00  0.00    -0.040 A 
ATOM     47  C   UNL A   1      42.594 -19.397 -35.190  0.00  0.00    +0.035 A 
ATOM     48  C   UNL A   1      43.227 -18.454 -34.346  0.00  0.00    -0.026 A 
ATOM     49  C   UNL A   1      43.420 -18.765 -32.882  0.00  0.00    -0.038 C 
ENDBRANCH  40  47
ENDBRANCH  34  40
ENDBRANCH  30  39
ENDBRANCH  29  32
ENDBRANCH  28  29
ENDBRANCH  27  28
ENDBRANCH  26  27
ENDBRANCH   1  26
TORSDOF 15
ENDMDL
MODEL 16
REMARK VINA RESULT:    -5.506      2.849      7.695
REMARK INTER + INTRA:         -16.608
REMARK INTER:                 -10.441
REMARK INTRA:                  -6.166
REMARK UNBOUND:                -6.273
REMARK  Name = cpd182.pdb
REMARK  17 active torsions:
REMARK  status: ('A' for Active; 'I' for Inactive)
REMARK    1  A    between atoms: C_1  and  C_2
REMARK    2  A    between atoms: C_6  and  N_7
REMARK    3  A    between atoms: N_7  and  C_8
REMARK    4  A    between atoms: C_13  and  C_14
REMARK    5  A    between atoms: N_16  and  C_17
REMARK    6  A    between atoms: C_17  and  C_18
REMARK    7  A    between atoms: C_18  and  C_19
REMARK    8  A    between atoms: C_19  and  C_20
REMARK    9  A    between atoms: C_20  and  C_21
REMARK   10  A    between atoms: C_21  and  C_22
REMARK   11  A    between atoms: N_24  and  C_25
REMARK   12  A    between atoms: C_25  and  C_26
REMARK   13  A    between atoms: C_26  and  C_27
REMARK   14  A    between atoms: C_27  and  C_28
REMARK   15  A    between atoms: C_28  and  N_29
REMARK   16  A    between atoms: N_29  and  C_30
REMARK   17  A    between atoms: C_44  and  C_45
REMARK                            x       y       z     vdW  Elec       q    Type
REMARK                         _______ _______ _______ _____ _____    ______ ____
ROOT
ATOM      1  C   UNL A   1      45.564 -17.490 -33.746  0.00  0.00    +0.024 C 
ENDROOT
BRANCH   1   2
ATOM      2  C   UNL A   1      44.183 -17.216 -33.183  0.00  0.00    +0.213 C 
ATOM      3  O   UNL A   1      43.499 -18.104 -32.686  0.00  0.00    -0.276 OA
ATOM      4  N   UNL A   1      43.793 -15.897 -33.241  0.00  0.00    -0.315 N 
ATOM      5  H   UNL A   1      44.372 -15.246 -33.700  0.00  0.00    +0.000 HD
BRANCH   4   6
ATOM      6  C   UNL A   1      42.554 -15.440 -32.645  0.00  0.00    +0.012 C 
BRANCH   6   7
ATOM      7  C   UNL A   1      41.660 -14.779 -33.690  0.00  0.00    -0.036 C 
BRANCH   7   8
ATOM      8  C   UNL A   1      41.044 -15.813 -34.637  0.00  0.00    -0.036 C 
BRANCH   8   9
ATOM      9  C   UNL A   1      40.217 -16.860 -33.887  0.00  0.00    +0.009 C 
BRANCH   9  10
ATOM     10  N   UNL A   1      38.931 -17.052 -34.575  0.00  0.00    -0.343 N 
ATOM     11  H   UNL A   1      38.200 -16.393 -34.572  0.00  0.00    +0.000 HD
BRANCH  10  12
ATOM     12  C   UNL A   1      38.870 -18.311 -35.246  0.00  0.00    +0.041 A 
ATOM     13  C   UNL A   1      38.549 -19.489 -34.540  0.00  0.00    -0.005 A 
ATOM     14  C   UNL A   1      38.463 -20.677 -35.274  0.00  0.00    +0.047 A 
ATOM     15  N   UNL A   1      38.623 -20.736 -36.617  0.00  0.00    -0.251 NA
ATOM     16  C   UNL A   1      38.914 -19.614 -37.288  0.00  0.00    +0.073 A 
ATOM     17  C   UNL A   1      39.088 -19.696 -38.664  0.00  0.00    -0.036 A 
ATOM     18  C   UNL A   1      39.407 -18.580 -39.439  0.00  0.00    -0.060 A 
ATOM     19  C   UNL A   1      39.561 -17.345 -38.828  0.00  0.00    -0.061 A 
ATOM     20  C   UNL A   1      39.390 -17.240 -37.449  0.00  0.00    -0.051 A 
ATOM     21  C   UNL A   1      39.053 -18.364 -36.657  0.00  0.00    +0.021 A 
ATOM     22  C   UNL A   1      38.117 -21.991 -34.621  0.00  0.00    -0.010 C 
ATOM     23  C   UNL A   1      38.366 -22.003 -33.119  0.00  0.00    -0.047 C 
ATOM     24  C   UNL A   1      37.739 -20.771 -32.486  0.00  0.00    -0.049 C 
ATOM     25  C   UNL A   1      38.383 -19.500 -33.040  0.00  0.00    -0.024 C 
ENDBRANCH  10  12
ENDBRANCH   9  10
ENDBRANCH   8   9
ENDBRANCH   7   8
ENDBRANCH   6   7
ENDBRANCH   4   6
ENDBRANCH   1   2
BRANCH   1  26
ATOM     26  C   UNL A   1      45.643 -18.817 -34.498  0.00  0.00    -0.045 C 
BRANCH  26  27
ATOM     27  C   UNL A   1      46.413 -18.706 -35.818  0.00  0.00    -0.051 C 
BRANCH  27  28
ATOM     28  C   UNL A   1      46.242 -19.937 -36.715  0.00  0.00    -0.037 C 
BRANCH  28  29
ATOM     29  C   UNL A   1      46.986 -19.809 -38.046  0.00  0.00    +0.012 C 
BRANCH  29  32
ATOM     30  C   UNL A   1      45.879 -20.015 -40.320  0.00  0.00    +0.246 C 
ATOM     31  O   UNL A   1      45.658 -20.759 -41.271  0.00  0.00    -0.270 OA
ATOM     32  N   UNL A   1      46.338 -20.527 -39.132  0.00  0.00    -0.311 N 
ATOM     33  H   UNL A   1      46.214 -21.494 -38.999  0.00  0.00    +0.000 HD
BRANCH  30  39
ATOM     34  C   UNL A   1      44.388 -17.980 -40.246  0.00  0.00    +0.044 A 
ATOM     35  C   UNL A   1      44.290 -16.584 -40.378  0.00  0.00    -0.040 A 
ATOM     36  C   UNL A   1      45.385 -15.813 -40.779  0.00  0.00    -0.060 A 
ATOM     37  C   UNL A   1      46.610 -16.418 -41.045  0.00  0.00    -0.061 A 
ATOM     38  C   UNL A   1      46.746 -17.795 -40.885  0.00  0.00    -0.048 A 
ATOM     39  C   UNL A   1      45.654 -18.563 -40.456  0.00  0.00    +0.058 A 
BRANCH  34  40
ATOM     40  N   UNL A   1      43.271 -18.740 -39.807  0.00  0.00    -0.314 N 
ATOM     41  H   UNL A   1      42.606 -18.975 -40.493  0.00  0.00    +0.000 HD
BRANCH  40  47
ATOM     42  C   UNL A   1      41.758 -22.364 -36.709  0.00  0.00    -0.039 C 
ATOM     43  C   UNL A   1      42.205 -20.955 -36.987  0.00  0.00    -0.046 A 
ATOM     44  C   UNL A   1      42.243 -20.039 -35.924  0.00  0.00    -0.058 A 
ATOM     45  C   UNL A   1      42.629 -18.720 -36.135  0.00  0.00    -0.060 A 
ATOM     46  C   UNL A   1      42.992 -18.299 -37.411  0.00  0.00    -0.040 A 
ATOM     47  C   UNL A   1      43.008 -19.198 -38.487  0.00  0.00    +0.035 A 
ATOM     48  C   UNL A   1      42.605 -20.538 -38.280  0.00  0.00    -0.026 A 
ATOM     49  C   UNL A   1      42.562 -21.499 -39.444  0.00  0.00    -0.038 C 
ENDBRANCH  40  47
ENDBRANCH  34  40
ENDBRANCH  30  39
ENDBRANCH  29  32
ENDBRANCH  28  29
ENDBRANCH  27  28
ENDBRANCH  26  27
ENDBRANCH   1  26
TORSDOF 15
ENDMDL
MODEL 17
REMARK VINA RESULT:    -5.479      2.691      7.055
REMARK INTER + INTRA:         -16.557
REMARK INTER:                 -10.832
REMARK INTRA:                  -5.724
REMARK UNBOUND:                -6.273
REMARK  Name = cpd182.pdb
REMARK  17 active torsions:
REMARK  status: ('A' for Active; 'I' for Inactive)
REMARK    1  A    between atoms: C_1  and  C_2
REMARK    2  A    between atoms: C_6  and  N_7
REMARK    3  A    between atoms: N_7  and  C_8
REMARK    4  A    between atoms: C_13  and  C_14
REMARK    5  A    between atoms: N_16  and  C_17
REMARK    6  A    between atoms: C_17  and  C_18
REMARK    7  A    between atoms: C_18  and  C_19
REMARK    8  A    between atoms: C_19  and  C_20
REMARK    9  A    between atoms: C_20  and  C_21
REMARK   10  A    between atoms: C_21  and  C_22
REMARK   11  A    between atoms: N_24  and  C_25
REMARK   12  A    between atoms: C_25  and  C_26
REMARK   13  A    between atoms: C_26  and  C_27
REMARK   14  A    between atoms: C_27  and  C_28
REMARK   15  A    between atoms: C_28  and  N_29
REMARK   16  A    between atoms: N_29  and  C_30
REMARK   17  A    between atoms: C_44  and  C_45
REMARK                            x       y       z     vdW  Elec       q    Type
REMARK                         _______ _______ _______ _____ _____    ______ ____
ROOT
ATOM      1  C   UNL A   1      46.679 -20.855 -38.769  0.00  0.00    +0.024 C 
ENDROOT
BRANCH   1   2
ATOM      2  C   UNL A   1      45.751 -20.915 -39.967  0.00  0.00    +0.213 C 
ATOM      3  O   UNL A   1      46.143 -21.271 -41.073  0.00  0.00    -0.276 OA
ATOM      4  N   UNL A   1      44.444 -20.582 -39.695  0.00  0.00    -0.315 N 
ATOM      5  H   UNL A   1      44.210 -20.258 -38.795  0.00  0.00    +0.000 HD
BRANCH   4   6
ATOM      6  C   UNL A   1      43.402 -20.697 -40.695  0.00  0.00    +0.012 C 
BRANCH   6   7
ATOM      7  C   UNL A   1      42.592 -21.974 -40.493  0.00  0.00    -0.036 C 
BRANCH   7   8
ATOM      8  C   UNL A   1      41.196 -21.673 -39.942  0.00  0.00    -0.036 C 
BRANCH   8   9
ATOM      9  C   UNL A   1      41.111 -21.905 -38.432  0.00  0.00    +0.009 C 
BRANCH   9  10
ATOM     10  N   UNL A   1      39.705 -21.838 -38.004  0.00  0.00    -0.343 N 
ATOM     11  H   UNL A   1      38.994 -22.422 -38.353  0.00  0.00    +0.000 HD
BRANCH  10  12
ATOM     12  C   UNL A   1      39.496 -20.823 -37.022  0.00  0.00    +0.041 A 
ATOM     13  C   UNL A   1      39.707 -21.091 -35.653  0.00  0.00    -0.005 A 
ATOM     14  C   UNL A   1      39.528 -20.035 -34.755  0.00  0.00    +0.047 A 
ATOM     15  N   UNL A   1      39.213 -18.775 -35.139  0.00  0.00    -0.251 NA
ATOM     16  C   UNL A   1      39.026 -18.519 -36.440  0.00  0.00    +0.073 A 
ATOM     17  C   UNL A   1      38.691 -17.223 -36.814  0.00  0.00    -0.036 A 
ATOM     18  C   UNL A   1      38.464 -16.872 -38.147  0.00  0.00    -0.060 A 
ATOM     19  C   UNL A   1      38.570 -17.838 -39.135  0.00  0.00    -0.061 A 
ATOM     20  C   UNL A   1      38.907 -19.142 -38.783  0.00  0.00    -0.051 A 
ATOM     21  C   UNL A   1      39.152 -19.505 -37.436  0.00  0.00    +0.021 A 
ATOM     22  C   UNL A   1      39.736 -20.209 -33.272  0.00  0.00    -0.010 C 
ATOM     23  C   UNL A   1      39.656 -21.659 -32.816  0.00  0.00    -0.047 C 
ATOM     24  C   UNL A   1      40.531 -22.525 -33.708  0.00  0.00    -0.049 C 
ATOM     25  C   UNL A   1      40.034 -22.477 -35.153  0.00  0.00    -0.024 C 
ENDBRANCH  10  12
ENDBRANCH   9  10
ENDBRANCH   8   9
ENDBRANCH   7   8
ENDBRANCH   6   7
ENDBRANCH   4   6
ENDBRANCH   1   2
BRANCH   1  26
ATOM     26  C   UNL A   1      46.063 -20.118 -37.581  0.00  0.00    -0.045 C 
BRANCH  26  27
ATOM     27  C   UNL A   1      46.684 -18.736 -37.355  0.00  0.00    -0.051 C 
BRANCH  27  28
ATOM     28  C   UNL A   1      46.109 -18.016 -36.130  0.00  0.00    -0.037 C 
BRANCH  28  29
ATOM     29  C   UNL A   1      46.496 -18.687 -34.811  0.00  0.00    +0.012 C 
BRANCH  29  32
ATOM     30  C   UNL A   1      44.298 -19.213 -33.657  0.00  0.00    +0.246 C 
ATOM     31  O   UNL A   1      43.370 -20.011 -33.569  0.00  0.00    -0.270 OA
ATOM     32  N   UNL A   1      45.460 -19.568 -34.295  0.00  0.00    -0.311 N 
ATOM     33  H   UNL A   1      45.610 -20.533 -34.420  0.00  0.00    +0.000 HD
BRANCH  30  39
ATOM     34  C   UNL A   1      43.202 -16.943 -33.541  0.00  0.00    +0.044 A 
ATOM     35  C   UNL A   1      43.143 -15.693 -32.901  0.00  0.00    -0.040 A 
ATOM     36  C   UNL A   1      44.053 -15.345 -31.898  0.00  0.00    -0.060 A 
ATOM     37  C   UNL A   1      45.037 -16.247 -31.500  0.00  0.00    -0.061 A 
ATOM     38  C   UNL A   1      45.094 -17.507 -32.090  0.00  0.00    -0.048 A 
ATOM     39  C   UNL A   1      44.163 -17.863 -33.076  0.00  0.00    +0.058 A 
BRANCH  34  40
ATOM     40  N   UNL A   1      42.248 -17.286 -34.535  0.00  0.00    -0.314 N 
ATOM     41  H   UNL A   1      41.646 -18.035 -34.322  0.00  0.00    +0.000 HD
BRANCH  40  47
ATOM     42  C   UNL A   1      42.551 -17.483 -39.524  0.00  0.00    -0.039 C 
ATOM     43  C   UNL A   1      42.278 -16.753 -38.237  0.00  0.00    -0.046 A 
ATOM     44  C   UNL A   1      41.952 -15.389 -38.295  0.00  0.00    -0.058 A 
ATOM     45  C   UNL A   1      41.711 -14.666 -37.132  0.00  0.00    -0.060 A 
ATOM     46  C   UNL A   1      41.785 -15.298 -35.894  0.00  0.00    -0.040 A 
ATOM     47  C   UNL A   1      42.065 -16.670 -35.803  0.00  0.00    +0.035 A 
ATOM     48  C   UNL A   1      42.322 -17.407 -36.983  0.00  0.00    -0.026 A 
ATOM     49  C   UNL A   1      42.682 -18.870 -36.891  0.00  0.00    -0.038 C 
ENDBRANCH  40  47
ENDBRANCH  34  40
ENDBRANCH  30  39
ENDBRANCH  29  32
ENDBRANCH  28  29
ENDBRANCH  27  28
ENDBRANCH  26  27
ENDBRANCH   1  26
TORSDOF 15
ENDMDL
MODEL 18
REMARK VINA RESULT:    -5.344      2.152      4.308
REMARK INTER + INTRA:         -16.303
REMARK INTER:                 -10.705
REMARK INTRA:                  -5.598
REMARK UNBOUND:                -6.273
REMARK  Name = cpd182.pdb
REMARK  17 active torsions:
REMARK  status: ('A' for Active; 'I' for Inactive)
REMARK    1  A    between atoms: C_1  and  C_2
REMARK    2  A    between atoms: C_6  and  N_7
REMARK    3  A    between atoms: N_7  and  C_8
REMARK    4  A    between atoms: C_13  and  C_14
REMARK    5  A    between atoms: N_16  and  C_17
REMARK    6  A    between atoms: C_17  and  C_18
REMARK    7  A    between atoms: C_18  and  C_19
REMARK    8  A    between atoms: C_19  and  C_20
REMARK    9  A    between atoms: C_20  and  C_21
REMARK   10  A    between atoms: C_21  and  C_22
REMARK   11  A    between atoms: N_24  and  C_25
REMARK   12  A    between atoms: C_25  and  C_26
REMARK   13  A    between atoms: C_26  and  C_27
REMARK   14  A    between atoms: C_27  and  C_28
REMARK   15  A    between atoms: C_28  and  N_29
REMARK   16  A    between atoms: N_29  and  C_30
REMARK   17  A    between atoms: C_44  and  C_45
REMARK                            x       y       z     vdW  Elec       q    Type
REMARK                         _______ _______ _______ _____ _____    ______ ____
ROOT
ATOM      1  C   UNL A   1      40.976 -17.541 -35.380  0.00  0.00    +0.024 C 
ENDROOT
BRANCH   1   2
ATOM      2  C   UNL A   1      41.754 -16.277 -35.687  0.00  0.00    +0.213 C 
ATOM      3  O   UNL A   1      42.638 -15.863 -34.944  0.00  0.00    -0.276 OA
ATOM      4  N   UNL A   1      41.415 -15.671 -36.875  0.00  0.00    -0.315 N 
ATOM      5  H   UNL A   1      40.662 -16.030 -37.398  0.00  0.00    +0.000 HD
BRANCH   4   6
ATOM      6  C   UNL A   1      42.137 -14.520 -37.380  0.00  0.00    +0.012 C 
BRANCH   6   7
ATOM      7  C   UNL A   1      42.818 -14.844 -38.706  0.00  0.00    -0.036 C 
BRANCH   7   8
ATOM      8  C   UNL A   1      41.927 -15.713 -39.597  0.00  0.00    -0.036 C 
BRANCH   8   9
ATOM      9  C   UNL A   1      42.517 -17.109 -39.815  0.00  0.00    +0.009 C 
BRANCH   9  10
ATOM     10  N   UNL A   1      43.977 -17.007 -39.957  0.00  0.00    -0.343 N 
ATOM     11  H   UNL A   1      44.450 -16.182 -40.211  0.00  0.00    +0.000 HD
BRANCH  10  12
ATOM     12  C   UNL A   1      44.626 -18.249 -39.683  0.00  0.00    +0.041 A 
ATOM     13  C   UNL A   1      45.102 -18.542 -38.387  0.00  0.00    -0.005 A 
ATOM     14  C   UNL A   1      45.684 -19.796 -38.183  0.00  0.00    +0.047 A 
ATOM     15  N   UNL A   1      45.766 -20.746 -39.145  0.00  0.00    -0.251 NA
ATOM     16  C   UNL A   1      45.300 -20.471 -40.371  0.00  0.00    +0.073 A 
ATOM     17  C   UNL A   1      45.404 -21.453 -41.349  0.00  0.00    -0.036 A 
ATOM     18  C   UNL A   1      44.959 -21.247 -42.656  0.00  0.00    -0.060 A 
ATOM     19  C   UNL A   1      44.397 -20.028 -43.002  0.00  0.00    -0.061 A 
ATOM     20  C   UNL A   1      44.281 -19.030 -42.036  0.00  0.00    -0.051 A 
ATOM     21  C   UNL A   1      44.718 -19.235 -40.705  0.00  0.00    +0.021 A 
ATOM     22  C   UNL A   1      46.217 -20.216 -36.836  0.00  0.00    -0.010 C 
ATOM     23  C   UNL A   1      46.517 -19.043 -35.913  0.00  0.00    -0.047 C 
ATOM     24  C   UNL A   1      45.327 -18.097 -35.883  0.00  0.00    -0.049 C 
ATOM     25  C   UNL A   1      45.066 -17.522 -37.275  0.00  0.00    -0.024 C 
ENDBRANCH  10  12
ENDBRANCH   9  10
ENDBRANCH   8   9
ENDBRANCH   7   8
ENDBRANCH   6   7
ENDBRANCH   4   6
ENDBRANCH   1   2
BRANCH   1  26
ATOM     26  C   UNL A   1      41.826 -18.605 -34.688  0.00  0.00    -0.045 C 
BRANCH  26  27
ATOM     27  C   UNL A   1      41.595 -18.656 -33.175  0.00  0.00    -0.051 C 
BRANCH  27  28
ATOM     28  C   UNL A   1      41.261 -20.063 -32.667  0.00  0.00    -0.037 C 
BRANCH  28  29
ATOM     29  C   UNL A   1      41.720 -21.164 -33.625  0.00  0.00    +0.012 C 
BRANCH  29  32
ATOM     30  C   UNL A   1      40.268 -22.479 -35.238  0.00  0.00    +0.246 C 
ATOM     31  O   UNL A   1      39.595 -23.494 -35.393  0.00  0.00    -0.270 OA
ATOM     32  N   UNL A   1      40.656 -22.090 -33.980  0.00  0.00    -0.311 N 
ATOM     33  H   UNL A   1      40.155 -22.483 -33.230  0.00  0.00    +0.000 HD
BRANCH  30  39
ATOM     34  C   UNL A   1      39.757 -20.831 -37.080  0.00  0.00    +0.044 A 
ATOM     35  C   UNL A   1      40.247 -20.092 -38.171  0.00  0.00    -0.040 A 
ATOM     36  C   UNL A   1      41.560 -20.248 -38.624  0.00  0.00    -0.060 A 
ATOM     37  C   UNL A   1      42.422 -21.137 -37.987  0.00  0.00    -0.061 A 
ATOM     38  C   UNL A   1      41.975 -21.854 -36.880  0.00  0.00    -0.048 A 
ATOM     39  C   UNL A   1      40.665 -21.675 -36.410  0.00  0.00    +0.058 A 
BRANCH  34  40
ATOM     40  N   UNL A   1      38.429 -20.633 -36.617  0.00  0.00    -0.314 N 
ATOM     41  H   UNL A   1      37.749 -21.256 -36.962  0.00  0.00    +0.000 HD
BRANCH  40  47
ATOM     42  C   UNL A   1      36.697 -16.015 -35.784  0.00  0.00    -0.039 C 
ATOM     43  C   UNL A   1      37.188 -17.356 -35.310  0.00  0.00    -0.046 A 
ATOM     44  C   UNL A   1      37.310 -17.577 -33.929  0.00  0.00    -0.058 A 
ATOM     45  C   UNL A   1      37.777 -18.793 -33.442  0.00  0.00    -0.060 A 
ATOM     46  C   UNL A   1      38.123 -19.808 -34.328  0.00  0.00    -0.040 A 
ATOM     47  C   UNL A   1      37.973 -19.637 -35.712  0.00  0.00    +0.035 A 
ATOM     48  C   UNL A   1      37.507 -18.398 -36.213  0.00  0.00    -0.026 A 
ATOM     49  C   UNL A   1      37.397 -18.183 -37.703  0.00  0.00    -0.038 C 
ENDBRANCH  40  47
ENDBRANCH  34  40
ENDBRANCH  30  39
ENDBRANCH  29  32
ENDBRANCH  28  29
ENDBRANCH  27  28
ENDBRANCH  26  27
ENDBRANCH   1  26
TORSDOF 15
ENDMDL
MODEL 19
REMARK VINA RESULT:    -5.300      2.128      6.060
REMARK INTER + INTRA:         -16.221
REMARK INTER:                 -10.227
REMARK INTRA:                  -5.994
REMARK UNBOUND:                -6.273
REMARK  Name = cpd182.pdb
REMARK  17 active torsions:
REMARK  status: ('A' for Active; 'I' for Inactive)
REMARK    1  A    between atoms: C_1  and  C_2
REMARK    2  A    between atoms: C_6  and  N_7
REMARK    3  A    between atoms: N_7  and  C_8
REMARK    4  A    between atoms: C_13  and  C_14
REMARK    5  A    between atoms: N_16  and  C_17
REMARK    6  A    between atoms: C_17  and  C_18
REMARK    7  A    between atoms: C_18  and  C_19
REMARK    8  A    between atoms: C_19  and  C_20
REMARK    9  A    between atoms: C_20  and  C_21
REMARK   10  A    between atoms: C_21  and  C_22
REMARK   11  A    between atoms: N_24  and  C_25
REMARK   12  A    between atoms: C_25  and  C_26
REMARK   13  A    between atoms: C_26  and  C_27
REMARK   14  A    between atoms: C_27  and  C_28
REMARK   15  A    between atoms: C_28  and  N_29
REMARK   16  A    between atoms: N_29  and  C_30
REMARK   17  A    between atoms: C_44  and  C_45
REMARK                            x       y       z     vdW  Elec       q    Type
REMARK                         _______ _______ _______ _____ _____    ______ ____
ROOT
ATOM      1  C   UNL A   1      43.876 -15.580 -41.402  0.00  0.00    +0.024 C 
ENDROOT
BRANCH   1   2
ATOM      2  C   UNL A   1      42.593 -14.897 -40.968  0.00  0.00    +0.213 C 
ATOM      3  O   UNL A   1      42.133 -13.936 -41.576  0.00  0.00    -0.276 OA
ATOM      4  N   UNL A   1      41.982 -15.470 -39.876  0.00  0.00    -0.315 N 
ATOM      5  H   UNL A   1      42.434 -16.208 -39.407  0.00  0.00    +0.000 HD
BRANCH   4   6
ATOM      6  C   UNL A   1      40.691 -15.016 -39.398  0.00  0.00    +0.012 C 
BRANCH   6   7
ATOM      7  C   UNL A   1      40.574 -15.205 -37.889  0.00  0.00    -0.036 C 
BRANCH   7   8
ATOM      8  C   UNL A   1      40.315 -16.669 -37.524  0.00  0.00    -0.036 C 
BRANCH   8   9
ATOM      9  C   UNL A   1      39.079 -17.230 -38.231  0.00  0.00    +0.009 C 
BRANCH   9  10
ATOM     10  N   UNL A   1      38.383 -18.164 -37.333  0.00  0.00    -0.343 N 
ATOM     11  H   UNL A   1      37.415 -18.142 -37.157  0.00  0.00    +0.000 HD
BRANCH  10  12
ATOM     12  C   UNL A   1      39.280 -19.106 -36.746  0.00  0.00    +0.041 A 
ATOM     13  C   UNL A   1      39.473 -19.145 -35.349  0.00  0.00    -0.005 A 
ATOM     14  C   UNL A   1      40.331 -20.126 -34.844  0.00  0.00    +0.047 A 
ATOM     15  N   UNL A   1      40.938 -21.056 -35.618  0.00  0.00    -0.251 NA
ATOM     16  C   UNL A   1      40.743 -21.027 -36.943  0.00  0.00    +0.073 A 
ATOM     17  C   UNL A   1      41.385 -21.981 -37.723  0.00  0.00    -0.036 A 
ATOM     18  C   UNL A   1      41.249 -22.016 -39.113  0.00  0.00    -0.060 A 
ATOM     19  C   UNL A   1      40.456 -21.071 -39.745  0.00  0.00    -0.061 A 
ATOM     20  C   UNL A   1      39.803 -20.106 -38.982  0.00  0.00    -0.051 A 
ATOM     21  C   UNL A   1      39.923 -20.071 -37.572  0.00  0.00    +0.021 A 
ATOM     22  C   UNL A   1      40.601 -20.262 -33.366  0.00  0.00    -0.010 C 
ATOM     23  C   UNL A   1      40.288 -18.999 -32.576  0.00  0.00    -0.047 C 
ATOM     24  C   UNL A   1      38.903 -18.492 -32.947  0.00  0.00    -0.049 C 
ATOM     25  C   UNL A   1      38.848 -18.123 -34.429  0.00  0.00    -0.024 C 
ENDBRANCH  10  12
ENDBRANCH   9  10
ENDBRANCH   8   9
ENDBRANCH   7   8
ENDBRANCH   6   7
ENDBRANCH   4   6
ENDBRANCH   1   2
BRANCH   1  26
ATOM     26  C   UNL A   1      44.886 -15.717 -40.264  0.00  0.00    -0.045 C 
BRANCH  26  27
ATOM     27  C   UNL A   1      46.259 -16.197 -40.745  0.00  0.00    -0.051 C 
BRANCH  27  28
ATOM     28  C   UNL A   1      47.041 -16.951 -39.664  0.00  0.00    -0.037 C 
BRANCH  28  29
ATOM     29  C   UNL A   1      46.507 -16.690 -38.254  0.00  0.00    +0.012 C 
BRANCH  29  32
ATOM     30  C   UNL A   1      46.742 -18.036 -36.115  0.00  0.00    +0.246 C 
ATOM     31  O   UNL A   1      47.417 -18.866 -35.515  0.00  0.00    -0.270 OA
ATOM     32  N   UNL A   1      47.247 -17.403 -37.224  0.00  0.00    -0.311 N 
ATOM     33  H   UNL A   1      48.224 -17.436 -37.335  0.00  0.00    +0.000 HD
BRANCH  30  39
ATOM     34  C   UNL A   1      44.253 -18.450 -36.077  0.00  0.00    +0.044 A 
ATOM     35  C   UNL A   1      43.004 -18.080 -35.549  0.00  0.00    -0.040 A 
ATOM     36  C   UNL A   1      42.871 -16.981 -34.694  0.00  0.00    -0.060 A 
ATOM     37  C   UNL A   1      43.990 -16.234 -34.334  0.00  0.00    -0.061 A 
ATOM     38  C   UNL A   1      45.245 -16.601 -34.811  0.00  0.00    -0.048 A 
ATOM     39  C   UNL A   1      45.379 -17.720 -35.646  0.00  0.00    +0.058 A 
BRANCH  34  40
ATOM     40  N   UNL A   1      44.368 -19.588 -36.918  0.00  0.00    -0.314 N 
ATOM     41  H   UNL A   1      44.524 -20.449 -36.468  0.00  0.00    +0.000 HD
BRANCH  40  47
ATOM     42  C   UNL A   1      46.374 -20.779 -41.343  0.00  0.00    -0.039 C 
ATOM     43  C   UNL A   1      45.301 -20.149 -40.497  0.00  0.00    -0.046 A 
ATOM     44  C   UNL A   1      44.251 -19.473 -41.136  0.00  0.00    -0.058 A 
ATOM     45  C   UNL A   1      43.247 -18.858 -40.397  0.00  0.00    -0.060 A 
ATOM     46  C   UNL A   1      43.272 -18.917 -39.007  0.00  0.00    -0.040 A 
ATOM     47  C   UNL A   1      44.283 -19.622 -38.337  0.00  0.00    +0.035 A 
ATOM     48  C   UNL A   1      45.313 -20.240 -39.084  0.00  0.00    -0.026 A 
ATOM     49  C   UNL A   1      46.437 -20.951 -38.370  0.00  0.00    -0.038 C 
ENDBRANCH  40  47
ENDBRANCH  34  40
ENDBRANCH  30  39
ENDBRANCH  29  32
ENDBRANCH  28  29
ENDBRANCH  27  28
ENDBRANCH  26  27
ENDBRANCH   1  26
TORSDOF 15
ENDMDL
MODEL 20
REMARK VINA RESULT:    -5.230      2.530      7.072
REMARK INTER + INTRA:         -16.089
REMARK INTER:                 -10.915
REMARK INTRA:                  -5.174
REMARK UNBOUND:                -6.273
REMARK  Name = cpd182.pdb
REMARK  17 active torsions:
REMARK  status: ('A' for Active; 'I' for Inactive)
REMARK    1  A    between atoms: C_1  and  C_2
REMARK    2  A    between atoms: C_6  and  N_7
REMARK    3  A    between atoms: N_7  and  C_8
REMARK    4  A    between atoms: C_13  and  C_14
REMARK    5  A    between atoms: N_16  and  C_17
REMARK    6  A    between atoms: C_17  and  C_18
REMARK    7  A    between atoms: C_18  and  C_19
REMARK    8  A    between atoms: C_19  and  C_20
REMARK    9  A    between atoms: C_20  and  C_21
REMARK   10  A    between atoms: C_21  and  C_22
REMARK   11  A    between atoms: N_24  and  C_25
REMARK   12  A    between atoms: C_25  and  C_26
REMARK   13  A    between atoms: C_26  and  C_27
REMARK   14  A    between atoms: C_27  and  C_28
REMARK   15  A    between atoms: C_28  and  N_29
REMARK   16  A    between atoms: N_29  and  C_30
REMARK   17  A    between atoms: C_44  and  C_45
REMARK                            x       y       z     vdW  Elec       q    Type
REMARK                         _______ _______ _______ _____ _____    ______ ____
ROOT
ATOM      1  C   UNL A   1      43.304 -15.249 -38.042  0.00  0.00    +0.024 C 
ENDROOT
BRANCH   1   2
ATOM      2  C   UNL A   1      42.112 -15.402 -38.968  0.00  0.00    +0.213 C 
ATOM      3  O   UNL A   1      42.179 -15.122 -40.160  0.00  0.00    -0.276 OA
ATOM      4  N   UNL A   1      40.985 -15.914 -38.368  0.00  0.00    -0.315 N 
ATOM      5  H   UNL A   1      40.987 -16.068 -37.396  0.00  0.00    +0.000 HD
BRANCH   4   6
ATOM      6  C   UNL A   1      39.793 -16.232 -39.129  0.00  0.00    +0.012 C 
BRANCH   6   7
ATOM      7  C   UNL A   1      39.315 -17.648 -38.821  0.00  0.00    -0.036 C 
BRANCH   7   8
ATOM      8  C   UNL A   1      40.486 -18.577 -38.492  0.00  0.00    -0.036 C 
BRANCH   8   9
ATOM      9  C   UNL A   1      40.066 -19.731 -37.578  0.00  0.00    +0.009 C 
BRANCH   9  10
ATOM     10  N   UNL A   1      39.069 -19.250 -36.609  0.00  0.00    -0.343 N 
ATOM     11  H   UNL A   1      38.150 -18.990 -36.847  0.00  0.00    +0.000 HD
BRANCH  10  12
ATOM     12  C   UNL A   1      39.594 -19.206 -35.282  0.00  0.00    +0.041 A 
ATOM     13  C   UNL A   1      39.941 -20.394 -34.605  0.00  0.00    -0.005 A 
ATOM     14  C   UNL A   1      40.493 -20.270 -33.327  0.00  0.00    +0.047 A 
ATOM     15  N   UNL A   1      40.751 -19.077 -32.739  0.00  0.00    -0.251 NA
ATOM     16  C   UNL A   1      40.434 -17.950 -33.390  0.00  0.00    +0.073 A 
ATOM     17  C   UNL A   1      40.694 -16.735 -32.765  0.00  0.00    -0.036 A 
ATOM     18  C   UNL A   1      40.383 -15.513 -33.364  0.00  0.00    -0.060 A 
ATOM     19  C   UNL A   1      39.793 -15.497 -34.618  0.00  0.00    -0.061 A 
ATOM     20  C   UNL A   1      39.525 -16.703 -35.263  0.00  0.00    -0.051 A 
ATOM     21  C   UNL A   1      39.849 -17.947 -34.669  0.00  0.00    +0.021 A 
ATOM     22  C   UNL A   1      40.907 -21.473 -32.519  0.00  0.00    -0.010 C 
ATOM     23  C   UNL A   1      40.237 -22.764 -32.971  0.00  0.00    -0.047 C 
ATOM     24  C   UNL A   1      40.369 -22.908 -34.479  0.00  0.00    -0.049 C 
ATOM     25  C   UNL A   1      39.657 -21.757 -35.189  0.00  0.00    -0.024 C 
ENDBRANCH  10  12
ENDBRANCH   9  10
ENDBRANCH   8   9
ENDBRANCH   7   8
ENDBRANCH   6   7
ENDBRANCH   4   6
ENDBRANCH   1   2
BRANCH   1  26
ATOM     26  C   UNL A   1      43.506 -16.462 -37.134  0.00  0.00    -0.045 C 
BRANCH  26  27
ATOM     27  C   UNL A   1      43.245 -16.147 -35.659  0.00  0.00    -0.051 C 
BRANCH  27  28
ATOM     28  C   UNL A   1      43.753 -17.243 -34.714  0.00  0.00    -0.037 C 
BRANCH  28  29
ATOM     29  C   UNL A   1      43.858 -18.610 -35.394  0.00  0.00    +0.012 C 
BRANCH  29  32
ATOM     30  C   UNL A   1      46.343 -19.117 -35.326  0.00  0.00    +0.246 C 
ATOM     31  O   UNL A   1      47.256 -19.606 -34.667  0.00  0.00    -0.270 OA
ATOM     32  N   UNL A   1      45.036 -19.360 -34.986  0.00  0.00    -0.311 N 
ATOM     33  H   UNL A   1      44.876 -20.132 -34.397  0.00  0.00    +0.000 HD
BRANCH  30  39
ATOM     34  C   UNL A   1      46.693 -18.770 -37.801  0.00  0.00    +0.044 A 
ATOM     35  C   UNL A   1      46.975 -17.862 -38.837  0.00  0.00    -0.040 A 
ATOM     36  C   UNL A   1      47.282 -16.525 -38.568  0.00  0.00    -0.060 A 
ATOM     37  C   UNL A   1      47.301 -16.059 -37.256  0.00  0.00    -0.061 A 
ATOM     38  C   UNL A   1      46.988 -16.927 -36.213  0.00  0.00    -0.048 A 
ATOM     39  C   UNL A   1      46.653 -18.261 -36.488  0.00  0.00    +0.058 A 
BRANCH  34  40
ATOM     40  N   UNL A   1      46.353 -20.116 -38.100  0.00  0.00    -0.314 N 
ATOM     41  H   UNL A   1      46.845 -20.811 -37.606  0.00  0.00    +0.000 HD
BRANCH  40  47
ATOM     42  C   UNL A   1      45.221 -22.060 -42.568  0.00  0.00    -0.039 C 
ATOM     43  C   UNL A   1      44.835 -21.462 -41.242  0.00  0.00    -0.046 A 
ATOM     44  C   UNL A   1      43.475 -21.238 -40.977  0.00  0.00    -0.058 A 
ATOM     45  C   UNL A   1      43.069 -20.669 -39.775  0.00  0.00    -0.060 A 
ATOM     46  C   UNL A   1      44.016 -20.322 -38.817  0.00  0.00    -0.040 A 
ATOM     47  C   UNL A   1      45.380 -20.571 -39.031  0.00  0.00    +0.035 A 
ATOM     48  C   UNL A   1      45.799 -21.140 -40.257  0.00  0.00    -0.026 A 
ATOM     49  C   UNL A   1      47.269 -21.359 -40.521  0.00  0.00    -0.038 C 
ENDBRANCH  40  47
ENDBRANCH  34  40
ENDBRANCH  30  39
ENDBRANCH  29  32
ENDBRANCH  28  29
ENDBRANCH  27  28
ENDBRANCH  26  27
ENDBRANCH   1  26
TORSDOF 15
ENDMDL
