REMARK  Name = cpd182.pdb
REMARK  17 active torsions:
REMARK  status: ('A' for Active; 'I' for Inactive)
REMARK    1  A    between atoms: C_1  and  C_2
REMARK    2  A    between atoms: C_6  and  N_7
REMARK    3  A    between atoms: N_7  and  C_8
REMARK    4  A    between atoms: C_13  and  C_14
REMARK    5  A    between atoms: N_16  and  C_17
REMARK    6  A    between atoms: C_17  and  C_18
REMARK    7  A    between atoms: C_18  and  C_19
REMARK    8  A    between atoms: C_19  and  C_20
REMARK    9  A    between atoms: C_20  and  C_21
REMARK   10  A    between atoms: C_21  and  C_22
REMARK   11  A    between atoms: N_24  and  C_25
REMARK   12  A    between atoms: C_25  and  C_26
REMARK   13  A    between atoms: C_26  and  C_27
REMARK   14  A    between atoms: C_27  and  C_28
REMARK   15  A    between atoms: C_28  and  N_29
REMARK   16  A    between atoms: N_29  and  C_30
REMARK   17  A    between atoms: C_44  and  C_45
REMARK                            x       y       z     vdW  Elec       q    Type
REMARK                         _______ _______ _______ _____ _____    ______ ____
ROOT
ATOM      1  C   UNL A   1       6.413   4.290   0.406  0.00  0.00    +0.024 C 
ENDROOT
BRANCH   1   2
ATOM      2  C   UNL A   1       7.303   5.410   0.910  0.00  0.00    +0.213 C 
ATOM      3  O   UNL A   1       7.369   5.699   2.100  0.00  0.00    -0.276 OA
ATOM      4  N   UNL A   1       8.048   6.031  -0.066  0.00  0.00    -0.315 N 
ATOM      5  H   UNL A   1       7.907   5.781  -1.008  0.00  0.00    +0.000 HD
BRANCH   4   6
ATOM      6  C   UNL A   1       9.035   7.043   0.254  0.00  0.00    +0.012 C 
BRANCH   6   7
ATOM      7  C   UNL A   1      10.407   6.413   0.473  0.00  0.00    -0.036 C 
BRANCH   7   8
ATOM      8  C   UNL A   1      11.448   7.460   0.878  0.00  0.00    -0.036 C 
BRANCH   8   9
ATOM      9  C   UNL A   1      12.843   6.852   1.041  0.00  0.00    +0.009 C 
BRANCH   9  10
ATOM     10  N   UNL A   1      13.376   6.488  -0.281  0.00  0.00    -0.343 N 
ATOM     11  H   UNL A   1      12.937   6.711  -1.133  0.00  0.00    +0.000 HD
BRANCH  10  12
ATOM     12  C   UNL A   1      14.607   5.772  -0.179  0.00  0.00    +0.041 A 
ATOM     13  C   UNL A   1      15.842   6.453  -0.222  0.00  0.00    -0.005 A 
ATOM     14  C   UNL A   1      17.004   5.691  -0.069  0.00  0.00    +0.047 A 
ATOM     15  N   UNL A   1      16.995   4.357   0.164  0.00  0.00    -0.251 NA
ATOM     16  C   UNL A   1      15.821   3.714   0.219  0.00  0.00    +0.073 A 
ATOM     17  C   UNL A   1      15.832   2.343   0.446  0.00  0.00    -0.036 A 
ATOM     18  C   UNL A   1      14.656   1.592   0.504  0.00  0.00    -0.060 A 
ATOM     19  C   UNL A   1      13.434   2.222   0.327  0.00  0.00    -0.061 A 
ATOM     20  C   UNL A   1      13.400   3.596   0.100  0.00  0.00    -0.051 A 
ATOM     21  C   UNL A   1      14.586   4.368   0.053  0.00  0.00    +0.021 A 
ATOM     22  C   UNL A   1      18.375   6.318  -0.090  0.00  0.00    -0.010 C 
ATOM     23  C   UNL A   1      18.405   7.682  -0.766  0.00  0.00    -0.047 C 
ATOM     24  C   UNL A   1      17.292   8.555  -0.208  0.00  0.00    -0.049 C 
ATOM     25  C   UNL A   1      15.927   7.934  -0.504  0.00  0.00    -0.024 C 
ENDBRANCH  10  12
ENDBRANCH   9  10
ENDBRANCH   8   9
ENDBRANCH   7   8
ENDBRANCH   6   7
ENDBRANCH   4   6
ENDBRANCH   1   2
BRANCH   1  26
ATOM     26  C   UNL A   1       5.392   4.766  -0.626  0.00  0.00    -0.045 C 
BRANCH  26  27
ATOM     27  C   UNL A   1       4.444   3.652  -1.079  0.00  0.00    -0.051 C 
BRANCH  27  28
ATOM     28  C   UNL A   1       3.351   3.341  -0.050  0.00  0.00    -0.037 C 
BRANCH  28  29
ATOM     29  C   UNL A   1       2.466   2.163  -0.462  0.00  0.00    +0.012 C 
BRANCH  29  32
ATOM     30  C   UNL A   1       0.715   3.172  -1.997  0.00  0.00    +0.246 C 
ATOM     31  O   UNL A   1       0.458   3.514  -3.147  0.00  0.00    -0.270 OA
ATOM     32  N   UNL A   1       1.799   2.371  -1.738  0.00  0.00    -0.311 N 
ATOM     33  H   UNL A   1       2.169   1.879  -2.506  0.00  0.00    +0.000 HD
BRANCH  30  39
ATOM     34  C   UNL A   1      -0.918   2.731  -0.124  0.00  0.00    +0.044 A 
ATOM     35  C   UNL A   1      -1.681   3.269   0.927  0.00  0.00    -0.040 A 
ATOM     36  C   UNL A   1      -1.733   4.647   1.157  0.00  0.00    -0.060 A 
ATOM     37  C   UNL A   1      -1.010   5.521   0.349  0.00  0.00    -0.061 A 
ATOM     38  C   UNL A   1      -0.215   5.013  -0.675  0.00  0.00    -0.048 A 
ATOM     39  C   UNL A   1      -0.143   3.628  -0.886  0.00  0.00    +0.058 A 
BRANCH  34  40
ATOM     40  N   UNL A   1      -0.855   1.326  -0.319  0.00  0.00    -0.314 N 
ATOM     41  H   UNL A   1       0.005   0.967  -0.636  0.00  0.00    +0.000 HD
BRANCH  40  47
ATOM     42  C   UNL A   1      -2.306  -3.337   0.765  0.00  0.00    -0.039 C 
ATOM     43  C   UNL A   1      -2.592  -1.917   0.359  0.00  0.00    -0.046 A 
ATOM     44  C   UNL A   1      -3.916  -1.556   0.064  0.00  0.00    -0.058 A 
ATOM     45  C   UNL A   1      -4.228  -0.261  -0.335  0.00  0.00    -0.060 A 
ATOM     46  C   UNL A   1      -3.222   0.695  -0.437  0.00  0.00    -0.040 A 
ATOM     47  C   UNL A   1      -1.895   0.380  -0.108  0.00  0.00    +0.035 A 
ATOM     48  C   UNL A   1      -1.571  -0.939   0.288  0.00  0.00    -0.026 A 
ATOM     49  C   UNL A   1      -0.137  -1.303   0.588  0.00  0.00    -0.038 C 
ENDBRANCH  40  47
ENDBRANCH  34  40
ENDBRANCH  30  39
ENDBRANCH  29  32
ENDBRANCH  28  29
ENDBRANCH  27  28
ENDBRANCH  26  27
ENDBRANCH   1  26
TORSDOF 15
