MODEL 1
REMARK VINA RESULT:    -7.894      0.000      0.000
REMARK INTER + INTRA:         -16.967
REMARK INTER:                 -13.432
REMARK INTRA:                  -3.535
REMARK UNBOUND:                -3.535
REMARK  Name = cpd32.pdb
REMARK  14 active torsions:
REMARK  status: ('A' for Active; 'I' for Inactive)
REMARK    1  A    between atoms: C_1  and  C_2
REMARK    2  A    between atoms: C_6  and  N_7
REMARK    3  A    between atoms: N_7  and  C_8
REMARK    4  A    between atoms: C_13  and  C_14
REMARK    5  A    between atoms: N_16  and  C_17
REMARK    6  A    between atoms: C_17  and  C_18
REMARK    7  A    between atoms: C_18  and  C_19
REMARK    8  A    between atoms: N_21  and  C_22
REMARK    9  A    between atoms: C_22  and  C_23
REMARK   10  A    between atoms: C_23  and  C_24
REMARK   11  A    between atoms: C_24  and  C_25
REMARK   12  A    between atoms: C_25  and  N_26
REMARK   13  A    between atoms: N_26  and  C_27
REMARK   14  A    between atoms: C_41  and  C_42
REMARK                            x       y       z     vdW  Elec       q    Type
REMARK                         _______ _______ _______ _____ _____    ______ ____
ROOT
ATOM      1  C   UNL A   1      44.913 -18.514 -33.974  0.00  0.00    +0.215 C 
ATOM      2  O   UNL A   1      45.074 -19.688 -33.660  0.00  0.00    -0.276 OA
ATOM      3  N   UNL A   1      45.892 -17.731 -34.544  0.00  0.00    -0.315 N 
ATOM      4  H   UNL A   1      45.687 -16.789 -34.747  0.00  0.00    +0.000 HD
ENDROOT
BRANCH   1   5
ATOM      5  C   UNL A   1      43.584 -17.818 -33.813  0.00  0.00    +0.039 C 
BRANCH   5   6
ATOM      6  C   UNL A   1      42.980 -17.570 -35.183  0.00  0.00    +0.020 C 
BRANCH   6   9
ATOM      7  C   UNL A   1      41.732 -18.993 -36.737  0.00  0.00    +0.246 C 
ATOM      8  O   UNL A   1      40.746 -18.265 -36.702  0.00  0.00    -0.270 OA
ATOM      9  N   UNL A   1      42.857 -18.793 -35.956  0.00  0.00    -0.311 N 
ATOM     10  H   UNL A   1      43.568 -19.474 -35.925  0.00  0.00    +0.000 HD
BRANCH   7  16
ATOM     11  C   UNL A   1      40.692 -21.000 -37.835  0.00  0.00    +0.044 A 
ATOM     12  C   UNL A   1      40.763 -21.997 -38.822  0.00  0.00    -0.040 A 
ATOM     13  C   UNL A   1      41.919 -22.180 -39.587  0.00  0.00    -0.060 A 
ATOM     14  C   UNL A   1      43.020 -21.350 -39.401  0.00  0.00    -0.061 A 
ATOM     15  C   UNL A   1      42.959 -20.317 -38.466  0.00  0.00    -0.048 A 
ATOM     16  C   UNL A   1      41.794 -20.123 -37.705  0.00  0.00    +0.058 A 
BRANCH  11  17
ATOM     17  N   UNL A   1      39.487 -20.774 -37.116  0.00  0.00    -0.314 N 
ATOM     18  H   UNL A   1      38.920 -20.043 -37.452  0.00  0.00    +0.000 HD
BRANCH  17  24
ATOM     19  C   UNL A   1      36.818 -20.742 -32.891  0.00  0.00    -0.039 C 
ATOM     20  C   UNL A   1      37.729 -21.418 -33.880  0.00  0.00    -0.046 A 
ATOM     21  C   UNL A   1      38.191 -22.712 -33.594  0.00  0.00    -0.058 A 
ATOM     22  C   UNL A   1      39.060 -23.364 -34.465  0.00  0.00    -0.060 A 
ATOM     23  C   UNL A   1      39.470 -22.734 -35.637  0.00  0.00    -0.040 A 
ATOM     24  C   UNL A   1      38.990 -21.462 -35.977  0.00  0.00    +0.035 A 
ATOM     25  C   UNL A   1      38.117 -20.790 -35.087  0.00  0.00    -0.026 A 
ATOM     26  C   UNL A   1      37.656 -19.389 -35.410  0.00  0.00    -0.038 C 
ENDBRANCH  17  24
ENDBRANCH  11  17
ENDBRANCH   7  16
ENDBRANCH   6   9
ENDBRANCH   5   6
ENDBRANCH   1   5
BRANCH   3  27
ATOM     27  C   UNL A   1      47.210 -18.241 -34.854  0.00  0.00    +0.012 C 
BRANCH  27  28
ATOM     28  C   UNL A   1      47.375 -18.589 -36.333  0.00  0.00    -0.036 C 
BRANCH  28  29
ATOM     29  C   UNL A   1      46.310 -19.564 -36.842  0.00  0.00    -0.036 C 
BRANCH  29  30
ATOM     30  C   UNL A   1      46.796 -20.313 -38.083  0.00  0.00    +0.009 C 
BRANCH  30  31
ATOM     31  N   UNL A   1      47.302 -19.342 -39.062  0.00  0.00    -0.343 N 
ATOM     32  H   UNL A   1      48.183 -18.905 -39.006  0.00  0.00    +0.000 HD
BRANCH  31  33
ATOM     33  C   UNL A   1      46.356 -19.111 -40.106  0.00  0.00    +0.041 A 
ATOM     34  C   UNL A   1      45.709 -17.860 -40.158  0.00  0.00    -0.005 A 
ATOM     35  C   UNL A   1      44.761 -17.662 -41.161  0.00  0.00    +0.047 A 
ATOM     36  N   UNL A   1      44.403 -18.625 -42.042  0.00  0.00    -0.251 NA
ATOM     37  C   UNL A   1      45.005 -19.820 -41.981  0.00  0.00    +0.073 A 
ATOM     38  C   UNL A   1      44.622 -20.787 -42.902  0.00  0.00    -0.036 A 
ATOM     39  C   UNL A   1      45.191 -22.062 -42.919  0.00  0.00    -0.060 A 
ATOM     40  C   UNL A   1      46.171 -22.385 -41.994  0.00  0.00    -0.061 A 
ATOM     41  C   UNL A   1      46.573 -21.431 -41.060  0.00  0.00    -0.051 A 
ATOM     42  C   UNL A   1      45.999 -20.133 -41.031  0.00  0.00    +0.021 A 
ATOM     43  C   UNL A   1      44.017 -16.358 -41.299  0.00  0.00    -0.010 C 
ATOM     44  C   UNL A   1      44.734 -15.185 -40.643  0.00  0.00    -0.047 C 
ATOM     45  C   UNL A   1      45.141 -15.557 -39.225  0.00  0.00    -0.049 C 
ATOM     46  C   UNL A   1      46.119 -16.733 -39.239  0.00  0.00    -0.024 C 
ENDBRANCH  31  33
ENDBRANCH  30  31
ENDBRANCH  29  30
ENDBRANCH  28  29
ENDBRANCH  27  28
ENDBRANCH   3  27
TORSDOF 12
ENDMDL
MODEL 2
REMARK VINA RESULT:    -7.813      1.931      7.375
REMARK INTER + INTRA:         -16.829
REMARK INTER:                 -12.785
REMARK INTRA:                  -4.044
REMARK UNBOUND:                -3.535
REMARK  Name = cpd32.pdb
REMARK  14 active torsions:
REMARK  status: ('A' for Active; 'I' for Inactive)
REMARK    1  A    between atoms: C_1  and  C_2
REMARK    2  A    between atoms: C_6  and  N_7
REMARK    3  A    between atoms: N_7  and  C_8
REMARK    4  A    between atoms: C_13  and  C_14
REMARK    5  A    between atoms: N_16  and  C_17
REMARK    6  A    between atoms: C_17  and  C_18
REMARK    7  A    between atoms: C_18  and  C_19
REMARK    8  A    between atoms: N_21  and  C_22
REMARK    9  A    between atoms: C_22  and  C_23
REMARK   10  A    between atoms: C_23  and  C_24
REMARK   11  A    between atoms: C_24  and  C_25
REMARK   12  A    between atoms: C_25  and  N_26
REMARK   13  A    between atoms: N_26  and  C_27
REMARK   14  A    between atoms: C_41  and  C_42
REMARK                            x       y       z     vdW  Elec       q    Type
REMARK                         _______ _______ _______ _____ _____    ______ ____
ROOT
ATOM      1  C   UNL A   1      46.084 -16.937 -35.911  0.00  0.00    +0.215 C 
ATOM      2  O   UNL A   1      45.764 -17.312 -34.788  0.00  0.00    -0.276 OA
ATOM      3  N   UNL A   1      45.374 -16.013 -36.643  0.00  0.00    -0.315 N 
ATOM      4  H   UNL A   1      45.687 -15.781 -37.547  0.00  0.00    +0.000 HD
ENDROOT
BRANCH   1   5
ATOM      5  C   UNL A   1      47.342 -17.423 -36.588  0.00  0.00    +0.039 C 
BRANCH   5   6
ATOM      6  C   UNL A   1      47.543 -18.894 -36.273  0.00  0.00    +0.020 C 
BRANCH   6   9
ATOM      7  C   UNL A   1      46.395 -20.325 -37.895  0.00  0.00    +0.246 C 
ATOM      8  O   UNL A   1      45.364 -20.348 -37.231  0.00  0.00    -0.270 OA
ATOM      9  N   UNL A   1      47.562 -19.713 -37.472  0.00  0.00    -0.311 N 
ATOM     10  H   UNL A   1      48.397 -19.831 -37.979  0.00  0.00    +0.000 HD
BRANCH   7  16
ATOM     11  C   UNL A   1      45.742 -20.266 -40.321  0.00  0.00    +0.044 A 
ATOM     12  C   UNL A   1      45.865 -20.814 -41.608  0.00  0.00    -0.040 A 
ATOM     13  C   UNL A   1      46.553 -22.012 -41.824  0.00  0.00    -0.060 A 
ATOM     14  C   UNL A   1      47.157 -22.674 -40.760  0.00  0.00    -0.061 A 
ATOM     15  C   UNL A   1      47.097 -22.125 -39.480  0.00  0.00    -0.048 A 
ATOM     16  C   UNL A   1      46.418 -20.915 -39.262  0.00  0.00    +0.058 A 
BRANCH  11  17
ATOM     17  N   UNL A   1      45.106 -19.010 -40.124  0.00  0.00    -0.314 N 
ATOM     18  H   UNL A   1      44.186 -19.047 -39.777  0.00  0.00    +0.000 HD
BRANCH  17  24
ATOM     19  C   UNL A   1      44.377 -14.296 -41.616  0.00  0.00    -0.039 C 
ATOM     20  C   UNL A   1      45.265 -15.418 -41.149  0.00  0.00    -0.046 A 
ATOM     21  C   UNL A   1      46.649 -15.195 -41.074  0.00  0.00    -0.058 A 
ATOM     22  C   UNL A   1      47.512 -16.213 -40.677  0.00  0.00    -0.060 A 
ATOM     23  C   UNL A   1      47.002 -17.464 -40.343  0.00  0.00    -0.040 A 
ATOM     24  C   UNL A   1      45.622 -17.708 -40.361  0.00  0.00    +0.035 A 
ATOM     25  C   UNL A   1      44.742 -16.679 -40.777  0.00  0.00    -0.026 A 
ATOM     26  C   UNL A   1      43.261 -16.956 -40.872  0.00  0.00    -0.038 C 
ENDBRANCH  17  24
ENDBRANCH  11  17
ENDBRANCH   7  16
ENDBRANCH   6   9
ENDBRANCH   5   6
ENDBRANCH   1   5
BRANCH   3  27
ATOM     27  C   UNL A   1      44.182 -15.369 -36.132  0.00  0.00    +0.012 C 
BRANCH  27  28
ATOM     28  C   UNL A   1      42.904 -15.882 -36.794  0.00  0.00    -0.036 C 
BRANCH  28  29
ATOM     29  C   UNL A   1      42.987 -17.356 -37.196  0.00  0.00    -0.036 C 
BRANCH  29  30
ATOM     30  C   UNL A   1      42.207 -18.239 -36.221  0.00  0.00    +0.009 C 
BRANCH  30  31
ATOM     31  N   UNL A   1      42.903 -19.524 -36.074  0.00  0.00    -0.343 N 
ATOM     32  H   UNL A   1      43.857 -19.615 -35.849  0.00  0.00    +0.000 HD
BRANCH  31  33
ATOM     33  C   UNL A   1      42.022 -20.624 -36.300  0.00  0.00    +0.041 A 
ATOM     34  C   UNL A   1      41.444 -21.259 -35.182  0.00  0.00    -0.005 A 
ATOM     35  C   UNL A   1      40.615 -22.356 -35.417  0.00  0.00    +0.047 A 
ATOM     36  N   UNL A   1      40.388 -22.862 -36.652  0.00  0.00    -0.251 NA
ATOM     37  C   UNL A   1      40.952 -22.269 -37.712  0.00  0.00    +0.073 A 
ATOM     38  C   UNL A   1      40.696 -22.806 -38.967  0.00  0.00    -0.036 A 
ATOM     39  C   UNL A   1      41.238 -22.260 -40.133  0.00  0.00    -0.060 A 
ATOM     40  C   UNL A   1      42.057 -21.146 -40.047  0.00  0.00    -0.061 A 
ATOM     41  C   UNL A   1      42.330 -20.588 -38.799  0.00  0.00    -0.051 A 
ATOM     42  C   UNL A   1      41.786 -21.137 -37.608  0.00  0.00    +0.021 A 
ATOM     43  C   UNL A   1      39.949 -23.099 -34.287  0.00  0.00    -0.010 C 
ATOM     44  C   UNL A   1      39.830 -22.273 -33.012  0.00  0.00    -0.047 C 
ATOM     45  C   UNL A   1      41.175 -21.645 -32.677  0.00  0.00    -0.049 C 
ATOM     46  C   UNL A   1      41.615 -20.695 -33.792  0.00  0.00    -0.024 C 
ENDBRANCH  31  33
ENDBRANCH  30  31
ENDBRANCH  29  30
ENDBRANCH  28  29
ENDBRANCH  27  28
ENDBRANCH   3  27
TORSDOF 12
ENDMDL
MODEL 3
REMARK VINA RESULT:    -7.676      1.399      3.366
REMARK INTER + INTRA:         -16.596
REMARK INTER:                 -13.059
REMARK INTRA:                  -3.537
REMARK UNBOUND:                -3.535
REMARK  Name = cpd32.pdb
REMARK  14 active torsions:
REMARK  status: ('A' for Active; 'I' for Inactive)
REMARK    1  A    between atoms: C_1  and  C_2
REMARK    2  A    between atoms: C_6  and  N_7
REMARK    3  A    between atoms: N_7  and  C_8
REMARK    4  A    between atoms: C_13  and  C_14
REMARK    5  A    between atoms: N_16  and  C_17
REMARK    6  A    between atoms: C_17  and  C_18
REMARK    7  A    between atoms: C_18  and  C_19
REMARK    8  A    between atoms: N_21  and  C_22
REMARK    9  A    between atoms: C_22  and  C_23
REMARK   10  A    between atoms: C_23  and  C_24
REMARK   11  A    between atoms: C_24  and  C_25
REMARK   12  A    between atoms: C_25  and  N_26
REMARK   13  A    between atoms: N_26  and  C_27
REMARK   14  A    between atoms: C_41  and  C_42
REMARK                            x       y       z     vdW  Elec       q    Type
REMARK                         _______ _______ _______ _____ _____    ______ ____
ROOT
ATOM      1  C   UNL A   1      44.328 -17.095 -34.500  0.00  0.00    +0.215 C 
ATOM      2  O   UNL A   1      43.757 -16.328 -35.267  0.00  0.00    -0.276 OA
ATOM      3  N   UNL A   1      45.644 -17.477 -34.634  0.00  0.00    -0.315 N 
ATOM      4  H   UNL A   1      46.021 -18.115 -33.986  0.00  0.00    +0.000 HD
ENDROOT
BRANCH   1   5
ATOM      5  C   UNL A   1      43.644 -17.660 -33.279  0.00  0.00    +0.039 C 
BRANCH   5   6
ATOM      6  C   UNL A   1      42.362 -18.354 -33.701  0.00  0.00    +0.020 C 
BRANCH   6   9
ATOM      7  C   UNL A   1      42.468 -20.340 -35.131  0.00  0.00    +0.246 C 
ATOM      8  O   UNL A   1      42.527 -21.100 -34.170  0.00  0.00    -0.270 OA
ATOM      9  N   UNL A   1      42.475 -18.961 -35.016  0.00  0.00    -0.311 N 
ATOM     10  H   UNL A   1      42.556 -18.396 -35.818  0.00  0.00    +0.000 HD
BRANCH   7  16
ATOM     11  C   UNL A   1      41.167 -21.651 -36.835  0.00  0.00    +0.044 A 
ATOM     12  C   UNL A   1      41.021 -22.069 -38.168  0.00  0.00    -0.040 A 
ATOM     13  C   UNL A   1      42.016 -21.822 -39.119  0.00  0.00    -0.060 A 
ATOM     14  C   UNL A   1      43.167 -21.126 -38.765  0.00  0.00    -0.061 A 
ATOM     15  C   UNL A   1      43.315 -20.651 -37.462  0.00  0.00    -0.048 A 
ATOM     16  C   UNL A   1      42.311 -20.886 -36.508  0.00  0.00    +0.058 A 
BRANCH  11  17
ATOM     17  N   UNL A   1      40.118 -21.839 -35.896  0.00  0.00    -0.314 N 
ATOM     18  H   UNL A   1      40.144 -22.684 -35.391  0.00  0.00    +0.000 HD
BRANCH  17  24
ATOM     19  C   UNL A   1      36.481 -20.436 -32.768  0.00  0.00    -0.039 C 
ATOM     20  C   UNL A   1      37.221 -20.333 -34.075  0.00  0.00    -0.046 A 
ATOM     21  C   UNL A   1      36.744 -19.445 -35.051  0.00  0.00    -0.058 A 
ATOM     22  C   UNL A   1      37.378 -19.338 -36.285  0.00  0.00    -0.060 A 
ATOM     23  C   UNL A   1      38.503 -20.111 -36.557  0.00  0.00    -0.040 A 
ATOM     24  C   UNL A   1      39.036 -20.973 -35.587  0.00  0.00    +0.035 A 
ATOM     25  C   UNL A   1      38.385 -21.094 -34.335  0.00  0.00    -0.026 A 
ATOM     26  C   UNL A   1      38.908 -22.076 -33.314  0.00  0.00    -0.038 C 
ENDBRANCH  17  24
ENDBRANCH  11  17
ENDBRANCH   7  16
ENDBRANCH   6   9
ENDBRANCH   5   6
ENDBRANCH   1   5
BRANCH   3  27
ATOM     27  C   UNL A   1      46.492 -16.977 -35.695  0.00  0.00    +0.012 C 
BRANCH  27  28
ATOM     28  C   UNL A   1      47.536 -17.997 -36.147  0.00  0.00    -0.036 C 
BRANCH  28  29
ATOM     29  C   UNL A   1      47.135 -19.442 -35.838  0.00  0.00    -0.036 C 
BRANCH  29  30
ATOM     30  C   UNL A   1      46.685 -20.172 -37.105  0.00  0.00    +0.009 C 
BRANCH  30  31
ATOM     31  N   UNL A   1      47.448 -19.659 -38.251  0.00  0.00    -0.343 N 
ATOM     32  H   UNL A   1      48.333 -19.234 -38.182  0.00  0.00    +0.000 HD
BRANCH  31  33
ATOM     33  C   UNL A   1      46.745 -19.855 -39.477  0.00  0.00    +0.041 A 
ATOM     34  C   UNL A   1      47.048 -20.996 -40.248  0.00  0.00    -0.005 A 
ATOM     35  C   UNL A   1      46.379 -21.154 -41.461  0.00  0.00    +0.047 A 
ATOM     36  N   UNL A   1      45.502 -20.246 -41.948  0.00  0.00    -0.251 NA
ATOM     37  C   UNL A   1      45.227 -19.153 -41.223  0.00  0.00    +0.073 A 
ATOM     38  C   UNL A   1      44.319 -18.241 -41.745  0.00  0.00    -0.036 A 
ATOM     39  C   UNL A   1      43.967 -17.072 -41.066  0.00  0.00    -0.060 A 
ATOM     40  C   UNL A   1      44.536 -16.804 -39.831  0.00  0.00    -0.061 A 
ATOM     41  C   UNL A   1      45.451 -17.704 -39.286  0.00  0.00    -0.051 A 
ATOM     42  C   UNL A   1      45.817 -18.893 -39.969  0.00  0.00    +0.021 A 
ATOM     43  C   UNL A   1      46.634 -22.342 -42.354  0.00  0.00    -0.010 C 
ATOM     44  C   UNL A   1      47.228 -23.534 -41.615  0.00  0.00    -0.047 C 
ATOM     45  C   UNL A   1      48.415 -23.081 -40.777  0.00  0.00    -0.049 C 
ATOM     46  C   UNL A   1      47.970 -22.069 -39.720  0.00  0.00    -0.024 C 
ENDBRANCH  31  33
ENDBRANCH  30  31
ENDBRANCH  29  30
ENDBRANCH  28  29
ENDBRANCH  27  28
ENDBRANCH   3  27
TORSDOF 12
ENDMDL
MODEL 4
REMARK VINA RESULT:    -7.639      2.869      7.394
REMARK INTER + INTRA:         -16.533
REMARK INTER:                 -11.288
REMARK INTRA:                  -5.245
REMARK UNBOUND:                -3.535
REMARK  Name = cpd32.pdb
REMARK  14 active torsions:
REMARK  status: ('A' for Active; 'I' for Inactive)
REMARK    1  A    between atoms: C_1  and  C_2
REMARK    2  A    between atoms: C_6  and  N_7
REMARK    3  A    between atoms: N_7  and  C_8
REMARK    4  A    between atoms: C_13  and  C_14
REMARK    5  A    between atoms: N_16  and  C_17
REMARK    6  A    between atoms: C_17  and  C_18
REMARK    7  A    between atoms: C_18  and  C_19
REMARK    8  A    between atoms: N_21  and  C_22
REMARK    9  A    between atoms: C_22  and  C_23
REMARK   10  A    between atoms: C_23  and  C_24
REMARK   11  A    between atoms: C_24  and  C_25
REMARK   12  A    between atoms: C_25  and  N_26
REMARK   13  A    between atoms: N_26  and  C_27
REMARK   14  A    between atoms: C_41  and  C_42
REMARK                            x       y       z     vdW  Elec       q    Type
REMARK                         _______ _______ _______ _____ _____    ______ ____
ROOT
ATOM      1  C   UNL A   1      44.971 -14.236 -40.737  0.00  0.00    +0.215 C 
ATOM      2  O   UNL A   1      44.781 -13.670 -41.808  0.00  0.00    -0.276 OA
ATOM      3  N   UNL A   1      43.971 -14.810 -39.984  0.00  0.00    -0.315 N 
ATOM      4  H   UNL A   1      44.205 -15.227 -39.124  0.00  0.00    +0.000 HD
ENDROOT
BRANCH   1   5
ATOM      5  C   UNL A   1      46.353 -14.408 -40.158  0.00  0.00    +0.039 C 
BRANCH   5   6
ATOM      6  C   UNL A   1      46.779 -15.857 -40.302  0.00  0.00    +0.020 C 
BRANCH   6   9
ATOM      7  C   UNL A   1      46.103 -17.388 -38.514  0.00  0.00    +0.246 C 
ATOM      8  O   UNL A   1      45.001 -17.581 -39.017  0.00  0.00    -0.270 OA
ATOM      9  N   UNL A   1      47.025 -16.487 -39.017  0.00  0.00    -0.311 N 
ATOM     10  H   UNL A   1      47.840 -16.273 -38.508  0.00  0.00    +0.000 HD
BRANCH   7  16
ATOM     11  C   UNL A   1      46.237 -19.574 -37.281  0.00  0.00    +0.044 A 
ATOM     12  C   UNL A   1      46.747 -20.309 -36.198  0.00  0.00    -0.040 A 
ATOM     13  C   UNL A   1      47.450 -19.684 -35.163  0.00  0.00    -0.060 A 
ATOM     14  C   UNL A   1      47.685 -18.313 -35.204  0.00  0.00    -0.061 A 
ATOM     15  C   UNL A   1      47.238 -17.567 -36.294  0.00  0.00    -0.048 A 
ATOM     16  C   UNL A   1      46.542 -18.194 -37.341  0.00  0.00    +0.058 A 
BRANCH  11  17
ATOM     17  N   UNL A   1      45.590 -20.229 -38.363  0.00  0.00    -0.314 N 
ATOM     18  H   UNL A   1      44.611 -20.130 -38.399  0.00  0.00    +0.000 HD
BRANCH  17  24
ATOM     19  C   UNL A   1      45.235 -22.301 -42.897  0.00  0.00    -0.039 C 
ATOM     20  C   UNL A   1      45.957 -22.068 -41.598  0.00  0.00    -0.046 A 
ATOM     21  C   UNL A   1      47.165 -22.743 -41.368  0.00  0.00    -0.058 A 
ATOM     22  C   UNL A   1      47.853 -22.583 -40.168  0.00  0.00    -0.060 A 
ATOM     23  C   UNL A   1      47.345 -21.737 -39.186  0.00  0.00    -0.040 A 
ATOM     24  C   UNL A   1      46.166 -21.010 -39.400  0.00  0.00    +0.035 A 
ATOM     25  C   UNL A   1      45.457 -21.181 -40.614  0.00  0.00    -0.026 A 
ATOM     26  C   UNL A   1      44.147 -20.460 -40.822  0.00  0.00    -0.038 C 
ENDBRANCH  17  24
ENDBRANCH  11  17
ENDBRANCH   7  16
ENDBRANCH   6   9
ENDBRANCH   5   6
ENDBRANCH   1   5
BRANCH   3  27
ATOM     27  C   UNL A   1      42.588 -14.822 -40.412  0.00  0.00    +0.012 C 
BRANCH  27  28
ATOM     28  C   UNL A   1      41.916 -16.178 -40.201  0.00  0.00    -0.036 C 
BRANCH  28  29
ATOM     29  C   UNL A   1      40.691 -16.104 -39.287  0.00  0.00    -0.036 C 
BRANCH  29  30
ATOM     30  C   UNL A   1      40.962 -16.788 -37.946  0.00  0.00    +0.009 C 
BRANCH  30  31
ATOM     31  N   UNL A   1      42.322 -17.343 -37.956  0.00  0.00    -0.343 N 
ATOM     32  H   UNL A   1      43.087 -16.926 -38.413  0.00  0.00    +0.000 HD
BRANCH  31  33
ATOM     33  C   UNL A   1      42.393 -18.564 -37.220  0.00  0.00    +0.041 A 
ATOM     34  C   UNL A   1      43.040 -18.554 -35.968  0.00  0.00    -0.005 A 
ATOM     35  C   UNL A   1      43.135 -19.762 -35.278  0.00  0.00    +0.047 A 
ATOM     36  N   UNL A   1      42.685 -20.937 -35.776  0.00  0.00    -0.251 NA
ATOM     37  C   UNL A   1      42.086 -20.949 -36.974  0.00  0.00    +0.073 A 
ATOM     38  C   UNL A   1      41.629 -22.169 -37.457  0.00  0.00    -0.036 A 
ATOM     39  C   UNL A   1      40.992 -22.285 -38.695  0.00  0.00    -0.060 A 
ATOM     40  C   UNL A   1      40.804 -21.155 -39.474  0.00  0.00    -0.061 A 
ATOM     41  C   UNL A   1      41.254 -19.919 -39.011  0.00  0.00    -0.051 A 
ATOM     42  C   UNL A   1      41.905 -19.790 -37.756  0.00  0.00    +0.021 A 
ATOM     43  C   UNL A   1      43.806 -19.852 -33.931  0.00  0.00    -0.010 C 
ATOM     44  C   UNL A   1      43.875 -18.515 -33.203  0.00  0.00    -0.047 C 
ATOM     45  C   UNL A   1      44.426 -17.448 -34.137  0.00  0.00    -0.049 C 
ATOM     46  C   UNL A   1      43.502 -17.259 -35.341  0.00  0.00    -0.024 C 
ENDBRANCH  31  33
ENDBRANCH  30  31
ENDBRANCH  29  30
ENDBRANCH  28  29
ENDBRANCH  27  28
ENDBRANCH   3  27
TORSDOF 12
ENDMDL
MODEL 5
REMARK VINA RESULT:    -7.558      2.209      7.867
REMARK INTER + INTRA:         -16.396
REMARK INTER:                 -11.431
REMARK INTRA:                  -4.965
REMARK UNBOUND:                -3.535
REMARK  Name = cpd32.pdb
REMARK  14 active torsions:
REMARK  status: ('A' for Active; 'I' for Inactive)
REMARK    1  A    between atoms: C_1  and  C_2
REMARK    2  A    between atoms: C_6  and  N_7
REMARK    3  A    between atoms: N_7  and  C_8
REMARK    4  A    between atoms: C_13  and  C_14
REMARK    5  A    between atoms: N_16  and  C_17
REMARK    6  A    between atoms: C_17  and  C_18
REMARK    7  A    between atoms: C_18  and  C_19
REMARK    8  A    between atoms: N_21  and  C_22
REMARK    9  A    between atoms: C_22  and  C_23
REMARK   10  A    between atoms: C_23  and  C_24
REMARK   11  A    between atoms: C_24  and  C_25
REMARK   12  A    between atoms: C_25  and  N_26
REMARK   13  A    between atoms: N_26  and  C_27
REMARK   14  A    between atoms: C_41  and  C_42
REMARK                            x       y       z     vdW  Elec       q    Type
REMARK                         _______ _______ _______ _____ _____    ______ ____
ROOT
ATOM      1  C   UNL A   1      39.952 -17.753 -38.670  0.00  0.00    +0.215 C 
ATOM      2  O   UNL A   1      40.561 -18.067 -37.653  0.00  0.00    -0.276 OA
ATOM      3  N   UNL A   1      39.245 -18.643 -39.447  0.00  0.00    -0.315 N 
ATOM      4  H   UNL A   1      38.800 -18.313 -40.261  0.00  0.00    +0.000 HD
ENDROOT
BRANCH   1   5
ATOM      5  C   UNL A   1      39.873 -16.323 -39.146  0.00  0.00    +0.039 C 
BRANCH   5   6
ATOM      6  C   UNL A   1      41.028 -16.047 -40.091  0.00  0.00    +0.020 C 
BRANCH   6   9
ATOM      7  C   UNL A   1      43.457 -16.295 -40.274  0.00  0.00    +0.246 C 
ATOM      8  O   UNL A   1      43.447 -16.075 -41.481  0.00  0.00    -0.270 OA
ATOM      9  N   UNL A   1      42.310 -16.395 -39.506  0.00  0.00    -0.311 N 
ATOM     10  H   UNL A   1      42.363 -16.700 -38.571  0.00  0.00    +0.000 HD
BRANCH   7  16
ATOM     11  C   UNL A   1      45.756 -17.277 -40.014  0.00  0.00    +0.044 A 
ATOM     12  C   UNL A   1      46.990 -17.276 -39.343  0.00  0.00    -0.040 A 
ATOM     13  C   UNL A   1      47.190 -16.507 -38.193  0.00  0.00    -0.060 A 
ATOM     14  C   UNL A   1      46.168 -15.699 -37.704  0.00  0.00    -0.061 A 
ATOM     15  C   UNL A   1      44.950 -15.639 -38.380  0.00  0.00    -0.048 A 
ATOM     16  C   UNL A   1      44.751 -16.400 -39.544  0.00  0.00    +0.058 A 
BRANCH  11  17
ATOM     17  N   UNL A   1      45.588 -18.003 -41.225  0.00  0.00    -0.314 N 
ATOM     18  H   UNL A   1      45.770 -17.501 -42.052  0.00  0.00    +0.000 HD
BRANCH  17  24
ATOM     19  C   UNL A   1      46.744 -22.698 -42.487  0.00  0.00    -0.039 C 
ATOM     20  C   UNL A   1      45.756 -21.638 -42.078  0.00  0.00    -0.046 A 
ATOM     21  C   UNL A   1      44.398 -21.980 -41.997  0.00  0.00    -0.058 A 
ATOM     22  C   UNL A   1      43.444 -21.026 -41.653  0.00  0.00    -0.060 A 
ATOM     23  C   UNL A   1      43.838 -19.719 -41.377  0.00  0.00    -0.040 A 
ATOM     24  C   UNL A   1      45.192 -19.355 -41.401  0.00  0.00    +0.035 A 
ATOM     25  C   UNL A   1      46.163 -20.320 -41.765  0.00  0.00    -0.026 A 
ATOM     26  C   UNL A   1      47.614 -19.916 -41.867  0.00  0.00    -0.038 C 
ENDBRANCH  17  24
ENDBRANCH  11  17
ENDBRANCH   7  16
ENDBRANCH   6   9
ENDBRANCH   5   6
ENDBRANCH   1   5
BRANCH   3  27
ATOM     27  C   UNL A   1      39.131 -20.046 -39.110  0.00  0.00    +0.012 C 
BRANCH  27  28
ATOM     28  C   UNL A   1      40.288 -20.880 -39.659  0.00  0.00    -0.036 C 
BRANCH  28  29
ATOM     29  C   UNL A   1      40.557 -22.145 -38.841  0.00  0.00    -0.036 C 
BRANCH  29  30
ATOM     30  C   UNL A   1      41.902 -22.059 -38.119  0.00  0.00    +0.009 C 
BRANCH  30  31
ATOM     31  N   UNL A   1      42.215 -20.648 -37.854  0.00  0.00    -0.343 N 
ATOM     32  H   UNL A   1      42.036 -19.913 -38.483  0.00  0.00    +0.000 HD
BRANCH  31  33
ATOM     33  C   UNL A   1      42.812 -20.477 -36.569  0.00  0.00    +0.041 A 
ATOM     34  C   UNL A   1      44.213 -20.353 -36.493  0.00  0.00    -0.005 A 
ATOM     35  C   UNL A   1      44.784 -20.224 -35.227  0.00  0.00    +0.047 A 
ATOM     36  N   UNL A   1      44.064 -20.264 -34.081  0.00  0.00    -0.251 NA
ATOM     37  C   UNL A   1      42.734 -20.400 -34.154  0.00  0.00    +0.073 A 
ATOM     38  C   UNL A   1      42.020 -20.432 -32.962  0.00  0.00    -0.036 A 
ATOM     39  C   UNL A   1      40.631 -20.571 -32.933  0.00  0.00    -0.060 A 
ATOM     40  C   UNL A   1      39.931 -20.680 -34.124  0.00  0.00    -0.061 A 
ATOM     41  C   UNL A   1      40.625 -20.650 -35.333  0.00  0.00    -0.051 A 
ATOM     42  C   UNL A   1      42.037 -20.512 -35.374  0.00  0.00    +0.021 A 
ATOM     43  C   UNL A   1      46.274 -20.083 -35.043  0.00  0.00    -0.010 C 
ATOM     44  C   UNL A   1      46.989 -19.581 -36.291  0.00  0.00    -0.047 C 
ATOM     45  C   UNL A   1      46.555 -20.399 -37.498  0.00  0.00    -0.049 C 
ATOM     46  C   UNL A   1      45.054 -20.238 -37.743  0.00  0.00    -0.024 C 
ENDBRANCH  31  33
ENDBRANCH  30  31
ENDBRANCH  29  30
ENDBRANCH  28  29
ENDBRANCH  27  28
ENDBRANCH   3  27
TORSDOF 12
ENDMDL
MODEL 6
REMARK VINA RESULT:    -7.532      2.203      5.831
REMARK INTER + INTRA:         -16.352
REMARK INTER:                 -11.882
REMARK INTRA:                  -4.470
REMARK UNBOUND:                -3.535
REMARK  Name = cpd32.pdb
REMARK  14 active torsions:
REMARK  status: ('A' for Active; 'I' for Inactive)
REMARK    1  A    between atoms: C_1  and  C_2
REMARK    2  A    between atoms: C_6  and  N_7
REMARK    3  A    between atoms: N_7  and  C_8
REMARK    4  A    between atoms: C_13  and  C_14
REMARK    5  A    between atoms: N_16  and  C_17
REMARK    6  A    between atoms: C_17  and  C_18
REMARK    7  A    between atoms: C_18  and  C_19
REMARK    8  A    between atoms: N_21  and  C_22
REMARK    9  A    between atoms: C_22  and  C_23
REMARK   10  A    between atoms: C_23  and  C_24
REMARK   11  A    between atoms: C_24  and  C_25
REMARK   12  A    between atoms: C_25  and  N_26
REMARK   13  A    between atoms: N_26  and  C_27
REMARK   14  A    between atoms: C_41  and  C_42
REMARK                            x       y       z     vdW  Elec       q    Type
REMARK                         _______ _______ _______ _____ _____    ______ ____
ROOT
ATOM      1  C   UNL A   1      42.092 -21.232 -40.215  0.00  0.00    +0.215 C 
ATOM      2  O   UNL A   1      41.707 -21.982 -41.105  0.00  0.00    -0.276 OA
ATOM      3  N   UNL A   1      43.383 -20.766 -40.109  0.00  0.00    -0.315 N 
ATOM      4  H   UNL A   1      43.617 -20.183 -39.350  0.00  0.00    +0.000 HD
ENDROOT
BRANCH   1   5
ATOM      5  C   UNL A   1      41.155 -20.695 -39.160  0.00  0.00    +0.039 C 
BRANCH   5   6
ATOM      6  C   UNL A   1      40.195 -21.792 -38.739  0.00  0.00    +0.020 C 
BRANCH   6   9
ATOM      7  C   UNL A   1      40.449 -22.196 -36.337  0.00  0.00    +0.246 C 
ATOM      8  O   UNL A   1      41.376 -22.981 -36.509  0.00  0.00    -0.270 OA
ATOM      9  N   UNL A   1      39.734 -21.621 -37.373  0.00  0.00    -0.311 N 
ATOM     10  H   UNL A   1      38.920 -21.100 -37.185  0.00  0.00    +0.000 HD
BRANCH   7  16
ATOM     11  C   UNL A   1      41.054 -21.138 -34.139  0.00  0.00    +0.044 A 
ATOM     12  C   UNL A   1      40.640 -20.664 -32.884  0.00  0.00    -0.040 A 
ATOM     13  C   UNL A   1      39.339 -20.882 -32.419  0.00  0.00    -0.060 A 
ATOM     14  C   UNL A   1      38.415 -21.553 -33.213  0.00  0.00    -0.061 A 
ATOM     15  C   UNL A   1      38.782 -21.987 -34.487  0.00  0.00    -0.048 A 
ATOM     16  C   UNL A   1      40.085 -21.759 -34.961  0.00  0.00    +0.058 A 
BRANCH  11  17
ATOM     17  N   UNL A   1      42.355 -20.846 -34.633  0.00  0.00    -0.314 N 
ATOM     18  H   UNL A   1      43.012 -21.575 -34.561  0.00  0.00    +0.000 HD
BRANCH  17  24
ATOM     19  C   UNL A   1      44.467 -16.348 -34.103  0.00  0.00    -0.039 C 
ATOM     20  C   UNL A   1      43.814 -17.417 -34.937  0.00  0.00    -0.046 A 
ATOM     21  C   UNL A   1      43.564 -17.156 -36.293  0.00  0.00    -0.058 A 
ATOM     22  C   UNL A   1      42.934 -18.103 -37.095  0.00  0.00    -0.060 A 
ATOM     23  C   UNL A   1      42.555 -19.329 -36.554  0.00  0.00    -0.040 A 
ATOM     24  C   UNL A   1      42.833 -19.642 -35.216  0.00  0.00    +0.035 A 
ATOM     25  C   UNL A   1      43.460 -18.675 -34.393  0.00  0.00    -0.026 A 
ATOM     26  C   UNL A   1      43.695 -18.976 -32.933  0.00  0.00    -0.038 C 
ENDBRANCH  17  24
ENDBRANCH  11  17
ENDBRANCH   7  16
ENDBRANCH   6   9
ENDBRANCH   5   6
ENDBRANCH   1   5
BRANCH   3  27
ATOM     27  C   UNL A   1      44.410 -21.102 -41.072  0.00  0.00    +0.012 C 
BRANCH  27  28
ATOM     28  C   UNL A   1      45.239 -19.890 -41.497  0.00  0.00    -0.036 C 
BRANCH  28  29
ATOM     29  C   UNL A   1      44.419 -18.601 -41.579  0.00  0.00    -0.036 C 
BRANCH  29  30
ATOM     30  C   UNL A   1      45.005 -17.517 -40.674  0.00  0.00    +0.009 C 
BRANCH  30  31
ATOM     31  N   UNL A   1      46.409 -17.838 -40.386  0.00  0.00    -0.343 N 
ATOM     32  H   UNL A   1      47.000 -18.337 -40.996  0.00  0.00    +0.000 HD
BRANCH  31  33
ATOM     33  C   UNL A   1      46.810 -17.337 -39.111  0.00  0.00    +0.041 A 
ATOM     34  C   UNL A   1      47.350 -16.037 -39.043  0.00  0.00    -0.005 A 
ATOM     35  C   UNL A   1      47.772 -15.576 -37.796  0.00  0.00    +0.047 A 
ATOM     36  N   UNL A   1      47.732 -16.331 -36.674  0.00  0.00    -0.251 NA
ATOM     37  C   UNL A   1      47.234 -17.573 -36.743  0.00  0.00    +0.073 A 
ATOM     38  C   UNL A   1      47.201 -18.323 -35.575  0.00  0.00    -0.036 A 
ATOM     39  C   UNL A   1      46.702 -19.627 -35.544  0.00  0.00    -0.060 A 
ATOM     40  C   UNL A   1      46.221 -20.201 -36.710  0.00  0.00    -0.061 A 
ATOM     41  C   UNL A   1      46.243 -19.468 -37.896  0.00  0.00    -0.051 A 
ATOM     42  C   UNL A   1      46.751 -18.143 -37.939  0.00  0.00    +0.021 A 
ATOM     43  C   UNL A   1      48.361 -14.199 -37.622  0.00  0.00    -0.010 C 
ATOM     44  C   UNL A   1      47.976 -13.234 -38.736  0.00  0.00    -0.047 C 
ATOM     45  C   UNL A   1      48.225 -13.884 -40.089  0.00  0.00    -0.049 C 
ATOM     46  C   UNL A   1      47.357 -15.132 -40.253  0.00  0.00    -0.024 C 
ENDBRANCH  31  33
ENDBRANCH  30  31
ENDBRANCH  29  30
ENDBRANCH  28  29
ENDBRANCH  27  28
ENDBRANCH   3  27
TORSDOF 12
ENDMDL
MODEL 7
REMARK VINA RESULT:    -7.446      2.317      8.089
REMARK INTER + INTRA:         -16.204
REMARK INTER:                 -11.548
REMARK INTRA:                  -4.657
REMARK UNBOUND:                -3.535
REMARK  Name = cpd32.pdb
REMARK  14 active torsions:
REMARK  status: ('A' for Active; 'I' for Inactive)
REMARK    1  A    between atoms: C_1  and  C_2
REMARK    2  A    between atoms: C_6  and  N_7
REMARK    3  A    between atoms: N_7  and  C_8
REMARK    4  A    between atoms: C_13  and  C_14
REMARK    5  A    between atoms: N_16  and  C_17
REMARK    6  A    between atoms: C_17  and  C_18
REMARK    7  A    between atoms: C_18  and  C_19
REMARK    8  A    between atoms: N_21  and  C_22
REMARK    9  A    between atoms: C_22  and  C_23
REMARK   10  A    between atoms: C_23  and  C_24
REMARK   11  A    between atoms: C_24  and  C_25
REMARK   12  A    between atoms: C_25  and  N_26
REMARK   13  A    between atoms: N_26  and  C_27
REMARK   14  A    between atoms: C_41  and  C_42
REMARK                            x       y       z     vdW  Elec       q    Type
REMARK                         _______ _______ _______ _____ _____    ______ ____
ROOT
ATOM      1  C   UNL A   1      42.349 -14.849 -39.979  0.00  0.00    +0.215 C 
ATOM      2  O   UNL A   1      41.752 -15.701 -40.628  0.00  0.00    -0.276 OA
ATOM      3  N   UNL A   1      41.961 -14.425 -38.728  0.00  0.00    -0.315 N 
ATOM      4  H   UNL A   1      42.484 -13.719 -38.283  0.00  0.00    +0.000 HD
ENDROOT
BRANCH   1   5
ATOM      5  C   UNL A   1      43.622 -14.211 -40.478  0.00  0.00    +0.039 C 
BRANCH   5   6
ATOM      6  C   UNL A   1      44.569 -15.295 -40.958  0.00  0.00    +0.020 C 
BRANCH   6   9
ATOM      7  C   UNL A   1      45.689 -16.842 -39.425  0.00  0.00    +0.246 C 
ATOM      8  O   UNL A   1      46.788 -16.333 -39.624  0.00  0.00    -0.270 OA
ATOM      9  N   UNL A   1      44.541 -16.466 -40.100  0.00  0.00    -0.311 N 
ATOM     10  H   UNL A   1      43.713 -16.989 -40.000  0.00  0.00    +0.000 HD
BRANCH   7  16
ATOM     11  C   UNL A   1      45.925 -19.206 -38.608  0.00  0.00    +0.044 A 
ATOM     12  C   UNL A   1      45.829 -20.122 -37.547  0.00  0.00    -0.040 A 
ATOM     13  C   UNL A   1      45.268 -19.755 -36.320  0.00  0.00    -0.060 A 
ATOM     14  C   UNL A   1      44.815 -18.455 -36.117  0.00  0.00    -0.061 A 
ATOM     15  C   UNL A   1      44.948 -17.510 -37.134  0.00  0.00    -0.048 A 
ATOM     16  C   UNL A   1      45.523 -17.872 -38.363  0.00  0.00    +0.058 A 
BRANCH  11  17
ATOM     17  N   UNL A   1      46.565 -19.568 -39.824  0.00  0.00    -0.314 N 
ATOM     18  H   UNL A   1      47.456 -19.176 -39.970  0.00  0.00    +0.000 HD
BRANCH  17  24
ATOM     19  C   UNL A   1      46.985 -23.803 -42.443  0.00  0.00    -0.039 C 
ATOM     20  C   UNL A   1      46.344 -22.469 -42.171  0.00  0.00    -0.046 A 
ATOM     21  C   UNL A   1      45.343 -22.013 -43.043  0.00  0.00    -0.058 A 
ATOM     22  C   UNL A   1      44.743 -20.771 -42.849  0.00  0.00    -0.060 A 
ATOM     23  C   UNL A   1      45.130 -19.974 -41.775  0.00  0.00    -0.040 A 
ATOM     24  C   UNL A   1      46.092 -20.419 -40.857  0.00  0.00    +0.035 A 
ATOM     25  C   UNL A   1      46.715 -21.676 -41.060  0.00  0.00    -0.026 A 
ATOM     26  C   UNL A   1      47.805 -22.129 -40.119  0.00  0.00    -0.038 C 
ENDBRANCH  17  24
ENDBRANCH  11  17
ENDBRANCH   7  16
ENDBRANCH   6   9
ENDBRANCH   5   6
ENDBRANCH   1   5
BRANCH   3  27
ATOM     27  C   UNL A   1      40.811 -14.977 -38.044  0.00  0.00    +0.012 C 
BRANCH  27  28
ATOM     28  C   UNL A   1      41.175 -16.143 -37.125  0.00  0.00    -0.036 C 
BRANCH  28  29
ATOM     29  C   UNL A   1      40.088 -16.456 -36.094  0.00  0.00    -0.036 C 
BRANCH  29  30
ATOM     30  C   UNL A   1      39.939 -17.964 -35.892  0.00  0.00    +0.009 C 
BRANCH  30  31
ATOM     31  N   UNL A   1      41.271 -18.562 -35.731  0.00  0.00    -0.343 N 
ATOM     32  H   UNL A   1      42.085 -18.052 -35.516  0.00  0.00    +0.000 HD
BRANCH  31  33
ATOM     33  C   UNL A   1      41.237 -19.975 -35.926  0.00  0.00    +0.041 A 
ATOM     34  C   UNL A   1      41.580 -20.484 -37.195  0.00  0.00    -0.005 A 
ATOM     35  C   UNL A   1      41.506 -21.865 -37.380  0.00  0.00    +0.047 A 
ATOM     36  N   UNL A   1      41.076 -22.719 -36.423  0.00  0.00    -0.251 NA
ATOM     37  C   UNL A   1      40.734 -22.233 -35.223  0.00  0.00    +0.073 A 
ATOM     38  C   UNL A   1      40.302 -23.134 -34.258  0.00  0.00    -0.036 A 
ATOM     39  C   UNL A   1      39.923 -22.725 -32.977  0.00  0.00    -0.060 A 
ATOM     40  C   UNL A   1      39.977 -21.380 -32.647  0.00  0.00    -0.061 A 
ATOM     41  C   UNL A   1      40.407 -20.456 -33.598  0.00  0.00    -0.051 A 
ATOM     42  C   UNL A   1      40.792 -20.860 -34.903  0.00  0.00    +0.021 A 
ATOM     43  C   UNL A   1      41.854 -22.504 -38.700  0.00  0.00    -0.010 C 
ATOM     44  C   UNL A   1      42.750 -21.633 -39.573  0.00  0.00    -0.047 C 
ATOM     45  C   UNL A   1      42.174 -20.227 -39.660  0.00  0.00    -0.049 C 
ATOM     46  C   UNL A   1      42.126 -19.580 -38.275  0.00  0.00    -0.024 C 
ENDBRANCH  31  33
ENDBRANCH  30  31
ENDBRANCH  29  30
ENDBRANCH  28  29
ENDBRANCH  27  28
ENDBRANCH   3  27
TORSDOF 12
ENDMDL
MODEL 8
REMARK VINA RESULT:    -7.441      2.744      6.127
REMARK INTER + INTRA:         -16.196
REMARK INTER:                 -10.607
REMARK INTRA:                  -5.589
REMARK UNBOUND:                -3.535
REMARK  Name = cpd32.pdb
REMARK  14 active torsions:
REMARK  status: ('A' for Active; 'I' for Inactive)
REMARK    1  A    between atoms: C_1  and  C_2
REMARK    2  A    between atoms: C_6  and  N_7
REMARK    3  A    between atoms: N_7  and  C_8
REMARK    4  A    between atoms: C_13  and  C_14
REMARK    5  A    between atoms: N_16  and  C_17
REMARK    6  A    between atoms: C_17  and  C_18
REMARK    7  A    between atoms: C_18  and  C_19
REMARK    8  A    between atoms: N_21  and  C_22
REMARK    9  A    between atoms: C_22  and  C_23
REMARK   10  A    between atoms: C_23  and  C_24
REMARK   11  A    between atoms: C_24  and  C_25
REMARK   12  A    between atoms: C_25  and  N_26
REMARK   13  A    between atoms: N_26  and  C_27
REMARK   14  A    between atoms: C_41  and  C_42
REMARK                            x       y       z     vdW  Elec       q    Type
REMARK                         _______ _______ _______ _____ _____    ______ ____
ROOT
ATOM      1  C   UNL A   1      46.186 -13.890 -40.269  0.00  0.00    +0.215 C 
ATOM      2  O   UNL A   1      46.984 -14.562 -40.913  0.00  0.00    -0.276 OA
ATOM      3  N   UNL A   1      44.860 -13.740 -40.606  0.00  0.00    -0.315 N 
ATOM      4  H   UNL A   1      44.290 -13.164 -40.046  0.00  0.00    +0.000 HD
ENDROOT
BRANCH   1   5
ATOM      5  C   UNL A   1      46.579 -13.192 -38.990  0.00  0.00    +0.039 C 
BRANCH   5   6
ATOM      6  C   UNL A   1      46.094 -14.009 -37.806  0.00  0.00    +0.020 C 
BRANCH   6   9
ATOM      7  C   UNL A   1      46.974 -16.264 -37.433  0.00  0.00    +0.246 C 
ATOM      8  O   UNL A   1      47.889 -15.852 -36.727  0.00  0.00    -0.270 OA
ATOM      9  N   UNL A   1      46.084 -15.433 -38.091  0.00  0.00    -0.311 N 
ATOM     10  H   UNL A   1      45.449 -15.803 -38.746  0.00  0.00    +0.000 HD
BRANCH   7  16
ATOM     11  C   UNL A   1      46.149 -18.442 -36.489  0.00  0.00    +0.044 A 
ATOM     12  C   UNL A   1      45.858 -19.801 -36.691  0.00  0.00    -0.040 A 
ATOM     13  C   UNL A   1      46.214 -20.451 -37.876  0.00  0.00    -0.060 A 
ATOM     14  C   UNL A   1      46.844 -19.749 -38.898  0.00  0.00    -0.061 A 
ATOM     15  C   UNL A   1      47.097 -18.386 -38.748  0.00  0.00    -0.048 A 
ATOM     16  C   UNL A   1      46.729 -17.727 -37.563  0.00  0.00    +0.058 A 
BRANCH  11  17
ATOM     17  N   UNL A   1      45.716 -17.773 -35.312  0.00  0.00    -0.314 N 
ATOM     18  H   UNL A   1      46.337 -17.101 -34.950  0.00  0.00    +0.000 HD
BRANCH  17  24
ATOM     19  C   UNL A   1      41.225 -16.045 -33.961  0.00  0.00    -0.039 C 
ATOM     20  C   UNL A   1      42.333 -17.061 -33.887  0.00  0.00    -0.046 A 
ATOM     21  C   UNL A   1      42.209 -18.129 -32.985  0.00  0.00    -0.058 A 
ATOM     22  C   UNL A   1      43.223 -19.075 -32.861  0.00  0.00    -0.060 A 
ATOM     23  C   UNL A   1      44.370 -18.971 -33.643  0.00  0.00    -0.040 A 
ATOM     24  C   UNL A   1      44.505 -17.944 -34.589  0.00  0.00    +0.035 A 
ATOM     25  C   UNL A   1      43.483 -16.972 -34.708  0.00  0.00    -0.026 A 
ATOM     26  C   UNL A   1      43.655 -15.821 -35.670  0.00  0.00    -0.038 C 
ENDBRANCH  17  24
ENDBRANCH  11  17
ENDBRANCH   7  16
ENDBRANCH   6   9
ENDBRANCH   5   6
ENDBRANCH   1   5
BRANCH   3  27
ATOM     27  C   UNL A   1      44.272 -14.399 -41.754  0.00  0.00    +0.012 C 
BRANCH  27  28
ATOM     28  C   UNL A   1      43.255 -15.470 -41.362  0.00  0.00    -0.036 C 
BRANCH  28  29
ATOM     29  C   UNL A   1      42.868 -15.417 -39.883  0.00  0.00    -0.036 C 
BRANCH  29  30
ATOM     30  C   UNL A   1      42.353 -16.774 -39.399  0.00  0.00    +0.009 C 
BRANCH  30  31
ATOM     31  N   UNL A   1      43.497 -17.621 -39.037  0.00  0.00    -0.343 N 
ATOM     32  H   UNL A   1      44.359 -17.277 -38.709  0.00  0.00    +0.000 HD
BRANCH  31  33
ATOM     33  C   UNL A   1      43.202 -19.005 -39.221  0.00  0.00    +0.041 A 
ATOM     34  C   UNL A   1      43.542 -19.605 -40.450  0.00  0.00    -0.005 A 
ATOM     35  C   UNL A   1      43.214 -20.948 -40.629  0.00  0.00    +0.047 A 
ATOM     36  N   UNL A   1      42.545 -21.676 -39.705  0.00  0.00    -0.251 NA
ATOM     37  C   UNL A   1      42.206 -21.101 -38.543  0.00  0.00    +0.073 A 
ATOM     38  C   UNL A   1      41.525 -21.874 -37.612  0.00  0.00    -0.036 A 
ATOM     39  C   UNL A   1      41.128 -21.366 -36.373  0.00  0.00    -0.060 A 
ATOM     40  C   UNL A   1      41.418 -20.049 -36.052  0.00  0.00    -0.061 A 
ATOM     41  C   UNL A   1      42.100 -19.252 -36.971  0.00  0.00    -0.051 A 
ATOM     42  C   UNL A   1      42.506 -19.758 -38.233  0.00  0.00    +0.021 A 
ATOM     43  C   UNL A   1      43.539 -21.678 -41.907  0.00  0.00    -0.010 C 
ATOM     44  C   UNL A   1      44.658 -21.022 -42.706  0.00  0.00    -0.047 C 
ATOM     45  C   UNL A   1      44.380 -19.533 -42.856  0.00  0.00    -0.049 C 
ATOM     46  C   UNL A   1      44.345 -18.854 -41.487  0.00  0.00    -0.024 C 
ENDBRANCH  31  33
ENDBRANCH  30  31
ENDBRANCH  29  30
ENDBRANCH  28  29
ENDBRANCH  27  28
ENDBRANCH   3  27
TORSDOF 12
ENDMDL
MODEL 9
REMARK VINA RESULT:    -7.428      2.256      7.091
REMARK INTER + INTRA:         -16.175
REMARK INTER:                 -11.602
REMARK INTRA:                  -4.572
REMARK UNBOUND:                -3.535
REMARK  Name = cpd32.pdb
REMARK  14 active torsions:
REMARK  status: ('A' for Active; 'I' for Inactive)
REMARK    1  A    between atoms: C_1  and  C_2
REMARK    2  A    between atoms: C_6  and  N_7
REMARK    3  A    between atoms: N_7  and  C_8
REMARK    4  A    between atoms: C_13  and  C_14
REMARK    5  A    between atoms: N_16  and  C_17
REMARK    6  A    between atoms: C_17  and  C_18
REMARK    7  A    between atoms: C_18  and  C_19
REMARK    8  A    between atoms: N_21  and  C_22
REMARK    9  A    between atoms: C_22  and  C_23
REMARK   10  A    between atoms: C_23  and  C_24
REMARK   11  A    between atoms: C_24  and  C_25
REMARK   12  A    between atoms: C_25  and  N_26
REMARK   13  A    between atoms: N_26  and  C_27
REMARK   14  A    between atoms: C_41  and  C_42
REMARK                            x       y       z     vdW  Elec       q    Type
REMARK                         _______ _______ _______ _____ _____    ______ ____
ROOT
ATOM      1  C   UNL A   1      46.271 -17.570 -35.309  0.00  0.00    +0.215 C 
ATOM      2  O   UNL A   1      45.697 -16.532 -35.621  0.00  0.00    -0.276 OA
ATOM      3  N   UNL A   1      46.027 -18.262 -34.145  0.00  0.00    -0.315 N 
ATOM      4  H   UNL A   1      46.547 -19.077 -33.959  0.00  0.00    +0.000 HD
ENDROOT
BRANCH   1   5
ATOM      5  C   UNL A   1      47.282 -18.228 -36.216  0.00  0.00    +0.039 C 
BRANCH   5   6
ATOM      6  C   UNL A   1      47.011 -17.813 -37.651  0.00  0.00    +0.020 C 
BRANCH   6   9
ATOM      7  C   UNL A   1      45.001 -18.534 -38.849  0.00  0.00    +0.246 C 
ATOM      8  O   UNL A   1      44.387 -17.515 -38.548  0.00  0.00    -0.270 OA
ATOM      9  N   UNL A   1      46.271 -18.825 -38.383  0.00  0.00    -0.311 N 
ATOM     10  H   UNL A   1      46.670 -19.710 -38.548  0.00  0.00    +0.000 HD
BRANCH   7  16
ATOM     11  C   UNL A   1      43.511 -20.491 -39.362  0.00  0.00    +0.044 A 
ATOM     12  C   UNL A   1      42.917 -21.325 -40.324  0.00  0.00    -0.040 A 
ATOM     13  C   UNL A   1      43.277 -21.247 -41.672  0.00  0.00    -0.060 A 
ATOM     14  C   UNL A   1      44.218 -20.313 -42.094  0.00  0.00    -0.061 A 
ATOM     15  C   UNL A   1      44.783 -19.435 -41.170  0.00  0.00    -0.048 A 
ATOM     16  C   UNL A   1      44.414 -19.503 -39.816  0.00  0.00    +0.058 A 
BRANCH  11  17
ATOM     17  N   UNL A   1      43.083 -20.526 -38.007  0.00  0.00    -0.314 N 
ATOM     18  H   UNL A   1      43.743 -20.223 -37.343  0.00  0.00    +0.000 HD
BRANCH  17  24
ATOM     19  C   UNL A   1      38.518 -19.368 -36.334  0.00  0.00    -0.039 C 
ATOM     20  C   UNL A   1      39.619 -20.356 -36.610  0.00  0.00    -0.046 A 
ATOM     21  C   UNL A   1      39.439 -21.692 -36.219  0.00  0.00    -0.058 A 
ATOM     22  C   UNL A   1      40.442 -22.635 -36.426  0.00  0.00    -0.060 A 
ATOM     23  C   UNL A   1      41.635 -22.256 -37.035  0.00  0.00    -0.040 A 
ATOM     24  C   UNL A   1      41.830 -20.942 -37.482  0.00  0.00    +0.035 A 
ATOM     25  C   UNL A   1      40.817 -19.977 -37.260  0.00  0.00    -0.026 A 
ATOM     26  C   UNL A   1      41.050 -18.543 -37.670  0.00  0.00    -0.038 C 
ENDBRANCH  17  24
ENDBRANCH  11  17
ENDBRANCH   7  16
ENDBRANCH   6   9
ENDBRANCH   5   6
ENDBRANCH   1   5
BRANCH   3  27
ATOM     27  C   UNL A   1      45.032 -17.836 -33.183  0.00  0.00    +0.012 C 
BRANCH  27  28
ATOM     28  C   UNL A   1      43.848 -18.797 -33.093  0.00  0.00    -0.036 C 
BRANCH  28  29
ATOM     29  C   UNL A   1      42.910 -18.707 -34.299  0.00  0.00    -0.036 C 
BRANCH  29  30
ATOM     30  C   UNL A   1      41.579 -18.060 -33.916  0.00  0.00    +0.009 C 
BRANCH  30  31
ATOM     31  N   UNL A   1      41.162 -18.561 -32.599  0.00  0.00    -0.343 N 
ATOM     32  H   UNL A   1      41.632 -18.364 -31.757  0.00  0.00    +0.000 HD
BRANCH  31  33
ATOM     33  C   UNL A   1      39.992 -19.372 -32.695  0.00  0.00    +0.041 A 
ATOM     34  C   UNL A   1      38.734 -18.738 -32.666  0.00  0.00    -0.005 A 
ATOM     35  C   UNL A   1      37.599 -19.546 -32.722  0.00  0.00    +0.047 A 
ATOM     36  N   UNL A   1      37.653 -20.898 -32.752  0.00  0.00    -0.251 NA
ATOM     37  C   UNL A   1      38.849 -21.502 -32.762  0.00  0.00    +0.073 A 
ATOM     38  C   UNL A   1      38.874 -22.890 -32.799  0.00  0.00    -0.036 A 
ATOM     39  C   UNL A   1      40.070 -23.611 -32.812  0.00  0.00    -0.060 A 
ATOM     40  C   UNL A   1      41.277 -22.930 -32.789  0.00  0.00    -0.061 A 
ATOM     41  C   UNL A   1      41.278 -21.536 -32.752  0.00  0.00    -0.051 A 
ATOM     42  C   UNL A   1      40.069 -20.794 -32.736  0.00  0.00    +0.021 A 
ATOM     43  C   UNL A   1      36.210 -18.961 -32.699  0.00  0.00    -0.010 C 
ATOM     44  C   UNL A   1      36.166 -17.500 -33.130  0.00  0.00    -0.047 C 
ATOM     45  C   UNL A   1      37.221 -16.707 -32.373  0.00  0.00    -0.049 C 
ATOM     46  C   UNL A   1      38.621 -17.232 -32.697  0.00  0.00    -0.024 C 
ENDBRANCH  31  33
ENDBRANCH  30  31
ENDBRANCH  29  30
ENDBRANCH  28  29
ENDBRANCH  27  28
ENDBRANCH   3  27
TORSDOF 12
ENDMDL
MODEL 10
REMARK VINA RESULT:    -7.265      2.106      6.537
REMARK INTER + INTRA:         -15.897
REMARK INTER:                 -10.507
REMARK INTRA:                  -5.391
REMARK UNBOUND:                -3.535
REMARK  Name = cpd32.pdb
REMARK  14 active torsions:
REMARK  status: ('A' for Active; 'I' for Inactive)
REMARK    1  A    between atoms: C_1  and  C_2
REMARK    2  A    between atoms: C_6  and  N_7
REMARK    3  A    between atoms: N_7  and  C_8
REMARK    4  A    between atoms: C_13  and  C_14
REMARK    5  A    between atoms: N_16  and  C_17
REMARK    6  A    between atoms: C_17  and  C_18
REMARK    7  A    between atoms: C_18  and  C_19
REMARK    8  A    between atoms: N_21  and  C_22
REMARK    9  A    between atoms: C_22  and  C_23
REMARK   10  A    between atoms: C_23  and  C_24
REMARK   11  A    between atoms: C_24  and  C_25
REMARK   12  A    between atoms: C_25  and  N_26
REMARK   13  A    between atoms: N_26  and  C_27
REMARK   14  A    between atoms: C_41  and  C_42
REMARK                            x       y       z     vdW  Elec       q    Type
REMARK                         _______ _______ _______ _____ _____    ______ ____
ROOT
ATOM      1  C   UNL A   1      40.786 -20.427 -34.463  0.00  0.00    +0.215 C 
ATOM      2  O   UNL A   1      40.430 -19.389 -35.010  0.00  0.00    -0.276 OA
ATOM      3  N   UNL A   1      40.724 -21.668 -35.057  0.00  0.00    -0.315 N 
ATOM      4  H   UNL A   1      41.010 -22.456 -34.540  0.00  0.00    +0.000 HD
ENDROOT
BRANCH   1   5
ATOM      5  C   UNL A   1      41.388 -20.437 -33.079  0.00  0.00    +0.039 C 
BRANCH   5   6
ATOM      6  C   UNL A   1      42.367 -19.284 -32.953  0.00  0.00    +0.020 C 
BRANCH   6   9
ATOM      7  C   UNL A   1      44.543 -18.803 -33.969  0.00  0.00    +0.246 C 
ATOM      8  O   UNL A   1      45.026 -18.439 -32.901  0.00  0.00    -0.270 OA
ATOM      9  N   UNL A   1      43.214 -19.154 -34.126  0.00  0.00    -0.311 N 
ATOM     10  H   UNL A   1      42.845 -19.314 -35.025  0.00  0.00    +0.000 HD
BRANCH   7  16
ATOM     11  C   UNL A   1      45.912 -17.805 -35.825  0.00  0.00    +0.044 A 
ATOM     12  C   UNL A   1      46.797 -18.000 -36.899  0.00  0.00    -0.040 A 
ATOM     13  C   UNL A   1      47.100 -19.282 -37.367  0.00  0.00    -0.060 A 
ATOM     14  C   UNL A   1      46.546 -20.401 -36.752  0.00  0.00    -0.061 A 
ATOM     15  C   UNL A   1      45.707 -20.241 -35.650  0.00  0.00    -0.048 A 
ATOM     16  C   UNL A   1      45.411 -18.954 -35.170  0.00  0.00    +0.058 A 
BRANCH  11  17
ATOM     17  N   UNL A   1      45.672 -16.503 -35.309  0.00  0.00    -0.314 N 
ATOM     18  H   UNL A   1      46.230 -16.237 -34.543  0.00  0.00    +0.000 HD
BRANCH  17  24
ATOM     19  C   UNL A   1      44.714 -12.189 -37.643  0.00  0.00    -0.039 C 
ATOM     20  C   UNL A   1      44.283 -13.390 -36.845  0.00  0.00    -0.046 A 
ATOM     21  C   UNL A   1      42.946 -13.477 -36.427  0.00  0.00    -0.058 A 
ATOM     22  C   UNL A   1      42.510 -14.554 -35.661  0.00  0.00    -0.060 A 
ATOM     23  C   UNL A   1      43.403 -15.563 -35.310  0.00  0.00    -0.040 A 
ATOM     24  C   UNL A   1      44.733 -15.533 -35.751  0.00  0.00    +0.035 A 
ATOM     25  C   UNL A   1      45.184 -14.431 -36.519  0.00  0.00    -0.026 A 
ATOM     26  C   UNL A   1      46.633 -14.354 -36.934  0.00  0.00    -0.038 C 
ENDBRANCH  17  24
ENDBRANCH  11  17
ENDBRANCH   7  16
ENDBRANCH   6   9
ENDBRANCH   5   6
ENDBRANCH   1   5
BRANCH   3  27
ATOM     27  C   UNL A   1      40.253 -21.856 -36.413  0.00  0.00    +0.012 C 
BRANCH  27  28
ATOM     28  C   UNL A   1      41.393 -21.967 -37.424  0.00  0.00    -0.036 C 
BRANCH  28  29
ATOM     29  C   UNL A   1      40.929 -21.803 -38.873  0.00  0.00    -0.036 C 
BRANCH  29  30
ATOM     30  C   UNL A   1      41.938 -20.993 -39.687  0.00  0.00    +0.009 C 
BRANCH  30  31
ATOM     31  N   UNL A   1      43.099 -20.684 -38.842  0.00  0.00    -0.343 N 
ATOM     32  H   UNL A   1      43.217 -21.010 -37.920  0.00  0.00    +0.000 HD
BRANCH  31  33
ATOM     33  C   UNL A   1      44.036 -19.850 -39.524  0.00  0.00    +0.041 A 
ATOM     34  C   UNL A   1      45.149 -20.458 -40.137  0.00  0.00    -0.005 A 
ATOM     35  C   UNL A   1      46.075 -19.627 -40.768  0.00  0.00    +0.047 A 
ATOM     36  N   UNL A   1      45.978 -18.277 -40.771  0.00  0.00    -0.251 NA
ATOM     37  C   UNL A   1      44.928 -17.699 -40.173  0.00  0.00    +0.073 A 
ATOM     38  C   UNL A   1      44.851 -16.313 -40.196  0.00  0.00    -0.036 A 
ATOM     39  C   UNL A   1      43.797 -15.617 -39.601  0.00  0.00    -0.060 A 
ATOM     40  C   UNL A   1      42.789 -16.322 -38.963  0.00  0.00    -0.061 A 
ATOM     41  C   UNL A   1      42.843 -17.715 -38.925  0.00  0.00    -0.051 A 
ATOM     42  C   UNL A   1      43.911 -18.432 -39.525  0.00  0.00    +0.021 A 
ATOM     43  C   UNL A   1      47.297 -20.183 -41.453  0.00  0.00    -0.010 C 
ATOM     44  C   UNL A   1      47.154 -21.650 -41.841  0.00  0.00    -0.047 C 
ATOM     45  C   UNL A   1      46.653 -22.451 -40.649  0.00  0.00    -0.049 C 
ATOM     46  C   UNL A   1      45.270 -21.962 -40.217  0.00  0.00    -0.024 C 
ENDBRANCH  31  33
ENDBRANCH  30  31
ENDBRANCH  29  30
ENDBRANCH  28  29
ENDBRANCH  27  28
ENDBRANCH   3  27
TORSDOF 12
ENDMDL
MODEL 11
REMARK VINA RESULT:    -7.233      2.297      7.547
REMARK INTER + INTRA:         -15.842
REMARK INTER:                 -11.261
REMARK INTRA:                  -4.581
REMARK UNBOUND:                -3.535
REMARK  Name = cpd32.pdb
REMARK  14 active torsions:
REMARK  status: ('A' for Active; 'I' for Inactive)
REMARK    1  A    between atoms: C_1  and  C_2
REMARK    2  A    between atoms: C_6  and  N_7
REMARK    3  A    between atoms: N_7  and  C_8
REMARK    4  A    between atoms: C_13  and  C_14
REMARK    5  A    between atoms: N_16  and  C_17
REMARK    6  A    between atoms: C_17  and  C_18
REMARK    7  A    between atoms: C_18  and  C_19
REMARK    8  A    between atoms: N_21  and  C_22
REMARK    9  A    between atoms: C_22  and  C_23
REMARK   10  A    between atoms: C_23  and  C_24
REMARK   11  A    between atoms: C_24  and  C_25
REMARK   12  A    between atoms: C_25  and  N_26
REMARK   13  A    between atoms: N_26  and  C_27
REMARK   14  A    between atoms: C_41  and  C_42
REMARK                            x       y       z     vdW  Elec       q    Type
REMARK                         _______ _______ _______ _____ _____    ______ ____
ROOT
ATOM      1  C   UNL A   1      40.564 -17.954 -37.690  0.00  0.00    +0.215 C 
ATOM      2  O   UNL A   1      39.469 -18.505 -37.663  0.00  0.00    -0.276 OA
ATOM      3  N   UNL A   1      41.167 -17.389 -36.588  0.00  0.00    -0.315 N 
ATOM      4  H   UNL A   1      42.039 -16.946 -36.699  0.00  0.00    +0.000 HD
ENDROOT
BRANCH   1   5
ATOM      5  C   UNL A   1      41.396 -17.889 -38.947  0.00  0.00    +0.039 C 
BRANCH   5   6
ATOM      6  C   UNL A   1      41.528 -16.443 -39.385  0.00  0.00    +0.020 C 
BRANCH   6   9
ATOM      7  C   UNL A   1      43.955 -16.216 -39.150  0.00  0.00    +0.246 C 
ATOM      8  O   UNL A   1      43.907 -16.340 -37.931  0.00  0.00    -0.270 OA
ATOM      9  N   UNL A   1      42.833 -16.161 -39.958  0.00  0.00    -0.311 N 
ATOM     10  H   UNL A   1      42.917 -15.932 -40.911  0.00  0.00    +0.000 HD
BRANCH   7  16
ATOM     11  C   UNL A   1      45.916 -17.402 -40.182  0.00  0.00    +0.044 A 
ATOM     12  C   UNL A   1      47.111 -17.326 -40.917  0.00  0.00    -0.040 A 
ATOM     13  C   UNL A   1      47.696 -16.094 -41.225  0.00  0.00    -0.060 A 
ATOM     14  C   UNL A   1      47.083 -14.909 -40.831  0.00  0.00    -0.061 A 
ATOM     15  C   UNL A   1      45.867 -14.953 -40.148  0.00  0.00    -0.048 A 
ATOM     16  C   UNL A   1      45.271 -16.189 -39.848  0.00  0.00    +0.058 A 
BRANCH  11  17
ATOM     17  N   UNL A   1      45.291 -18.656 -39.940  0.00  0.00    -0.314 N 
ATOM     18  H   UNL A   1      44.850 -18.751 -39.065  0.00  0.00    +0.000 HD
BRANCH  17  24
ATOM     19  C   UNL A   1      46.987 -23.170 -41.252  0.00  0.00    -0.039 C 
ATOM     20  C   UNL A   1      46.096 -21.975 -41.460  0.00  0.00    -0.046 A 
ATOM     21  C   UNL A   1      45.272 -21.939 -42.596  0.00  0.00    -0.058 A 
ATOM     22  C   UNL A   1      44.454 -20.841 -42.846  0.00  0.00    -0.060 A 
ATOM     23  C   UNL A   1      44.444 -19.767 -41.959  0.00  0.00    -0.040 A 
ATOM     24  C   UNL A   1      45.218 -19.791 -40.791  0.00  0.00    +0.035 A 
ATOM     25  C   UNL A   1      46.062 -20.900 -40.540  0.00  0.00    -0.026 A 
ATOM     26  C   UNL A   1      46.955 -20.899 -39.323  0.00  0.00    -0.038 C 
ENDBRANCH  17  24
ENDBRANCH  11  17
ENDBRANCH   7  16
ENDBRANCH   6   9
ENDBRANCH   5   6
ENDBRANCH   1   5
BRANCH   3  27
ATOM     27  C   UNL A   1      40.564 -17.423 -35.272  0.00  0.00    +0.012 C 
BRANCH  27  28
ATOM     28  C   UNL A   1      41.435 -16.759 -34.207  0.00  0.00    -0.036 C 
BRANCH  28  29
ATOM     29  C   UNL A   1      41.751 -17.683 -33.029  0.00  0.00    -0.036 C 
BRANCH  29  30
ATOM     30  C   UNL A   1      41.435 -19.140 -33.372  0.00  0.00    +0.009 C 
BRANCH  30  31
ATOM     31  N   UNL A   1      42.687 -19.907 -33.411  0.00  0.00    -0.343 N 
ATOM     32  H   UNL A   1      43.044 -20.425 -32.653  0.00  0.00    +0.000 HD
BRANCH  31  33
ATOM     33  C   UNL A   1      43.322 -19.807 -34.685  0.00  0.00    +0.041 A 
ATOM     34  C   UNL A   1      42.797 -20.559 -35.755  0.00  0.00    -0.005 A 
ATOM     35  C   UNL A   1      43.451 -20.480 -36.985  0.00  0.00    +0.047 A 
ATOM     36  N   UNL A   1      44.582 -19.763 -37.177  0.00  0.00    -0.251 NA
ATOM     37  C   UNL A   1      45.091 -19.062 -36.155  0.00  0.00    +0.073 A 
ATOM     38  C   UNL A   1      46.249 -18.331 -36.384  0.00  0.00    -0.036 A 
ATOM     39  C   UNL A   1      46.856 -17.570 -35.383  0.00  0.00    -0.060 A 
ATOM     40  C   UNL A   1      46.293 -17.534 -34.117  0.00  0.00    -0.061 A 
ATOM     41  C   UNL A   1      45.130 -18.260 -33.862  0.00  0.00    -0.051 A 
ATOM     42  C   UNL A   1      44.507 -19.039 -34.872  0.00  0.00    +0.021 A 
ATOM     43  C   UNL A   1      42.964 -21.245 -38.189  0.00  0.00    -0.010 C 
ATOM     44  C   UNL A   1      41.496 -21.644 -38.095  0.00  0.00    -0.047 C 
ATOM     45  C   UNL A   1      41.226 -22.302 -36.750  0.00  0.00    -0.049 C 
ATOM     46  C   UNL A   1      41.502 -21.323 -35.608  0.00  0.00    -0.024 C 
ENDBRANCH  31  33
ENDBRANCH  30  31
ENDBRANCH  29  30
ENDBRANCH  28  29
ENDBRANCH  27  28
ENDBRANCH   3  27
TORSDOF 12
ENDMDL
MODEL 12
REMARK VINA RESULT:    -7.187      2.106      6.872
REMARK INTER + INTRA:         -15.765
REMARK INTER:                 -10.429
REMARK INTRA:                  -5.336
REMARK UNBOUND:                -3.535
REMARK  Name = cpd32.pdb
REMARK  14 active torsions:
REMARK  status: ('A' for Active; 'I' for Inactive)
REMARK    1  A    between atoms: C_1  and  C_2
REMARK    2  A    between atoms: C_6  and  N_7
REMARK    3  A    between atoms: N_7  and  C_8
REMARK    4  A    between atoms: C_13  and  C_14
REMARK    5  A    between atoms: N_16  and  C_17
REMARK    6  A    between atoms: C_17  and  C_18
REMARK    7  A    between atoms: C_18  and  C_19
REMARK    8  A    between atoms: N_21  and  C_22
REMARK    9  A    between atoms: C_22  and  C_23
REMARK   10  A    between atoms: C_23  and  C_24
REMARK   11  A    between atoms: C_24  and  C_25
REMARK   12  A    between atoms: C_25  and  N_26
REMARK   13  A    between atoms: N_26  and  C_27
REMARK   14  A    between atoms: C_41  and  C_42
REMARK                            x       y       z     vdW  Elec       q    Type
REMARK                         _______ _______ _______ _____ _____    ______ ____
ROOT
ATOM      1  C   UNL A   1      43.712 -14.287 -38.912  0.00  0.00    +0.215 C 
ATOM      2  O   UNL A   1      43.016 -13.286 -39.040  0.00  0.00    -0.276 OA
ATOM      3  N   UNL A   1      43.530 -15.228 -37.923  0.00  0.00    -0.315 N 
ATOM      4  H   UNL A   1      44.147 -15.993 -37.877  0.00  0.00    +0.000 HD
ENDROOT
BRANCH   1   5
ATOM      5  C   UNL A   1      44.823 -14.617 -39.878  0.00  0.00    +0.039 C 
BRANCH   5   6
ATOM      6  C   UNL A   1      44.270 -15.476 -41.001  0.00  0.00    +0.020 C 
BRANCH   6   9
ATOM      7  C   UNL A   1      44.217 -17.832 -40.336  0.00  0.00    +0.246 C 
ATOM      8  O   UNL A   1      43.259 -17.659 -39.589  0.00  0.00    -0.270 OA
ATOM      9  N   UNL A   1      44.853 -16.805 -41.012  0.00  0.00    -0.311 N 
ATOM     10  H   UNL A   1      45.694 -16.975 -41.495  0.00  0.00    +0.000 HD
BRANCH   7  16
ATOM     11  C   UNL A   1      45.610 -19.828 -39.712  0.00  0.00    +0.044 A 
ATOM     12  C   UNL A   1      45.979 -21.159 -39.970  0.00  0.00    -0.040 A 
ATOM     13  C   UNL A   1      45.551 -21.820 -41.124  0.00  0.00    -0.060 A 
ATOM     14  C   UNL A   1      44.720 -21.175 -42.034  0.00  0.00    -0.061 A 
ATOM     15  C   UNL A   1      44.293 -19.872 -41.778  0.00  0.00    -0.048 A 
ATOM     16  C   UNL A   1      44.711 -19.209 -40.612  0.00  0.00    +0.058 A 
BRANCH  11  17
ATOM     17  N   UNL A   1      45.989 -19.191 -38.500  0.00  0.00    -0.314 N 
ATOM     18  H   UNL A   1      46.789 -18.620 -38.549  0.00  0.00    +0.000 HD
BRANCH  17  24
ATOM     19  C   UNL A   1      45.577 -17.534 -33.803  0.00  0.00    -0.039 C 
ATOM     20  C   UNL A   1      45.216 -18.486 -34.910  0.00  0.00    -0.046 A 
ATOM     21  C   UNL A   1      44.339 -19.546 -34.628  0.00  0.00    -0.058 A 
ATOM     22  C   UNL A   1      44.001 -20.469 -35.613  0.00  0.00    -0.060 A 
ATOM     23  C   UNL A   1      44.527 -20.341 -36.896  0.00  0.00    -0.040 A 
ATOM     24  C   UNL A   1      45.367 -19.267 -37.225  0.00  0.00    +0.035 A 
ATOM     25  C   UNL A   1      45.725 -18.334 -36.222  0.00  0.00    -0.026 A 
ATOM     26  C   UNL A   1      46.688 -17.219 -36.549  0.00  0.00    -0.038 C 
ENDBRANCH  17  24
ENDBRANCH  11  17
ENDBRANCH   7  16
ENDBRANCH   6   9
ENDBRANCH   5   6
ENDBRANCH   1   5
BRANCH   3  27
ATOM     27  C   UNL A   1      42.464 -15.132 -36.948  0.00  0.00    +0.012 C 
BRANCH  27  28
ATOM     28  C   UNL A   1      42.764 -15.908 -35.667  0.00  0.00    -0.036 C 
BRANCH  28  29
ATOM     29  C   UNL A   1      41.724 -16.989 -35.363  0.00  0.00    -0.036 C 
BRANCH  29  30
ATOM     30  C   UNL A   1      41.525 -17.916 -36.563  0.00  0.00    +0.009 C 
BRANCH  30  31
ATOM     31  N   UNL A   1      40.264 -18.650 -36.399  0.00  0.00    -0.343 N 
ATOM     32  H   UNL A   1      39.383 -18.223 -36.293  0.00  0.00    +0.000 HD
BRANCH  31  33
ATOM     33  C   UNL A   1      40.475 -20.062 -36.412  0.00  0.00    +0.041 A 
ATOM     34  C   UNL A   1      40.393 -20.762 -35.192  0.00  0.00    -0.005 A 
ATOM     35  C   UNL A   1      40.639 -22.135 -35.216  0.00  0.00    +0.047 A 
ATOM     36  N   UNL A   1      40.998 -22.804 -36.336  0.00  0.00    -0.251 NA
ATOM     37  C   UNL A   1      41.092 -22.135 -37.492  0.00  0.00    +0.073 A 
ATOM     38  C   UNL A   1      41.457 -22.849 -38.627  0.00  0.00    -0.036 A 
ATOM     39  C   UNL A   1      41.582 -22.241 -39.878  0.00  0.00    -0.060 A 
ATOM     40  C   UNL A   1      41.337 -20.883 -40.004  0.00  0.00    -0.061 A 
ATOM     41  C   UNL A   1      40.970 -20.144 -38.880  0.00  0.00    -0.051 A 
ATOM     42  C   UNL A   1      40.842 -20.751 -37.603  0.00  0.00    +0.021 A 
ATOM     43  C   UNL A   1      40.573 -22.971 -33.963  0.00  0.00    -0.010 C 
ATOM     44  C   UNL A   1      39.742 -22.332 -32.857  0.00  0.00    -0.047 C 
ATOM     45  C   UNL A   1      40.175 -20.887 -32.656  0.00  0.00    -0.049 C 
ATOM     46  C   UNL A   1      39.935 -20.074 -33.928  0.00  0.00    -0.024 C 
ENDBRANCH  31  33
ENDBRANCH  30  31
ENDBRANCH  29  30
ENDBRANCH  28  29
ENDBRANCH  27  28
ENDBRANCH   3  27
TORSDOF 12
ENDMDL
MODEL 13
REMARK VINA RESULT:    -7.164      2.308      4.341
REMARK INTER + INTRA:         -15.725
REMARK INTER:                 -10.133
REMARK INTRA:                  -5.592
REMARK UNBOUND:                -3.535
REMARK  Name = cpd32.pdb
REMARK  14 active torsions:
REMARK  status: ('A' for Active; 'I' for Inactive)
REMARK    1  A    between atoms: C_1  and  C_2
REMARK    2  A    between atoms: C_6  and  N_7
REMARK    3  A    between atoms: N_7  and  C_8
REMARK    4  A    between atoms: C_13  and  C_14
REMARK    5  A    between atoms: N_16  and  C_17
REMARK    6  A    between atoms: C_17  and  C_18
REMARK    7  A    between atoms: C_18  and  C_19
REMARK    8  A    between atoms: N_21  and  C_22
REMARK    9  A    between atoms: C_22  and  C_23
REMARK   10  A    between atoms: C_23  and  C_24
REMARK   11  A    between atoms: C_24  and  C_25
REMARK   12  A    between atoms: C_25  and  N_26
REMARK   13  A    between atoms: N_26  and  C_27
REMARK   14  A    between atoms: C_41  and  C_42
REMARK                            x       y       z     vdW  Elec       q    Type
REMARK                         _______ _______ _______ _____ _____    ______ ____
ROOT
ATOM      1  C   UNL A   1      43.177 -14.811 -40.782  0.00  0.00    +0.215 C 
ATOM      2  O   UNL A   1      43.693 -15.712 -41.434  0.00  0.00    -0.276 OA
ATOM      3  N   UNL A   1      43.889 -13.825 -40.137  0.00  0.00    -0.315 N 
ATOM      4  H   UNL A   1      43.398 -13.149 -39.617  0.00  0.00    +0.000 HD
ENDROOT
BRANCH   1   5
ATOM      5  C   UNL A   1      41.679 -14.662 -40.669  0.00  0.00    +0.039 C 
BRANCH   5   6
ATOM      6  C   UNL A   1      41.185 -15.471 -39.484  0.00  0.00    +0.020 C 
BRANCH   6   9
ATOM      7  C   UNL A   1      42.349 -17.447 -38.625  0.00  0.00    +0.246 C 
ATOM      8  O   UNL A   1      42.918 -16.802 -37.750  0.00  0.00    -0.270 OA
ATOM      9  N   UNL A   1      41.542 -16.875 -39.592  0.00  0.00    -0.311 N 
ATOM     10  H   UNL A   1      41.212 -17.414 -40.347  0.00  0.00    +0.000 HD
BRANCH   7  16
ATOM     11  C   UNL A   1      42.576 -19.646 -37.429  0.00  0.00    +0.044 A 
ATOM     12  C   UNL A   1      42.579 -21.049 -37.492  0.00  0.00    -0.040 A 
ATOM     13  C   UNL A   1      42.553 -21.720 -38.718  0.00  0.00    -0.060 A 
ATOM     14  C   UNL A   1      42.495 -21.002 -39.909  0.00  0.00    -0.061 A 
ATOM     15  C   UNL A   1      42.436 -19.609 -39.875  0.00  0.00    -0.048 A 
ATOM     16  C   UNL A   1      42.449 -18.933 -38.644  0.00  0.00    +0.058 A 
BRANCH  11  17
ATOM     17  N   UNL A   1      42.525 -18.975 -36.177  0.00  0.00    -0.314 N 
ATOM     18  H   UNL A   1      43.046 -18.142 -36.117  0.00  0.00    +0.000 HD
BRANCH  17  24
ATOM     19  C   UNL A   1      38.431 -18.670 -33.328  0.00  0.00    -0.039 C 
ATOM     20  C   UNL A   1      39.837 -19.142 -33.585  0.00  0.00    -0.046 A 
ATOM     21  C   UNL A   1      40.502 -19.856 -32.576  0.00  0.00    -0.058 A 
ATOM     22  C   UNL A   1      41.814 -20.285 -32.757  0.00  0.00    -0.060 A 
ATOM     23  C   UNL A   1      42.474 -20.014 -33.952  0.00  0.00    -0.040 A 
ATOM     24  C   UNL A   1      41.824 -19.346 -34.999  0.00  0.00    +0.035 A 
ATOM     25  C   UNL A   1      40.494 -18.895 -34.813  0.00  0.00    -0.026 A 
ATOM     26  C   UNL A   1      39.813 -18.109 -35.907  0.00  0.00    -0.038 C 
ENDBRANCH  17  24
ENDBRANCH  11  17
ENDBRANCH   7  16
ENDBRANCH   6   9
ENDBRANCH   5   6
ENDBRANCH   1   5
BRANCH   3  27
ATOM     27  C   UNL A   1      45.334 -13.747 -40.196  0.00  0.00    +0.012 C 
BRANCH  27  28
ATOM     28  C   UNL A   1      46.015 -14.627 -39.149  0.00  0.00    -0.036 C 
BRANCH  28  29
ATOM     29  C   UNL A   1      47.346 -15.210 -39.630  0.00  0.00    -0.036 C 
BRANCH  29  30
ATOM     30  C   UNL A   1      47.180 -16.659 -40.089  0.00  0.00    +0.009 C 
BRANCH  30  31
ATOM     31  N   UNL A   1      45.874 -17.158 -39.639  0.00  0.00    -0.343 N 
ATOM     32  H   UNL A   1      45.037 -16.642 -39.686  0.00  0.00    +0.000 HD
BRANCH  31  33
ATOM     33  C   UNL A   1      45.970 -18.486 -39.125  0.00  0.00    +0.041 A 
ATOM     34  C   UNL A   1      46.150 -18.655 -37.738  0.00  0.00    -0.005 A 
ATOM     35  C   UNL A   1      46.280 -19.958 -37.256  0.00  0.00    +0.047 A 
ATOM     36  N   UNL A   1      46.293 -21.047 -38.058  0.00  0.00    -0.251 NA
ATOM     37  C   UNL A   1      46.139 -20.885 -39.379  0.00  0.00    +0.073 A 
ATOM     38  C   UNL A   1      46.150 -22.021 -40.177  0.00  0.00    -0.036 A 
ATOM     39  C   UNL A   1      45.999 -21.956 -41.564  0.00  0.00    -0.060 A 
ATOM     40  C   UNL A   1      45.830 -20.723 -42.174  0.00  0.00    -0.061 A 
ATOM     41  C   UNL A   1      45.815 -19.567 -41.394  0.00  0.00    -0.051 A 
ATOM     42  C   UNL A   1      45.971 -19.622 -39.985  0.00  0.00    +0.021 A 
ATOM     43  C   UNL A   1      46.474 -20.240 -35.788  0.00  0.00    -0.010 C 
ATOM     44  C   UNL A   1      46.001 -19.105 -34.889  0.00  0.00    -0.047 C 
ATOM     45  C   UNL A   1      46.575 -17.784 -35.380  0.00  0.00    -0.049 C 
ATOM     46  C   UNL A   1      46.080 -17.478 -36.794  0.00  0.00    -0.024 C 
ENDBRANCH  31  33
ENDBRANCH  30  31
ENDBRANCH  29  30
ENDBRANCH  28  29
ENDBRANCH  27  28
ENDBRANCH   3  27
TORSDOF 12
ENDMDL
MODEL 14
REMARK VINA RESULT:    -7.156      1.684      3.230
REMARK INTER + INTRA:         -15.712
REMARK INTER:                 -11.952
REMARK INTRA:                  -3.759
REMARK UNBOUND:                -3.535
REMARK  Name = cpd32.pdb
REMARK  14 active torsions:
REMARK  status: ('A' for Active; 'I' for Inactive)
REMARK    1  A    between atoms: C_1  and  C_2
REMARK    2  A    between atoms: C_6  and  N_7
REMARK    3  A    between atoms: N_7  and  C_8
REMARK    4  A    between atoms: C_13  and  C_14
REMARK    5  A    between atoms: N_16  and  C_17
REMARK    6  A    between atoms: C_17  and  C_18
REMARK    7  A    between atoms: C_18  and  C_19
REMARK    8  A    between atoms: N_21  and  C_22
REMARK    9  A    between atoms: C_22  and  C_23
REMARK   10  A    between atoms: C_23  and  C_24
REMARK   11  A    between atoms: C_24  and  C_25
REMARK   12  A    between atoms: C_25  and  N_26
REMARK   13  A    between atoms: N_26  and  C_27
REMARK   14  A    between atoms: C_41  and  C_42
REMARK                            x       y       z     vdW  Elec       q    Type
REMARK                         _______ _______ _______ _____ _____    ______ ____
ROOT
ATOM      1  C   UNL A   1      45.306 -17.399 -34.014  0.00  0.00    +0.215 C 
ATOM      2  O   UNL A   1      45.451 -18.037 -32.977  0.00  0.00    -0.276 OA
ATOM      3  N   UNL A   1      46.246 -17.343 -35.018  0.00  0.00    -0.315 N 
ATOM      4  H   UNL A   1      46.061 -16.789 -35.811  0.00  0.00    +0.000 HD
ENDROOT
BRANCH   1   5
ATOM      5  C   UNL A   1      44.036 -16.643 -34.316  0.00  0.00    +0.039 C 
BRANCH   5   6
ATOM      6  C   UNL A   1      43.184 -17.459 -35.271  0.00  0.00    +0.020 C 
BRANCH   6   9
ATOM      7  C   UNL A   1      41.494 -18.994 -34.386  0.00  0.00    +0.246 C 
ATOM      8  O   UNL A   1      40.622 -18.131 -34.395  0.00  0.00    -0.270 OA
ATOM      9  N   UNL A   1      42.816 -18.747 -34.712  0.00  0.00    -0.311 N 
ATOM     10  H   UNL A   1      43.501 -19.439 -34.566  0.00  0.00    +0.000 HD
BRANCH   7  16
ATOM     11  C   UNL A   1      40.737 -21.275 -35.122  0.00  0.00    +0.044 A 
ATOM     12  C   UNL A   1      40.502 -22.621 -34.799  0.00  0.00    -0.040 A 
ATOM     13  C   UNL A   1      40.573 -23.073 -33.478  0.00  0.00    -0.060 A 
ATOM     14  C   UNL A   1      40.909 -22.194 -32.453  0.00  0.00    -0.061 A 
ATOM     15  C   UNL A   1      41.202 -20.863 -32.752  0.00  0.00    -0.048 A 
ATOM     16  C   UNL A   1      41.143 -20.409 -34.080  0.00  0.00    +0.058 A 
BRANCH  11  17
ATOM     17  N   UNL A   1      40.737 -20.842 -36.476  0.00  0.00    -0.314 N 
ATOM     18  H   UNL A   1      41.438 -21.229 -37.048  0.00  0.00    +0.000 HD
BRANCH  17  24
ATOM     19  C   UNL A   1      40.059 -16.953 -39.541  0.00  0.00    -0.039 C 
ATOM     20  C   UNL A   1      39.546 -17.984 -38.572  0.00  0.00    -0.046 A 
ATOM     21  C   UNL A   1      38.192 -17.948 -38.203  0.00  0.00    -0.058 A 
ATOM     22  C   UNL A   1      37.680 -18.862 -37.287  0.00  0.00    -0.060 A 
ATOM     23  C   UNL A   1      38.514 -19.830 -36.733  0.00  0.00    -0.040 A 
ATOM     24  C   UNL A   1      39.859 -19.926 -37.115  0.00  0.00    +0.035 A 
ATOM     25  C   UNL A   1      40.387 -18.989 -38.037  0.00  0.00    -0.026 A 
ATOM     26  C   UNL A   1      41.852 -19.038 -38.395  0.00  0.00    -0.038 C 
ENDBRANCH  17  24
ENDBRANCH  11  17
ENDBRANCH   7  16
ENDBRANCH   6   9
ENDBRANCH   5   6
ENDBRANCH   1   5
BRANCH   3  27
ATOM     27  C   UNL A   1      47.497 -18.069 -34.951  0.00  0.00    +0.012 C 
BRANCH  27  28
ATOM     28  C   UNL A   1      47.644 -19.096 -36.073  0.00  0.00    -0.036 C 
BRANCH  28  29
ATOM     29  C   UNL A   1      46.546 -20.162 -36.058  0.00  0.00    -0.036 C 
BRANCH  29  30
ATOM     30  C   UNL A   1      45.759 -20.161 -37.370  0.00  0.00    +0.009 C 
BRANCH  30  31
ATOM     31  N   UNL A   1      46.576 -19.537 -38.419  0.00  0.00    -0.343 N 
ATOM     32  H   UNL A   1      47.525 -19.299 -38.315  0.00  0.00    +0.000 HD
BRANCH  31  33
ATOM     33  C   UNL A   1      45.819 -19.317 -39.609  0.00  0.00    +0.041 A 
ATOM     34  C   UNL A   1      45.081 -18.121 -39.722  0.00  0.00    -0.005 A 
ATOM     35  C   UNL A   1      44.318 -17.938 -40.874  0.00  0.00    +0.047 A 
ATOM     36  N   UNL A   1      44.215 -18.868 -41.851  0.00  0.00    -0.251 NA
ATOM     37  C   UNL A   1      44.903 -20.012 -41.736  0.00  0.00    +0.073 A 
ATOM     38  C   UNL A   1      44.784 -20.946 -42.756  0.00  0.00    -0.036 A 
ATOM     39  C   UNL A   1      45.459 -22.168 -42.727  0.00  0.00    -0.060 A 
ATOM     40  C   UNL A   1      46.279 -22.468 -41.652  0.00  0.00    -0.061 A 
ATOM     41  C   UNL A   1      46.416 -21.547 -40.614  0.00  0.00    -0.051 A 
ATOM     42  C   UNL A   1      45.731 -20.304 -40.632  0.00  0.00    +0.021 A 
ATOM     43  C   UNL A   1      43.497 -16.691 -41.087  0.00  0.00    -0.010 C 
ATOM     44  C   UNL A   1      43.972 -15.508 -40.254  0.00  0.00    -0.047 C 
ATOM     45  C   UNL A   1      44.146 -15.935 -38.804  0.00  0.00    -0.049 C 
ATOM     46  C   UNL A   1      45.212 -17.025 -38.690  0.00  0.00    -0.024 C 
ENDBRANCH  31  33
ENDBRANCH  30  31
ENDBRANCH  29  30
ENDBRANCH  28  29
ENDBRANCH  27  28
ENDBRANCH   3  27
TORSDOF 12
ENDMDL
MODEL 15
REMARK VINA RESULT:    -7.137      2.341      7.295
REMARK INTER + INTRA:         -15.679
REMARK INTER:                 -12.223
REMARK INTRA:                  -3.456
REMARK UNBOUND:                -3.535
REMARK  Name = cpd32.pdb
REMARK  14 active torsions:
REMARK  status: ('A' for Active; 'I' for Inactive)
REMARK    1  A    between atoms: C_1  and  C_2
REMARK    2  A    between atoms: C_6  and  N_7
REMARK    3  A    between atoms: N_7  and  C_8
REMARK    4  A    between atoms: C_13  and  C_14
REMARK    5  A    between atoms: N_16  and  C_17
REMARK    6  A    between atoms: C_17  and  C_18
REMARK    7  A    between atoms: C_18  and  C_19
REMARK    8  A    between atoms: N_21  and  C_22
REMARK    9  A    between atoms: C_22  and  C_23
REMARK   10  A    between atoms: C_23  and  C_24
REMARK   11  A    between atoms: C_24  and  C_25
REMARK   12  A    between atoms: C_25  and  N_26
REMARK   13  A    between atoms: N_26  and  C_27
REMARK   14  A    between atoms: C_41  and  C_42
REMARK                            x       y       z     vdW  Elec       q    Type
REMARK                         _______ _______ _______ _____ _____    ______ ____
ROOT
ATOM      1  C   UNL A   1      46.439 -16.246 -37.889  0.00  0.00    +0.215 C 
ATOM      2  O   UNL A   1      45.215 -16.256 -37.953  0.00  0.00    -0.276 OA
ATOM      3  N   UNL A   1      47.163 -16.896 -36.915  0.00  0.00    -0.315 N 
ATOM      4  H   UNL A   1      48.145 -16.820 -36.923  0.00  0.00    +0.000 HD
ENDROOT
BRANCH   1   5
ATOM      5  C   UNL A   1      47.288 -15.551 -38.925  0.00  0.00    +0.039 C 
BRANCH   5   6
ATOM      6  C   UNL A   1      46.966 -16.116 -40.296  0.00  0.00    +0.020 C 
BRANCH   6   9
ATOM      7  C   UNL A   1      45.931 -18.232 -40.966  0.00  0.00    +0.246 C 
ATOM      8  O   UNL A   1      44.947 -17.669 -41.434  0.00  0.00    -0.270 OA
ATOM      9  N   UNL A   1      46.946 -17.568 -40.299  0.00  0.00    -0.311 N 
ATOM     10  H   UNL A   1      47.648 -18.075 -39.831  0.00  0.00    +0.000 HD
BRANCH   7  16
ATOM     11  C   UNL A   1      45.040 -20.582 -40.932  0.00  0.00    +0.044 A 
ATOM     12  C   UNL A   1      45.241 -21.943 -41.214  0.00  0.00    -0.040 A 
ATOM     13  C   UNL A   1      46.490 -22.424 -41.617  0.00  0.00    -0.060 A 
ATOM     14  C   UNL A   1      47.561 -21.549 -41.774  0.00  0.00    -0.061 A 
ATOM     15  C   UNL A   1      47.377 -20.184 -41.554  0.00  0.00    -0.048 A 
ATOM     16  C   UNL A   1      46.119 -19.696 -41.161  0.00  0.00    +0.058 A 
BRANCH  11  17
ATOM     17  N   UNL A   1      43.749 -20.092 -40.597  0.00  0.00    -0.314 N 
ATOM     18  H   UNL A   1      43.239 -19.690 -41.337  0.00  0.00    +0.000 HD
BRANCH  17  24
ATOM     19  C   UNL A   1      40.089 -21.815 -37.662  0.00  0.00    -0.039 C 
ATOM     20  C   UNL A   1      41.263 -20.911 -37.927  0.00  0.00    -0.046 A 
ATOM     21  C   UNL A   1      41.628 -19.977 -36.946  0.00  0.00    -0.058 A 
ATOM     22  C   UNL A   1      42.688 -19.100 -37.160  0.00  0.00    -0.060 A 
ATOM     23  C   UNL A   1      43.401 -19.151 -38.355  0.00  0.00    -0.040 A 
ATOM     24  C   UNL A   1      43.094 -20.104 -39.336  0.00  0.00    +0.035 A 
ATOM     25  C   UNL A   1      42.008 -20.989 -39.128  0.00  0.00    -0.026 A 
ATOM     26  C   UNL A   1      41.623 -21.967 -40.211  0.00  0.00    -0.038 C 
ENDBRANCH  17  24
ENDBRANCH  11  17
ENDBRANCH   7  16
ENDBRANCH   6   9
ENDBRANCH   5   6
ENDBRANCH   1   5
BRANCH   3  27
ATOM     27  C   UNL A   1      46.533 -17.687 -35.879  0.00  0.00    +0.012 C 
BRANCH  27  28
ATOM     28  C   UNL A   1      46.609 -19.188 -36.154  0.00  0.00    -0.036 C 
BRANCH  28  29
ATOM     29  C   UNL A   1      46.190 -20.040 -34.954  0.00  0.00    -0.036 C 
BRANCH  29  30
ATOM     30  C   UNL A   1      44.683 -19.944 -34.709  0.00  0.00    +0.009 C 
BRANCH  30  31
ATOM     31  N   UNL A   1      44.438 -19.832 -33.265  0.00  0.00    -0.343 N 
ATOM     32  H   UNL A   1      44.984 -20.272 -32.574  0.00  0.00    +0.000 HD
BRANCH  31  33
ATOM     33  C   UNL A   1      43.309 -19.004 -32.989  0.00  0.00    +0.041 A 
ATOM     34  C   UNL A   1      42.036 -19.607 -32.928  0.00  0.00    -0.005 A 
ATOM     35  C   UNL A   1      40.938 -18.779 -32.695  0.00  0.00    +0.047 A 
ATOM     36  N   UNL A   1      41.035 -17.435 -32.577  0.00  0.00    -0.251 NA
ATOM     37  C   UNL A   1      42.243 -16.860 -32.652  0.00  0.00    +0.073 A 
ATOM     38  C   UNL A   1      42.313 -15.479 -32.521  0.00  0.00    -0.036 A 
ATOM     39  C   UNL A   1      43.524 -14.788 -32.585  0.00  0.00    -0.060 A 
ATOM     40  C   UNL A   1      44.702 -15.492 -32.784  0.00  0.00    -0.061 A 
ATOM     41  C   UNL A   1      44.658 -16.879 -32.918  0.00  0.00    -0.051 A 
ATOM     42  C   UNL A   1      43.432 -17.591 -32.857  0.00  0.00    +0.021 A 
ATOM     43  C   UNL A   1      39.537 -19.331 -32.612  0.00  0.00    -0.010 C 
ATOM     44  C   UNL A   1      39.495 -20.817 -32.282  0.00  0.00    -0.047 C 
ATOM     45  C   UNL A   1      40.442 -21.576 -33.200  0.00  0.00    -0.049 C 
ATOM     46  C   UNL A   1      41.882 -21.108 -32.990  0.00  0.00    -0.024 C 
ENDBRANCH  31  33
ENDBRANCH  30  31
ENDBRANCH  29  30
ENDBRANCH  28  29
ENDBRANCH  27  28
ENDBRANCH   3  27
TORSDOF 12
ENDMDL
MODEL 16
REMARK VINA RESULT:    -7.085      2.045      5.332
REMARK INTER + INTRA:         -15.591
REMARK INTER:                 -10.422
REMARK INTRA:                  -5.169
REMARK UNBOUND:                -3.535
REMARK  Name = cpd32.pdb
REMARK  14 active torsions:
REMARK  status: ('A' for Active; 'I' for Inactive)
REMARK    1  A    between atoms: C_1  and  C_2
REMARK    2  A    between atoms: C_6  and  N_7
REMARK    3  A    between atoms: N_7  and  C_8
REMARK    4  A    between atoms: C_13  and  C_14
REMARK    5  A    between atoms: N_16  and  C_17
REMARK    6  A    between atoms: C_17  and  C_18
REMARK    7  A    between atoms: C_18  and  C_19
REMARK    8  A    between atoms: N_21  and  C_22
REMARK    9  A    between atoms: C_22  and  C_23
REMARK   10  A    between atoms: C_23  and  C_24
REMARK   11  A    between atoms: C_24  and  C_25
REMARK   12  A    between atoms: C_25  and  N_26
REMARK   13  A    between atoms: N_26  and  C_27
REMARK   14  A    between atoms: C_41  and  C_42
REMARK                            x       y       z     vdW  Elec       q    Type
REMARK                         _______ _______ _______ _____ _____    ______ ____
ROOT
ATOM      1  C   UNL A   1      40.013 -21.458 -35.179  0.00  0.00    +0.215 C 
ATOM      2  O   UNL A   1      39.236 -20.513 -35.249  0.00  0.00    -0.276 OA
ATOM      3  N   UNL A   1      40.377 -22.235 -36.256  0.00  0.00    -0.315 N 
ATOM      4  H   UNL A   1      40.992 -22.990 -36.110  0.00  0.00    +0.000 HD
ENDROOT
BRANCH   1   5
ATOM      5  C   UNL A   1      40.702 -21.833 -33.889  0.00  0.00    +0.039 C 
BRANCH   5   6
ATOM      6  C   UNL A   1      41.585 -20.683 -33.442  0.00  0.00    +0.020 C 
BRANCH   6   9
ATOM      7  C   UNL A   1      43.559 -19.436 -34.183  0.00  0.00    +0.246 C 
ATOM      8  O   UNL A   1      43.747 -18.959 -33.069  0.00  0.00    -0.270 OA
ATOM      9  N   UNL A   1      42.469 -20.228 -34.501  0.00  0.00    -0.311 N 
ATOM     10  H   UNL A   1      42.294 -20.480 -35.436  0.00  0.00    +0.000 HD
BRANCH   7  16
ATOM     11  C   UNL A   1      44.621 -18.002 -35.952  0.00  0.00    +0.044 A 
ATOM     12  C   UNL A   1      45.643 -17.830 -36.900  0.00  0.00    -0.040 A 
ATOM     13  C   UNL A   1      46.517 -18.872 -37.222  0.00  0.00    -0.060 A 
ATOM     14  C   UNL A   1      46.407 -20.102 -36.582  0.00  0.00    -0.061 A 
ATOM     15  C   UNL A   1      45.437 -20.285 -35.597  0.00  0.00    -0.048 A 
ATOM     16  C   UNL A   1      44.565 -19.235 -35.262  0.00  0.00    +0.058 A 
BRANCH  11  17
ATOM     17  N   UNL A   1      43.787 -16.914 -35.578  0.00  0.00    -0.314 N 
ATOM     18  H   UNL A   1      43.635 -16.806 -34.611  0.00  0.00    +0.000 HD
BRANCH  17  24
ATOM     19  C   UNL A   1      39.997 -15.703 -38.601  0.00  0.00    -0.039 C 
ATOM     20  C   UNL A   1      41.312 -15.401 -37.937  0.00  0.00    -0.046 A 
ATOM     21  C   UNL A   1      41.968 -14.202 -38.255  0.00  0.00    -0.058 A 
ATOM     22  C   UNL A   1      43.202 -13.894 -37.689  0.00  0.00    -0.060 A 
ATOM     23  C   UNL A   1      43.792 -14.778 -36.789  0.00  0.00    -0.040 A 
ATOM     24  C   UNL A   1      43.143 -15.961 -36.411  0.00  0.00    +0.035 A 
ATOM     25  C   UNL A   1      41.894 -16.284 -36.997  0.00  0.00    -0.026 A 
ATOM     26  C   UNL A   1      41.225 -17.593 -36.653  0.00  0.00    -0.038 C 
ENDBRANCH  17  24
ENDBRANCH  11  17
ENDBRANCH   7  16
ENDBRANCH   6   9
ENDBRANCH   5   6
ENDBRANCH   1   5
BRANCH   3  27
ATOM     27  C   UNL A   1      39.888 -21.982 -37.595  0.00  0.00    +0.012 C 
BRANCH  27  28
ATOM     28  C   UNL A   1      41.015 -21.778 -38.606  0.00  0.00    -0.036 C 
BRANCH  28  29
ATOM     29  C   UNL A   1      42.080 -20.790 -38.126  0.00  0.00    -0.036 C 
BRANCH  29  30
ATOM     30  C   UNL A   1      43.464 -21.172 -38.652  0.00  0.00    +0.009 C 
BRANCH  30  31
ATOM     31  N   UNL A   1      43.526 -20.888 -40.092  0.00  0.00    -0.343 N 
ATOM     32  H   UNL A   1      42.806 -21.097 -40.730  0.00  0.00    +0.000 HD
BRANCH  31  33
ATOM     33  C   UNL A   1      44.761 -20.270 -40.450  0.00  0.00    +0.041 A 
ATOM     34  C   UNL A   1      44.819 -18.863 -40.490  0.00  0.00    -0.005 A 
ATOM     35  C   UNL A   1      46.023 -18.274 -40.878  0.00  0.00    +0.047 A 
ATOM     36  N   UNL A   1      47.106 -18.988 -41.262  0.00  0.00    -0.251 NA
ATOM     37  C   UNL A   1      47.046 -20.326 -41.241  0.00  0.00    +0.073 A 
ATOM     38  C   UNL A   1      48.175 -21.033 -41.634  0.00  0.00    -0.036 A 
ATOM     39  C   UNL A   1      48.210 -22.428 -41.647  0.00  0.00    -0.060 A 
ATOM     40  C   UNL A   1      47.089 -23.143 -41.255  0.00  0.00    -0.061 A 
ATOM     41  C   UNL A   1      45.943 -22.456 -40.855  0.00  0.00    -0.051 A 
ATOM     42  C   UNL A   1      45.895 -21.038 -40.841  0.00  0.00    +0.021 A 
ATOM     43  C   UNL A   1      46.183 -16.777 -40.950  0.00  0.00    -0.010 C 
ATOM     44  C   UNL A   1      45.169 -16.022 -40.100  0.00  0.00    -0.047 C 
ATOM     45  C   UNL A   1      43.768 -16.543 -40.385  0.00  0.00    -0.049 C 
ATOM     46  C   UNL A   1      43.659 -18.022 -40.011  0.00  0.00    -0.024 C 
ENDBRANCH  31  33
ENDBRANCH  30  31
ENDBRANCH  29  30
ENDBRANCH  28  29
ENDBRANCH  27  28
ENDBRANCH   3  27
TORSDOF 12
ENDMDL
MODEL 17
REMARK VINA RESULT:    -7.083      2.183      7.806
REMARK INTER + INTRA:         -15.587
REMARK INTER:                 -11.686
REMARK INTRA:                  -3.901
REMARK UNBOUND:                -3.535
REMARK  Name = cpd32.pdb
REMARK  14 active torsions:
REMARK  status: ('A' for Active; 'I' for Inactive)
REMARK    1  A    between atoms: C_1  and  C_2
REMARK    2  A    between atoms: C_6  and  N_7
REMARK    3  A    between atoms: N_7  and  C_8
REMARK    4  A    between atoms: C_13  and  C_14
REMARK    5  A    between atoms: N_16  and  C_17
REMARK    6  A    between atoms: C_17  and  C_18
REMARK    7  A    between atoms: C_18  and  C_19
REMARK    8  A    between atoms: N_21  and  C_22
REMARK    9  A    between atoms: C_22  and  C_23
REMARK   10  A    between atoms: C_23  and  C_24
REMARK   11  A    between atoms: C_24  and  C_25
REMARK   12  A    between atoms: C_25  and  N_26
REMARK   13  A    between atoms: N_26  and  C_27
REMARK   14  A    between atoms: C_41  and  C_42
REMARK                            x       y       z     vdW  Elec       q    Type
REMARK                         _______ _______ _______ _____ _____    ______ ____
ROOT
ATOM      1  C   UNL A   1      45.720 -17.065 -35.789  0.00  0.00    +0.215 C 
ATOM      2  O   UNL A   1      45.240 -16.174 -35.096  0.00  0.00    -0.276 OA
ATOM      3  N   UNL A   1      45.709 -18.397 -35.442  0.00  0.00    -0.315 N 
ATOM      4  H   UNL A   1      46.136 -19.048 -36.045  0.00  0.00    +0.000 HD
ENDROOT
BRANCH   1   5
ATOM      5  C   UNL A   1      46.332 -16.785 -37.139  0.00  0.00    +0.039 C 
BRANCH   5   6
ATOM      6  C   UNL A   1      47.199 -17.961 -37.549  0.00  0.00    +0.020 C 
BRANCH   6   9
ATOM      7  C   UNL A   1      46.182 -19.825 -38.769  0.00  0.00    +0.246 C 
ATOM      8  O   UNL A   1      46.167 -20.543 -37.775  0.00  0.00    -0.270 OA
ATOM      9  N   UNL A   1      46.752 -18.564 -38.792  0.00  0.00    -0.311 N 
ATOM     10  H   UNL A   1      46.854 -18.080 -39.643  0.00  0.00    +0.000 HD
BRANCH   7  16
ATOM     11  C   UNL A   1      44.250 -20.915 -39.949  0.00  0.00    +0.044 A 
ATOM     12  C   UNL A   1      43.609 -21.232 -41.159  0.00  0.00    -0.040 A 
ATOM     13  C   UNL A   1      44.228 -21.000 -42.390  0.00  0.00    -0.060 A 
ATOM     14  C   UNL A   1      45.492 -20.419 -42.441  0.00  0.00    -0.061 A 
ATOM     15  C   UNL A   1      46.129 -20.044 -41.258  0.00  0.00    -0.048 A 
ATOM     16  C   UNL A   1      45.503 -20.265 -40.020  0.00  0.00    +0.058 A 
BRANCH  11  17
ATOM     17  N   UNL A   1      43.581 -21.085 -38.706  0.00  0.00    -0.314 N 
ATOM     18  H   UNL A   1      44.157 -21.298 -37.937  0.00  0.00    +0.000 HD
BRANCH  17  24
ATOM     19  C   UNL A   1      39.687 -18.388 -37.112  0.00  0.00    -0.039 C 
ATOM     20  C   UNL A   1      40.304 -19.676 -37.588  0.00  0.00    -0.046 A 
ATOM     21  C   UNL A   1      39.506 -20.830 -37.629  0.00  0.00    -0.058 A 
ATOM     22  C   UNL A   1      40.041 -22.050 -38.033  0.00  0.00    -0.060 A 
ATOM     23  C   UNL A   1      41.379 -22.130 -38.409  0.00  0.00    -0.040 A 
ATOM     24  C   UNL A   1      42.192 -20.989 -38.426  0.00  0.00    +0.035 A 
ATOM     25  C   UNL A   1      41.655 -19.748 -38.002  0.00  0.00    -0.026 A 
ATOM     26  C   UNL A   1      42.544 -18.530 -37.945  0.00  0.00    -0.038 C 
ENDBRANCH  17  24
ENDBRANCH  11  17
ENDBRANCH   7  16
ENDBRANCH   6   9
ENDBRANCH   5   6
ENDBRANCH   1   5
BRANCH   3  27
ATOM     27  C   UNL A   1      45.094 -18.877 -34.223  0.00  0.00    +0.012 C 
BRANCH  27  28
ATOM     28  C   UNL A   1      43.568 -18.806 -34.265  0.00  0.00    -0.036 C 
BRANCH  28  29
ATOM     29  C   UNL A   1      42.966 -18.112 -33.041  0.00  0.00    -0.036 C 
BRANCH  29  30
ATOM     30  C   UNL A   1      41.629 -18.744 -32.651  0.00  0.00    +0.009 C 
BRANCH  30  31
ATOM     31  N   UNL A   1      40.762 -18.803 -33.835  0.00  0.00    -0.343 N 
ATOM     32  H   UNL A   1      41.016 -18.469 -34.726  0.00  0.00    +0.000 HD
BRANCH  31  33
ATOM     33  C   UNL A   1      39.504 -19.405 -33.533  0.00  0.00    +0.041 A 
ATOM     34  C   UNL A   1      39.366 -20.796 -33.715  0.00  0.00    -0.005 A 
ATOM     35  C   UNL A   1      38.120 -21.363 -33.451  0.00  0.00    +0.047 A 
ATOM     36  N   UNL A   1      37.038 -20.638 -33.083  0.00  0.00    -0.251 NA
ATOM     37  C   UNL A   1      37.165 -19.314 -32.927  0.00  0.00    +0.073 A 
ATOM     38  C   UNL A   1      36.040 -18.596 -32.543  0.00  0.00    -0.036 A 
ATOM     39  C   UNL A   1      36.070 -17.212 -32.356  0.00  0.00    -0.060 A 
ATOM     40  C   UNL A   1      37.255 -16.523 -32.555  0.00  0.00    -0.061 A 
ATOM     41  C   UNL A   1      38.399 -17.221 -32.941  0.00  0.00    -0.051 A 
ATOM     42  C   UNL A   1      38.379 -18.627 -33.137  0.00  0.00    +0.021 A 
ATOM     43  C   UNL A   1      37.875 -22.842 -33.614  0.00  0.00    -0.010 C 
ATOM     44  C   UNL A   1      39.151 -23.672 -33.564  0.00  0.00    -0.047 C 
ATOM     45  C   UNL A   1      40.191 -23.075 -34.501  0.00  0.00    -0.049 C 
ATOM     46  C   UNL A   1      40.558 -21.657 -34.062  0.00  0.00    -0.024 C 
ENDBRANCH  31  33
ENDBRANCH  30  31
ENDBRANCH  29  30
ENDBRANCH  28  29
ENDBRANCH  27  28
ENDBRANCH   3  27
TORSDOF 12
ENDMDL
MODEL 18
REMARK VINA RESULT:    -7.034      2.226      5.905
REMARK INTER + INTRA:         -15.504
REMARK INTER:                  -9.924
REMARK INTRA:                  -5.581
REMARK UNBOUND:                -3.535
REMARK  Name = cpd32.pdb
REMARK  14 active torsions:
REMARK  status: ('A' for Active; 'I' for Inactive)
REMARK    1  A    between atoms: C_1  and  C_2
REMARK    2  A    between atoms: C_6  and  N_7
REMARK    3  A    between atoms: N_7  and  C_8
REMARK    4  A    between atoms: C_13  and  C_14
REMARK    5  A    between atoms: N_16  and  C_17
REMARK    6  A    between atoms: C_17  and  C_18
REMARK    7  A    between atoms: C_18  and  C_19
REMARK    8  A    between atoms: N_21  and  C_22
REMARK    9  A    between atoms: C_22  and  C_23
REMARK   10  A    between atoms: C_23  and  C_24
REMARK   11  A    between atoms: C_24  and  C_25
REMARK   12  A    between atoms: C_25  and  N_26
REMARK   13  A    between atoms: N_26  and  C_27
REMARK   14  A    between atoms: C_41  and  C_42
REMARK                            x       y       z     vdW  Elec       q    Type
REMARK                         _______ _______ _______ _____ _____    ______ ____
ROOT
ATOM      1  C   UNL A   1      47.240 -17.785 -37.000  0.00  0.00    +0.215 C 
ATOM      2  O   UNL A   1      47.552 -16.944 -36.164  0.00  0.00    -0.276 OA
ATOM      3  N   UNL A   1      47.006 -19.109 -36.706  0.00  0.00    -0.315 N 
ATOM      4  H   UNL A   1      46.781 -19.726 -37.440  0.00  0.00    +0.000 HD
ENDROOT
BRANCH   1   5
ATOM      5  C   UNL A   1      47.027 -17.430 -38.451  0.00  0.00    +0.039 C 
BRANCH   5   6
ATOM      6  C   UNL A   1      46.075 -18.432 -39.076  0.00  0.00    +0.020 C 
BRANCH   6   9
ATOM      7  C   UNL A   1      43.895 -17.340 -38.843  0.00  0.00    +0.246 C 
ATOM      8  O   UNL A   1      43.835 -17.588 -37.643  0.00  0.00    -0.270 OA
ATOM      9  N   UNL A   1      44.914 -17.789 -39.666  0.00  0.00    -0.311 N 
ATOM     10  H   UNL A   1      44.852 -17.675 -40.641  0.00  0.00    +0.000 HD
BRANCH   7  16
ATOM     11  C   UNL A   1      41.512 -16.825 -39.452  0.00  0.00    +0.044 A 
ATOM     12  C   UNL A   1      40.581 -15.918 -39.984  0.00  0.00    -0.040 A 
ATOM     13  C   UNL A   1      40.993 -14.735 -40.605  0.00  0.00    -0.060 A 
ATOM     14  C   UNL A   1      42.346 -14.419 -40.681  0.00  0.00    -0.061 A 
ATOM     15  C   UNL A   1      43.290 -15.274 -40.113  0.00  0.00    -0.048 A 
ATOM     16  C   UNL A   1      42.877 -16.457 -39.477  0.00  0.00    +0.058 A 
BRANCH  11  17
ATOM     17  N   UNL A   1      41.079 -17.986 -38.756  0.00  0.00    -0.314 N 
ATOM     18  H   UNL A   1      41.371 -18.846 -39.137  0.00  0.00    +0.000 HD
BRANCH  17  24
ATOM     19  C   UNL A   1      36.631 -18.804 -36.629  0.00  0.00    -0.039 C 
ATOM     20  C   UNL A   1      38.084 -18.418 -36.560  0.00  0.00    -0.046 A 
ATOM     21  C   UNL A   1      38.616 -18.015 -35.326  0.00  0.00    -0.058 A 
ATOM     22  C   UNL A   1      39.947 -17.619 -35.220  0.00  0.00    -0.060 A 
ATOM     23  C   UNL A   1      40.765 -17.630 -36.347  0.00  0.00    -0.040 A 
ATOM     24  C   UNL A   1      40.280 -18.073 -37.585  0.00  0.00    +0.035 A 
ATOM     25  C   UNL A   1      38.923 -18.463 -37.699  0.00  0.00    -0.026 A 
ATOM     26  C   UNL A   1      38.373 -18.869 -39.045  0.00  0.00    -0.038 C 
ENDBRANCH  17  24
ENDBRANCH  11  17
ENDBRANCH   7  16
ENDBRANCH   6   9
ENDBRANCH   5   6
ENDBRANCH   1   5
BRANCH   3  27
ATOM     27  C   UNL A   1      47.078 -19.629 -35.356  0.00  0.00    +0.012 C 
BRANCH  27  28
ATOM     28  C   UNL A   1      45.706 -19.984 -34.786  0.00  0.00    -0.036 C 
BRANCH  28  29
ATOM     29  C   UNL A   1      44.786 -18.770 -34.636  0.00  0.00    -0.036 C 
BRANCH  29  30
ATOM     30  C   UNL A   1      43.353 -19.200 -34.320  0.00  0.00    +0.009 C 
BRANCH  30  31
ATOM     31  N   UNL A   1      43.227 -20.647 -34.537  0.00  0.00    -0.343 N 
ATOM     32  H   UNL A   1      43.862 -21.317 -34.195  0.00  0.00    +0.000 HD
BRANCH  31  33
ATOM     33  C   UNL A   1      42.067 -20.961 -35.307  0.00  0.00    +0.041 A 
ATOM     34  C   UNL A   1      40.858 -21.209 -34.625  0.00  0.00    -0.005 A 
ATOM     35  C   UNL A   1      39.742 -21.551 -35.389  0.00  0.00    +0.047 A 
ATOM     36  N   UNL A   1      39.783 -21.704 -36.733  0.00  0.00    -0.251 NA
ATOM     37  C   UNL A   1      40.936 -21.486 -37.378  0.00  0.00    +0.073 A 
ATOM     38  C   UNL A   1      40.946 -21.645 -38.758  0.00  0.00    -0.036 A 
ATOM     39  C   UNL A   1      42.098 -21.441 -39.520  0.00  0.00    -0.060 A 
ATOM     40  C   UNL A   1      43.275 -21.067 -38.891  0.00  0.00    -0.061 A 
ATOM     41  C   UNL A   1      43.290 -20.901 -37.506  0.00  0.00    -0.051 A 
ATOM     42  C   UNL A   1      42.126 -21.108 -36.722  0.00  0.00    +0.021 A 
ATOM     43  C   UNL A   1      38.405 -21.833 -34.751  0.00  0.00    -0.010 C 
ATOM     44  C   UNL A   1      38.260 -21.220 -33.364  0.00  0.00    -0.047 C 
ATOM     45  C   UNL A   1      39.474 -21.571 -32.516  0.00  0.00    -0.049 C 
ATOM     46  C   UNL A   1      40.746 -20.990 -33.135  0.00  0.00    -0.024 C 
ENDBRANCH  31  33
ENDBRANCH  30  31
ENDBRANCH  29  30
ENDBRANCH  28  29
ENDBRANCH  27  28
ENDBRANCH   3  27
TORSDOF 12
ENDMDL
MODEL 19
REMARK VINA RESULT:    -6.993      2.459      6.227
REMARK INTER + INTRA:         -15.435
REMARK INTER:                  -9.427
REMARK INTRA:                  -6.007
REMARK UNBOUND:                -3.535
REMARK  Name = cpd32.pdb
REMARK  14 active torsions:
REMARK  status: ('A' for Active; 'I' for Inactive)
REMARK    1  A    between atoms: C_1  and  C_2
REMARK    2  A    between atoms: C_6  and  N_7
REMARK    3  A    between atoms: N_7  and  C_8
REMARK    4  A    between atoms: C_13  and  C_14
REMARK    5  A    between atoms: N_16  and  C_17
REMARK    6  A    between atoms: C_17  and  C_18
REMARK    7  A    between atoms: C_18  and  C_19
REMARK    8  A    between atoms: N_21  and  C_22
REMARK    9  A    between atoms: C_22  and  C_23
REMARK   10  A    between atoms: C_23  and  C_24
REMARK   11  A    between atoms: C_24  and  C_25
REMARK   12  A    between atoms: C_25  and  N_26
REMARK   13  A    between atoms: N_26  and  C_27
REMARK   14  A    between atoms: C_41  and  C_42
REMARK                            x       y       z     vdW  Elec       q    Type
REMARK                         _______ _______ _______ _____ _____    ______ ____
ROOT
ATOM      1  C   UNL A   1      45.268 -14.393 -37.958  0.00  0.00    +0.215 C 
ATOM      2  O   UNL A   1      45.660 -14.116 -36.830  0.00  0.00    -0.276 OA
ATOM      3  N   UNL A   1      43.980 -14.182 -38.396  0.00  0.00    -0.315 N 
ATOM      4  H   UNL A   1      43.740 -14.453 -39.311  0.00  0.00    +0.000 HD
ENDROOT
BRANCH   1   5
ATOM      5  C   UNL A   1      46.192 -14.954 -39.010  0.00  0.00    +0.039 C 
BRANCH   5   6
ATOM      6  C   UNL A   1      45.405 -15.207 -40.283  0.00  0.00    +0.020 C 
BRANCH   6   9
ATOM      7  C   UNL A   1      44.163 -17.317 -40.311  0.00  0.00    +0.246 C 
ATOM      8  O   UNL A   1      43.241 -16.850 -39.650  0.00  0.00    -0.270 OA
ATOM      9  N   UNL A   1      45.322 -16.621 -40.603  0.00  0.00    -0.311 N 
ATOM     10  H   UNL A   1      46.084 -17.080 -41.025  0.00  0.00    +0.000 HD
BRANCH   7  16
ATOM     11  C   UNL A   1      43.504 -19.736 -40.140  0.00  0.00    +0.044 A 
ATOM     12  C   UNL A   1      43.328 -20.978 -40.773  0.00  0.00    -0.040 A 
ATOM     13  C   UNL A   1      43.757 -21.189 -42.087  0.00  0.00    -0.060 A 
ATOM     14  C   UNL A   1      44.346 -20.154 -42.807  0.00  0.00    -0.061 A 
ATOM     15  C   UNL A   1      44.483 -18.895 -42.222  0.00  0.00    -0.048 A 
ATOM     16  C   UNL A   1      44.041 -18.676 -40.907  0.00  0.00    +0.058 A 
BRANCH  11  17
ATOM     17  N   UNL A   1      42.996 -19.510 -38.831  0.00  0.00    -0.314 N 
ATOM     18  H   UNL A   1      43.362 -18.727 -38.361  0.00  0.00    +0.000 HD
BRANCH  17  24
ATOM     19  C   UNL A   1      38.422 -19.879 -36.853  0.00  0.00    -0.039 C 
ATOM     20  C   UNL A   1      39.809 -20.409 -37.096  0.00  0.00    -0.046 A 
ATOM     21  C   UNL A   1      40.185 -21.616 -36.486  0.00  0.00    -0.058 A 
ATOM     22  C   UNL A   1      41.468 -22.129 -36.658  0.00  0.00    -0.060 A 
ATOM     23  C   UNL A   1      42.389 -21.446 -37.448  0.00  0.00    -0.040 A 
ATOM     24  C   UNL A   1      42.032 -20.264 -38.111  0.00  0.00    +0.035 A 
ATOM     25  C   UNL A   1      40.732 -19.731 -37.928  0.00  0.00    -0.026 A 
ATOM     26  C   UNL A   1      40.364 -18.419 -38.578  0.00  0.00    -0.038 C 
ENDBRANCH  17  24
ENDBRANCH  11  17
ENDBRANCH   7  16
ENDBRANCH   6   9
ENDBRANCH   5   6
ENDBRANCH   1   5
BRANCH   3  27
ATOM     27  C   UNL A   1      42.966 -13.576 -37.559  0.00  0.00    +0.012 C 
BRANCH  27  28
ATOM     28  C   UNL A   1      42.156 -14.606 -36.773  0.00  0.00    -0.036 C 
BRANCH  28  29
ATOM     29  C   UNL A   1      42.194 -14.373 -35.261  0.00  0.00    -0.036 C 
BRANCH  29  30
ATOM     30  C   UNL A   1      41.957 -15.676 -34.497  0.00  0.00    +0.009 C 
BRANCH  30  31
ATOM     31  N   UNL A   1      41.666 -16.750 -35.456  0.00  0.00    -0.343 N 
ATOM     32  H   UNL A   1      41.125 -16.634 -36.270  0.00  0.00    +0.000 HD
BRANCH  31  33
ATOM     33  C   UNL A   1      42.267 -17.982 -35.059  0.00  0.00    +0.041 A 
ATOM     34  C   UNL A   1      41.544 -18.832 -34.198  0.00  0.00    -0.005 A 
ATOM     35  C   UNL A   1      42.159 -20.015 -33.790  0.00  0.00    +0.047 A 
ATOM     36  N   UNL A   1      43.422 -20.352 -34.138  0.00  0.00    -0.251 NA
ATOM     37  C   UNL A   1      44.115 -19.536 -34.943  0.00  0.00    +0.073 A 
ATOM     38  C   UNL A   1      45.407 -19.910 -35.289  0.00  0.00    -0.036 A 
ATOM     39  C   UNL A   1      46.209 -19.127 -36.121  0.00  0.00    -0.060 A 
ATOM     40  C   UNL A   1      45.711 -17.936 -36.625  0.00  0.00    -0.061 A 
ATOM     41  C   UNL A   1      44.417 -17.538 -36.292  0.00  0.00    -0.051 A 
ATOM     42  C   UNL A   1      43.594 -18.325 -35.445  0.00  0.00    +0.021 A 
ATOM     43  C   UNL A   1      41.466 -20.989 -32.871  0.00  0.00    -0.010 C 
ATOM     44  C   UNL A   1      39.949 -20.843 -32.873  0.00  0.00    -0.047 C 
ATOM     45  C   UNL A   1      39.572 -19.382 -32.680  0.00  0.00    -0.049 C 
ATOM     46  C   UNL A   1      40.109 -18.532 -33.832  0.00  0.00    -0.024 C 
ENDBRANCH  31  33
ENDBRANCH  30  31
ENDBRANCH  29  30
ENDBRANCH  28  29
ENDBRANCH  27  28
ENDBRANCH   3  27
TORSDOF 12
ENDMDL
MODEL 20
REMARK VINA RESULT:    -6.862      2.444      7.221
REMARK INTER + INTRA:         -15.211
REMARK INTER:                  -9.817
REMARK INTRA:                  -5.395
REMARK UNBOUND:                -3.535
REMARK  Name = cpd32.pdb
REMARK  14 active torsions:
REMARK  status: ('A' for Active; 'I' for Inactive)
REMARK    1  A    between atoms: C_1  and  C_2
REMARK    2  A    between atoms: C_6  and  N_7
REMARK    3  A    between atoms: N_7  and  C_8
REMARK    4  A    between atoms: C_13  and  C_14
REMARK    5  A    between atoms: N_16  and  C_17
REMARK    6  A    between atoms: C_17  and  C_18
REMARK    7  A    between atoms: C_18  and  C_19
REMARK    8  A    between atoms: N_21  and  C_22
REMARK    9  A    between atoms: C_22  and  C_23
REMARK   10  A    between atoms: C_23  and  C_24
REMARK   11  A    between atoms: C_24  and  C_25
REMARK   12  A    between atoms: C_25  and  N_26
REMARK   13  A    between atoms: N_26  and  C_27
REMARK   14  A    between atoms: C_41  and  C_42
REMARK                            x       y       z     vdW  Elec       q    Type
REMARK                         _______ _______ _______ _____ _____    ______ ____
ROOT
ATOM      1  C   UNL A   1      44.408 -17.028 -35.189  0.00  0.00    +0.215 C 
ATOM      2  O   UNL A   1      43.718 -17.230 -36.182  0.00  0.00    -0.276 OA
ATOM      3  N   UNL A   1      44.333 -15.887 -34.421  0.00  0.00    -0.315 N 
ATOM      4  H   UNL A   1      44.939 -15.793 -33.651  0.00  0.00    +0.000 HD
ENDROOT
BRANCH   1   5
ATOM      5  C   UNL A   1      45.386 -18.055 -34.672  0.00  0.00    +0.039 C 
BRANCH   5   6
ATOM      6  C   UNL A   1      46.565 -18.145 -35.623  0.00  0.00    +0.020 C 
BRANCH   6   9
ATOM      7  C   UNL A   1      45.892 -19.907 -37.185  0.00  0.00    +0.246 C 
ATOM      8  O   UNL A   1      46.115 -20.795 -36.368  0.00  0.00    -0.270 OA
ATOM      9  N   UNL A   1      46.165 -18.570 -36.953  0.00  0.00    -0.311 N 
ATOM     10  H   UNL A   1      46.090 -17.914 -37.682  0.00  0.00    +0.000 HD
BRANCH   7  16
ATOM     11  C   UNL A   1      43.829 -20.422 -38.525  0.00  0.00    +0.044 A 
ATOM     12  C   UNL A   1      43.240 -20.637 -39.782  0.00  0.00    -0.040 A 
ATOM     13  C   UNL A   1      44.019 -20.753 -40.938  0.00  0.00    -0.060 A 
ATOM     14  C   UNL A   1      45.402 -20.627 -40.866  0.00  0.00    -0.061 A 
ATOM     15  C   UNL A   1      46.010 -20.359 -39.640  0.00  0.00    -0.048 A 
ATOM     16  C   UNL A   1      45.230 -20.229 -38.479  0.00  0.00    +0.058 A 
BRANCH  11  17
ATOM     17  N   UNL A   1      43.025 -20.231 -37.369  0.00  0.00    -0.314 N 
ATOM     18  H   UNL A   1      43.389 -19.615 -36.693  0.00  0.00    +0.000 HD
BRANCH  17  24
ATOM     19  C   UNL A   1      38.132 -19.689 -36.509  0.00  0.00    -0.039 C 
ATOM     20  C   UNL A   1      39.382 -20.524 -36.581  0.00  0.00    -0.046 A 
ATOM     21  C   UNL A   1      39.312 -21.875 -36.208  0.00  0.00    -0.058 A 
ATOM     22  C   UNL A   1      40.449 -22.678 -36.229  0.00  0.00    -0.060 A 
ATOM     23  C   UNL A   1      41.670 -22.142 -36.633  0.00  0.00    -0.040 A 
ATOM     24  C   UNL A   1      41.766 -20.810 -37.058  0.00  0.00    +0.035 A 
ATOM     25  C   UNL A   1      40.613 -19.986 -37.025  0.00  0.00    -0.026 A 
ATOM     26  C   UNL A   1      40.725 -18.531 -37.409  0.00  0.00    -0.038 C 
ENDBRANCH  17  24
ENDBRANCH  11  17
ENDBRANCH   7  16
ENDBRANCH   6   9
ENDBRANCH   5   6
ENDBRANCH   1   5
BRANCH   3  27
ATOM     27  C   UNL A   1      43.397 -14.821 -34.707  0.00  0.00    +0.012 C 
BRANCH  27  28
ATOM     28  C   UNL A   1      42.418 -14.573 -33.559  0.00  0.00    -0.036 C 
BRANCH  28  29
ATOM     29  C   UNL A   1      42.102 -15.837 -32.757  0.00  0.00    -0.036 C 
BRANCH  29  30
ATOM     30  C   UNL A   1      40.593 -16.071 -32.669  0.00  0.00    +0.009 C 
BRANCH  30  31
ATOM     31  N   UNL A   1      40.153 -16.817 -33.855  0.00  0.00    -0.343 N 
ATOM     32  H   UNL A   1      40.330 -16.539 -34.783  0.00  0.00    +0.000 HD
BRANCH  31  33
ATOM     33  C   UNL A   1      39.435 -17.997 -33.494  0.00  0.00    +0.041 A 
ATOM     34  C   UNL A   1      38.045 -17.898 -33.288  0.00  0.00    -0.005 A 
ATOM     35  C   UNL A   1      37.364 -19.051 -32.899  0.00  0.00    +0.047 A 
ATOM     36  N   UNL A   1      37.981 -20.232 -32.664  0.00  0.00    -0.251 NA
ATOM     37  C   UNL A   1      39.305 -20.322 -32.844  0.00  0.00    +0.073 A 
ATOM     38  C   UNL A   1      39.910 -21.548 -32.601  0.00  0.00    -0.036 A 
ATOM     39  C   UNL A   1      41.284 -21.742 -32.759  0.00  0.00    -0.060 A 
ATOM     40  C   UNL A   1      42.079 -20.684 -33.171  0.00  0.00    -0.061 A 
ATOM     41  C   UNL A   1      41.495 -19.443 -33.421  0.00  0.00    -0.051 A 
ATOM     42  C   UNL A   1      40.101 -19.235 -33.261  0.00  0.00    +0.021 A 
ATOM     43  C   UNL A   1      35.876 -19.045 -32.656  0.00  0.00    -0.010 C 
ATOM     44  C   UNL A   1      35.157 -17.896 -33.352  0.00  0.00    -0.047 C 
ATOM     45  C   UNL A   1      35.872 -16.586 -33.055  0.00  0.00    -0.049 C 
ATOM     46  C   UNL A   1      37.301 -16.620 -33.598  0.00  0.00    -0.024 C 
ENDBRANCH  31  33
ENDBRANCH  30  31
ENDBRANCH  29  30
ENDBRANCH  28  29
ENDBRANCH  27  28
ENDBRANCH   3  27
TORSDOF 12
ENDMDL
