REMARK  Name = cpd32.pdb
REMARK  14 active torsions:
REMARK  status: ('A' for Active; 'I' for Inactive)
REMARK    1  A    between atoms: C_1  and  C_2
REMARK    2  A    between atoms: C_6  and  N_7
REMARK    3  A    between atoms: N_7  and  C_8
REMARK    4  A    between atoms: C_13  and  C_14
REMARK    5  A    between atoms: N_16  and  C_17
REMARK    6  A    between atoms: C_17  and  C_18
REMARK    7  A    between atoms: C_18  and  C_19
REMARK    8  A    between atoms: N_21  and  C_22
REMARK    9  A    between atoms: C_22  and  C_23
REMARK   10  A    between atoms: C_23  and  C_24
REMARK   11  A    between atoms: C_24  and  C_25
REMARK   12  A    between atoms: C_25  and  N_26
REMARK   13  A    between atoms: N_26  and  C_27
REMARK   14  A    between atoms: C_41  and  C_42
REMARK                            x       y       z     vdW  Elec       q    Type
REMARK                         _______ _______ _______ _____ _____    ______ ____
ROOT
ATOM      1  C   UNL A   1       6.629   2.032   0.125  0.00  0.00    +0.215 C 
ATOM      2  O   UNL A   1       7.127   1.427   1.068  0.00  0.00    -0.276 OA
ATOM      3  N   UNL A   1       7.019   1.867  -1.185  0.00  0.00    -0.315 N 
ATOM      4  H   UNL A   1       6.582   2.408  -1.882  0.00  0.00    +0.000 HD
ENDROOT
BRANCH   1   5
ATOM      5  C   UNL A   1       5.481   2.994   0.309  0.00  0.00    +0.039 C 
BRANCH   5   6
ATOM      6  C   UNL A   1       4.174   2.268   0.049  0.00  0.00    +0.020 C 
BRANCH   6   9
ATOM      7  C   UNL A   1       1.801   2.758  -0.306  0.00  0.00    +0.246 C 
ATOM      8  O   UNL A   1       1.657   1.801  -1.060  0.00  0.00    -0.270 OA
ATOM      9  N   UNL A   1       3.022   3.134   0.226  0.00  0.00    -0.311 N 
ATOM     10  H   UNL A   1       3.109   3.981   0.720  0.00  0.00    +0.000 HD
BRANCH   7  16
ATOM     11  C   UNL A   1      -0.625   2.895   0.335  0.00  0.00    +0.044 A 
ATOM     12  C   UNL A   1      -1.689   3.660   0.841  0.00  0.00    -0.040 A 
ATOM     13  C   UNL A   1      -1.556   5.035   1.056  0.00  0.00    -0.060 A 
ATOM     14  C   UNL A   1      -0.346   5.671   0.797  0.00  0.00    -0.061 A 
ATOM     15  C   UNL A   1       0.744   4.927   0.346  0.00  0.00    -0.048 A 
ATOM     16  C   UNL A   1       0.617   3.543   0.141  0.00  0.00    +0.058 A 
BRANCH  11  17
ATOM     17  N   UNL A   1      -0.747   1.486   0.192  0.00  0.00    -0.314 N 
ATOM     18  H   UNL A   1       0.085   0.972   0.304  0.00  0.00    +0.000 HD
BRANCH  17  24
ATOM     19  C   UNL A   1      -3.214  -2.852   0.456  0.00  0.00    -0.039 C 
ATOM     20  C   UNL A   1      -3.083  -1.426  -0.007  0.00  0.00    -0.046 A 
ATOM     21  C   UNL A   1      -4.078  -0.895  -0.842  0.00  0.00    -0.058 A 
ATOM     22  C   UNL A   1      -3.983   0.409  -1.320  0.00  0.00    -0.060 A 
ATOM     23  C   UNL A   1      -2.896   1.202  -0.962  0.00  0.00    -0.040 A 
ATOM     24  C   UNL A   1      -1.909   0.720  -0.091  0.00  0.00    +0.035 A 
ATOM     25  C   UNL A   1      -1.995  -0.611   0.386  0.00  0.00    -0.026 A 
ATOM     26  C   UNL A   1      -0.897  -1.162   1.263  0.00  0.00    -0.038 C 
ENDBRANCH  17  24
ENDBRANCH  11  17
ENDBRANCH   7  16
ENDBRANCH   6   9
ENDBRANCH   5   6
ENDBRANCH   1   5
BRANCH   3  27
ATOM     27  C   UNL A   1       8.049   0.927  -1.575  0.00  0.00    +0.012 C 
BRANCH  27  28
ATOM     28  C   UNL A   1       9.412   1.591  -1.766  0.00  0.00    -0.036 C 
BRANCH  28  29
ATOM     29  C   UNL A   1      10.047   2.046  -0.450  0.00  0.00    -0.036 C 
BRANCH  29  30
ATOM     30  C   UNL A   1      11.466   2.570  -0.675  0.00  0.00    +0.009 C 
BRANCH  30  31
ATOM     31  N   UNL A   1      12.042   2.966   0.617  0.00  0.00    -0.343 N 
ATOM     32  H   UNL A   1      11.582   2.870   1.482  0.00  0.00    +0.000 HD
BRANCH  31  33
ATOM     33  C   UNL A   1      13.353   3.508   0.461  0.00  0.00    +0.041 A 
ATOM     34  C   UNL A   1      13.488   4.904   0.322  0.00  0.00    -0.005 A 
ATOM     35  C   UNL A   1      14.772   5.415   0.133  0.00  0.00    +0.047 A 
ATOM     36  N   UNL A   1      15.872   4.634   0.027  0.00  0.00    -0.251 NA
ATOM     37  C   UNL A   1      15.741   3.306   0.142  0.00  0.00    +0.073 A 
ATOM     38  C   UNL A   1      16.888   2.530   0.035  0.00  0.00    -0.036 A 
ATOM     39  C   UNL A   1      16.855   1.138   0.140  0.00  0.00    -0.060 A 
ATOM     40  C   UNL A   1      15.645   0.499   0.359  0.00  0.00    -0.061 A 
ATOM     41  C   UNL A   1      14.479   1.256   0.470  0.00  0.00    -0.051 A 
ATOM     42  C   UNL A   1      14.501   2.671   0.362  0.00  0.00    +0.021 A 
ATOM     43  C   UNL A   1      15.018   6.894  -0.024  0.00  0.00    -0.010 C 
ATOM     44  C   UNL A   1      13.898   7.754   0.548  0.00  0.00    -0.047 C 
ATOM     45  C   UNL A   1      12.554   7.258   0.035  0.00  0.00    -0.049 C 
ATOM     46  C   UNL A   1      12.301   5.822   0.496  0.00  0.00    -0.024 C 
ENDBRANCH  31  33
ENDBRANCH  30  31
ENDBRANCH  29  30
ENDBRANCH  28  29
ENDBRANCH  27  28
ENDBRANCH   3  27
TORSDOF 12
