REMARK  Name = cpd39.pdb
REMARK  18 active torsions:
REMARK  status: ('A' for Active; 'I' for Inactive)
REMARK    1  A    between atoms: C_1  and  C_2
REMARK    2  A    between atoms: C_6  and  N_7
REMARK    3  A    between atoms: N_7  and  C_8
REMARK    4  A    between atoms: C_13  and  C_14
REMARK    5  A    between atoms: N_16  and  C_17
REMARK    6  A    between atoms: C_17  and  C_18
REMARK    7  A    between atoms: C_18  and  C_19
REMARK    8  A    between atoms: C_19  and  C_20
REMARK    9  A    between atoms: N_22  and  C_23
REMARK   10  A    between atoms: C_23  and  C_24
REMARK   11  A    between atoms: C_24  and  C_25
REMARK   12  A    between atoms: C_25  and  C_26
REMARK   13  A    between atoms: C_26  and  C_27
REMARK   14  A    between atoms: C_27  and  C_28
REMARK   15  A    between atoms: C_28  and  C_29
REMARK   16  A    between atoms: C_29  and  N_30
REMARK   17  A    between atoms: N_30  and  C_31
REMARK   18  A    between atoms: C_45  and  C_46
REMARK                            x       y       z     vdW  Elec       q    Type
REMARK                         _______ _______ _______ _____ _____    ______ ____
ROOT
ATOM      1  C   UNL A   1      -4.993  -5.544  -0.397  0.00  0.00    +0.213 C 
ATOM      2  O   UNL A   1      -4.713  -6.281   0.541  0.00  0.00    -0.276 OA
ATOM      3  N   UNL A   1      -5.986  -5.816  -1.313  0.00  0.00    -0.315 N 
ATOM      4  H   UNL A   1      -6.153  -5.171  -2.037  0.00  0.00    +0.000 HD
ENDROOT
BRANCH   1   5
ATOM      5  C   UNL A   1      -4.299  -4.223  -0.668  0.00  0.00    +0.025 C 
BRANCH   5   6
ATOM      6  C   UNL A   1      -3.091  -4.006   0.243  0.00  0.00    -0.029 C 
BRANCH   6   7
ATOM      7  C   UNL A   1      -2.405  -2.662  -0.002  0.00  0.00    +0.012 C 
BRANCH   7  10
ATOM      8  C   UNL A   1      -0.777  -3.142  -1.881  0.00  0.00    +0.246 C 
ATOM      9  O   UNL A   1      -0.657  -3.276  -3.094  0.00  0.00    -0.270 OA
ATOM     10  N   UNL A   1      -1.893  -2.534  -1.359  0.00  0.00    -0.311 N 
ATOM     11  H   UNL A   1      -2.401  -1.950  -1.967  0.00  0.00    +0.000 HD
BRANCH   8  17
ATOM     12  C   UNL A   1       1.039  -2.741  -0.179  0.00  0.00    +0.044 A 
ATOM     13  C   UNL A   1       2.005  -3.303   0.672  0.00  0.00    -0.040 A 
ATOM     14  C   UNL A   1       2.250  -4.680   0.685  0.00  0.00    -0.060 A 
ATOM     15  C   UNL A   1       1.527  -5.529  -0.149  0.00  0.00    -0.061 A 
ATOM     16  C   UNL A   1       0.542  -5.004  -0.982  0.00  0.00    -0.048 A 
ATOM     17  C   UNL A   1       0.281  -3.626  -0.972  0.00  0.00    +0.058 A 
BRANCH  12  18
ATOM     18  N   UNL A   1       0.797  -1.345  -0.170  0.00  0.00    -0.314 N 
ATOM     19  H   UNL A   1      -0.144  -1.074  -0.272  0.00  0.00    +0.000 HD
BRANCH  18  25
ATOM     20  C   UNL A   1       1.792   3.424   0.969  0.00  0.00    -0.039 C 
ATOM     21  C   UNL A   1       2.205   2.060   0.485  0.00  0.00    -0.046 A 
ATOM     22  C   UNL A   1       3.533   1.866   0.077  0.00  0.00    -0.058 A 
ATOM     23  C   UNL A   1       3.958   0.629  -0.394  0.00  0.00    -0.060 A 
ATOM     24  C   UNL A   1       3.061  -0.434  -0.461  0.00  0.00    -0.040 A 
ATOM     25  C   UNL A   1       1.733  -0.286  -0.033  0.00  0.00    +0.035 A 
ATOM     26  C   UNL A   1       1.299   0.972   0.453  0.00  0.00    -0.026 A 
ATOM     27  C   UNL A   1      -0.136   1.158   0.885  0.00  0.00    -0.038 C 
ENDBRANCH  18  25
ENDBRANCH  12  18
ENDBRANCH   8  17
ENDBRANCH   7  10
ENDBRANCH   6   7
ENDBRANCH   5   6
ENDBRANCH   1   5
BRANCH   3  28
ATOM     28  C   UNL A   1      -6.792  -7.017  -1.248  0.00  0.00    +0.012 C 
BRANCH  28  29
ATOM     29  C   UNL A   1      -7.945  -6.913  -0.251  0.00  0.00    -0.037 C 
BRANCH  29  30
ATOM     30  C   UNL A   1      -8.907  -5.766  -0.575  0.00  0.00    -0.052 C 
BRANCH  30  31
ATOM     31  C   UNL A   1     -10.150  -5.814   0.317  0.00  0.00    -0.053 C 
BRANCH  31  32
ATOM     32  C   UNL A   1     -11.031  -4.580   0.106  0.00  0.00    -0.052 C 
BRANCH  32  33
ATOM     33  C   UNL A   1     -12.322  -4.624   0.928  0.00  0.00    -0.037 C 
BRANCH  33  34
ATOM     34  C   UNL A   1     -13.379  -5.549   0.319  0.00  0.00    +0.009 C 
BRANCH  34  35
ATOM     35  N   UNL A   1     -14.568  -5.556   1.185  0.00  0.00    -0.343 N 
ATOM     36  H   UNL A   1     -14.622  -5.103   2.057  0.00  0.00    +0.000 HD
BRANCH  35  37
ATOM     37  C   UNL A   1     -15.635  -6.305   0.599  0.00  0.00    +0.041 A 
ATOM     38  C   UNL A   1     -15.737  -7.679   0.893  0.00  0.00    -0.005 A 
ATOM     39  C   UNL A   1     -16.764  -8.397   0.279  0.00  0.00    +0.047 A 
ATOM     40  N   UNL A   1     -17.625  -7.846  -0.609  0.00  0.00    -0.251 NA
ATOM     41  C   UNL A   1     -17.516  -6.544  -0.900  0.00  0.00    +0.073 A 
ATOM     42  C   UNL A   1     -18.419  -6.006  -1.810  0.00  0.00    -0.036 A 
ATOM     43  C   UNL A   1     -18.385  -4.661  -2.182  0.00  0.00    -0.060 A 
ATOM     44  C   UNL A   1     -17.424  -3.826  -1.635  0.00  0.00    -0.061 A 
ATOM     45  C   UNL A   1     -16.507  -4.343  -0.720  0.00  0.00    -0.051 A 
ATOM     46  C   UNL A   1     -16.534  -5.708  -0.332  0.00  0.00    +0.021 A 
ATOM     47  C   UNL A   1     -16.954  -9.873   0.521  0.00  0.00    -0.010 C 
ATOM     48  C   UNL A   1     -16.315 -10.359   1.816  0.00  0.00    -0.047 C 
ATOM     49  C   UNL A   1     -14.882  -9.856   1.905  0.00  0.00    -0.049 C 
ATOM     50  C   UNL A   1     -14.851  -8.328   1.932  0.00  0.00    -0.024 C 
ENDBRANCH  35  37
ENDBRANCH  34  35
ENDBRANCH  33  34
ENDBRANCH  32  33
ENDBRANCH  31  32
ENDBRANCH  30  31
ENDBRANCH  29  30
ENDBRANCH  28  29
ENDBRANCH   3  28
TORSDOF 16
