MODEL 1
REMARK VINA RESULT:    -9.111      0.000      0.000
REMARK INTER + INTRA:         -12.416
REMARK INTER:                 -11.774
REMARK INTRA:                  -0.643
REMARK UNBOUND:                -0.643
REMARK  Name = cpd332.pdb
REMARK  5 active torsions:
REMARK  status: ('A' for Active; 'I' for Inactive)
REMARK    1  A    between atoms: C_2  and  C_3
REMARK    2  A    between atoms: C_2  and  C_20
REMARK    3  A    between atoms: C_4  and  C_5
REMARK    4  A    between atoms: N_8  and  C_9
REMARK    5  A    between atoms: C_9  and  C_10
REMARK                            x       y       z     vdW  Elec       q    Type
REMARK                         _______ _______ _______ _____ _____    ______ ____
ROOT
ATOM      1  C   UNL A   1      39.426 -37.321 -29.821  0.00  0.00    -0.022 A 
ATOM      2  C   UNL A   1      38.474 -37.905 -28.986  0.00  0.00    -0.038 A 
ATOM      3  C   UNL A   1      37.136 -37.544 -29.103  0.00  0.00    +0.005 A 
ATOM      4  N   UNL A   1      36.745 -36.631 -30.023  0.00  0.00    -0.349 N 
ATOM      5  C   UNL A   1      37.645 -36.072 -30.864  0.00  0.00    +0.005 A 
ATOM      6  C   UNL A   1      38.993 -36.406 -30.780  0.00  0.00    -0.038 A 
ENDROOT
BRANCH   1   8
ATOM      7  C   UNL A   1      41.722 -37.426 -30.762  0.00  0.00    -0.011 C 
ATOM      8  C   UNL A   1      40.851 -37.682 -29.774  0.00  0.00    -0.051 C 
BRANCH   7  10
ATOM      9  O   UNL A   1      43.919 -37.045 -31.391  0.00  0.00    -0.284 OA
ATOM     10  C   UNL A   1      43.169 -37.810 -30.781  0.00  0.00    +0.221 C 
BRANCH  10  11
ATOM     11  C   UNL A   1      43.651 -39.001 -30.113  0.00  0.00    +0.176 A 
ATOM     12  C   UNL A   1      44.046 -40.219 -30.642  0.00  0.00    -0.005 A 
ATOM     13  C   UNL A   1      44.461 -41.031 -29.557  0.00  0.00    +0.021 A 
ATOM     14  C   UNL A   1      44.953 -42.340 -29.411  0.00  0.00    -0.051 A 
ATOM     15  C   UNL A   1      45.269 -42.799 -28.124  0.00  0.00    -0.061 A 
ATOM     16  C   UNL A   1      45.102 -41.979 -27.005  0.00  0.00    -0.058 A 
ATOM     17  C   UNL A   1      44.614 -40.675 -27.131  0.00  0.00    -0.019 A 
ATOM     18  C   UNL A   1      44.308 -40.249 -28.421  0.00  0.00    +0.136 A 
ATOM     19  O   UNL A   1      43.825 -39.020 -28.754  0.00  0.00    -0.452 OA
ENDBRANCH  10  11
ENDBRANCH   7  10
ENDBRANCH   1   8
BRANCH   4  20
ATOM     20  C   UNL A   1      35.302 -36.287 -30.144  0.00  0.00    +0.049 C 
BRANCH  20  21
ATOM     21  C   UNL A   1      34.578 -37.093 -31.201  0.00  0.00    -0.008 A 
ATOM     22  C   UNL A   1      34.642 -38.500 -31.222  0.00  0.00    -0.055 A 
ATOM     23  C   UNL A   1      33.946 -39.237 -32.182  0.00  0.00    -0.060 A 
ATOM     24  C   UNL A   1      33.159 -38.588 -33.129  0.00  0.00    -0.042 A 
ATOM     25  C   UNL A   1      33.054 -37.197 -33.116  0.00  0.00    +0.060 A 
ATOM     26 CL   UNL A   1      32.046 -36.464 -34.311  0.00  0.00    -0.082 Cl
ATOM     27  C   UNL A   1      33.752 -36.448 -32.152  0.00  0.00    +0.064 A 
ATOM     28 CL   UNL A   1      33.592 -34.719 -32.110  0.00  0.00    -0.082 Cl
ENDBRANCH  20  21
ENDBRANCH   4  20
TORSDOF 5
ENDMDL
MODEL 2
REMARK VINA RESULT:    -8.457      2.920      3.750
REMARK INTER + INTRA:         -11.572
REMARK INTER:                 -10.884
REMARK INTRA:                  -0.688
REMARK UNBOUND:                -0.643
REMARK  Name = cpd332.pdb
REMARK  5 active torsions:
REMARK  status: ('A' for Active; 'I' for Inactive)
REMARK    1  A    between atoms: C_2  and  C_3
REMARK    2  A    between atoms: C_2  and  C_20
REMARK    3  A    between atoms: C_4  and  C_5
REMARK    4  A    between atoms: N_8  and  C_9
REMARK    5  A    between atoms: C_9  and  C_10
REMARK                            x       y       z     vdW  Elec       q    Type
REMARK                         _______ _______ _______ _____ _____    ______ ____
ROOT
ATOM      1  C   UNL A   1      38.434 -36.605 -30.570  0.00  0.00    -0.022 A 
ATOM      2  C   UNL A   1      37.466 -35.743 -31.084  0.00  0.00    -0.038 A 
ATOM      3  C   UNL A   1      36.118 -36.004 -30.862  0.00  0.00    +0.005 A 
ATOM      4  N   UNL A   1      35.733 -37.088 -30.147  0.00  0.00    -0.349 N 
ATOM      5  C   UNL A   1      36.655 -37.922 -29.614  0.00  0.00    +0.005 A 
ATOM      6  C   UNL A   1      38.012 -37.697 -29.813  0.00  0.00    -0.038 A 
ENDROOT
BRANCH   1   8
ATOM      7  C   UNL A   1      40.760 -37.329 -31.051  0.00  0.00    -0.011 C 
ATOM      8  C   UNL A   1      39.876 -36.370 -30.739  0.00  0.00    -0.051 C 
BRANCH   7  10
ATOM      9  O   UNL A   1      42.603 -36.144 -31.804  0.00  0.00    -0.284 OA
ATOM     10  C   UNL A   1      42.240 -37.150 -31.191  0.00  0.00    +0.221 C 
BRANCH  10  11
ATOM     11  C   UNL A   1      43.180 -38.097 -30.629  0.00  0.00    +0.176 A 
ATOM     12  C   UNL A   1      43.034 -39.450 -30.376  0.00  0.00    -0.005 A 
ATOM     13  C   UNL A   1      44.267 -39.913 -29.849  0.00  0.00    +0.021 A 
ATOM     14  C   UNL A   1      44.767 -41.146 -29.396  0.00  0.00    -0.051 A 
ATOM     15  C   UNL A   1      46.091 -41.206 -28.938  0.00  0.00    -0.061 A 
ATOM     16  C   UNL A   1      46.904 -40.069 -28.932  0.00  0.00    -0.058 A 
ATOM     17  C   UNL A   1      46.424 -38.834 -29.380  0.00  0.00    -0.019 A 
ATOM     18  C   UNL A   1      45.105 -38.807 -29.827  0.00  0.00    +0.136 A 
ATOM     19  O   UNL A   1      44.454 -37.710 -30.301  0.00  0.00    -0.452 OA
ENDBRANCH  10  11
ENDBRANCH   7  10
ENDBRANCH   1   8
BRANCH   4  20
ATOM     20  C   UNL A   1      34.285 -37.324 -29.901  0.00  0.00    +0.049 C 
BRANCH  20  21
ATOM     21  C   UNL A   1      33.960 -37.609 -28.450  0.00  0.00    -0.008 A 
ATOM     22  C   UNL A   1      34.041 -36.602 -27.469  0.00  0.00    -0.055 A 
ATOM     23  C   UNL A   1      33.710 -36.867 -26.139  0.00  0.00    -0.060 A 
ATOM     24  C   UNL A   1      33.276 -38.134 -25.763  0.00  0.00    -0.042 A 
ATOM     25  C   UNL A   1      33.158 -39.144 -26.718  0.00  0.00    +0.060 A 
ATOM     26 CL   UNL A   1      32.597 -40.686 -26.180  0.00  0.00    -0.082 Cl
ATOM     27  C   UNL A   1      33.490 -38.886 -28.060  0.00  0.00    +0.064 A 
ATOM     28 CL   UNL A   1      33.309 -40.131 -29.257  0.00  0.00    -0.082 Cl
ENDBRANCH  20  21
ENDBRANCH   4  20
TORSDOF 5
ENDMDL
MODEL 3
REMARK VINA RESULT:    -8.416      6.001      8.323
REMARK INTER + INTRA:         -11.518
REMARK INTER:                 -10.960
REMARK INTRA:                  -0.558
REMARK UNBOUND:                -0.643
REMARK  Name = cpd332.pdb
REMARK  5 active torsions:
REMARK  status: ('A' for Active; 'I' for Inactive)
REMARK    1  A    between atoms: C_2  and  C_3
REMARK    2  A    between atoms: C_2  and  C_20
REMARK    3  A    between atoms: C_4  and  C_5
REMARK    4  A    between atoms: N_8  and  C_9
REMARK    5  A    between atoms: C_9  and  C_10
REMARK                            x       y       z     vdW  Elec       q    Type
REMARK                         _______ _______ _______ _____ _____    ______ ____
ROOT
ATOM      1  C   UNL A   1      34.030 -36.491 -27.602  0.00  0.00    -0.022 A 
ATOM      2  C   UNL A   1      32.895 -35.869 -27.081  0.00  0.00    -0.038 A 
ATOM      3  C   UNL A   1      32.308 -36.360 -25.919  0.00  0.00    +0.005 A 
ATOM      4  N   UNL A   1      32.828 -37.437 -25.285  0.00  0.00    -0.349 N 
ATOM      5  C   UNL A   1      33.944 -38.039 -25.754  0.00  0.00    +0.005 A 
ATOM      6  C   UNL A   1      34.562 -37.580 -26.912  0.00  0.00    -0.038 A 
ENDROOT
BRANCH   1   8
ATOM      7  C   UNL A   1      35.897 -36.479 -29.239  0.00  0.00    -0.011 C 
ATOM      8  C   UNL A   1      34.719 -36.004 -28.805  0.00  0.00    -0.051 C 
BRANCH   7  10
ATOM      9  O   UNL A   1      36.055 -35.210 -31.170  0.00  0.00    -0.284 OA
ATOM     10  C   UNL A   1      36.660 -35.988 -30.430  0.00  0.00    +0.221 C 
BRANCH  10  11
ATOM     11  C   UNL A   1      38.026 -36.396 -30.682  0.00  0.00    +0.176 A 
ATOM     12  C   UNL A   1      38.910 -37.090 -29.873  0.00  0.00    -0.005 A 
ATOM     13  C   UNL A   1      40.109 -37.257 -30.610  0.00  0.00    +0.021 A 
ATOM     14  C   UNL A   1      41.362 -37.850 -30.372  0.00  0.00    -0.051 A 
ATOM     15  C   UNL A   1      42.325 -37.815 -31.391  0.00  0.00    -0.061 A 
ATOM     16  C   UNL A   1      42.053 -37.209 -32.620  0.00  0.00    -0.058 A 
ATOM     17  C   UNL A   1      40.813 -36.615 -32.875  0.00  0.00    -0.019 A 
ATOM     18  C   UNL A   1      39.878 -36.664 -31.843  0.00  0.00    +0.136 A 
ATOM     19  O   UNL A   1      38.620 -36.148 -31.892  0.00  0.00    -0.452 OA
ENDBRANCH  10  11
ENDBRANCH   7  10
ENDBRANCH   1   8
BRANCH   4  20
ATOM     20  C   UNL A   1      32.194 -37.921 -24.028  0.00  0.00    +0.049 C 
BRANCH  20  21
ATOM     21  C   UNL A   1      33.133 -37.915 -22.841  0.00  0.00    -0.008 A 
ATOM     22  C   UNL A   1      34.041 -36.859 -22.629  0.00  0.00    -0.055 A 
ATOM     23  C   UNL A   1      34.881 -36.847 -21.514  0.00  0.00    -0.060 A 
ATOM     24  C   UNL A   1      34.822 -37.876 -20.580  0.00  0.00    -0.042 A 
ATOM     25  C   UNL A   1      33.913 -38.921 -20.748  0.00  0.00    +0.060 A 
ATOM     26 CL   UNL A   1      33.885 -40.154 -19.539  0.00  0.00    -0.082 Cl
ATOM     27  C   UNL A   1      33.063 -38.941 -21.868  0.00  0.00    +0.064 A 
ATOM     28 CL   UNL A   1      31.905 -40.220 -22.059  0.00  0.00    -0.082 Cl
ENDBRANCH  20  21
ENDBRANCH   4  20
TORSDOF 5
ENDMDL
MODEL 4
REMARK VINA RESULT:    -8.281      5.530      7.902
REMARK INTER + INTRA:         -11.344
REMARK INTER:                 -10.609
REMARK INTRA:                  -0.735
REMARK UNBOUND:                -0.643
REMARK  Name = cpd332.pdb
REMARK  5 active torsions:
REMARK  status: ('A' for Active; 'I' for Inactive)
REMARK    1  A    between atoms: C_2  and  C_3
REMARK    2  A    between atoms: C_2  and  C_20
REMARK    3  A    between atoms: C_4  and  C_5
REMARK    4  A    between atoms: N_8  and  C_9
REMARK    5  A    between atoms: C_9  and  C_10
REMARK                            x       y       z     vdW  Elec       q    Type
REMARK                         _______ _______ _______ _____ _____    ______ ____
ROOT
ATOM      1  C   UNL A   1      33.782 -33.673 -30.009  0.00  0.00    -0.022 A 
ATOM      2  C   UNL A   1      33.718 -32.297 -30.235  0.00  0.00    -0.038 A 
ATOM      3  C   UNL A   1      32.518 -31.715 -30.628  0.00  0.00    +0.005 A 
ATOM      4  N   UNL A   1      31.406 -32.469 -30.792  0.00  0.00    -0.349 N 
ATOM      5  C   UNL A   1      31.435 -33.800 -30.550  0.00  0.00    +0.005 A 
ATOM      6  C   UNL A   1      32.615 -34.421 -30.156  0.00  0.00    -0.038 A 
ENDROOT
BRANCH   1   8
ATOM      7  C   UNL A   1      35.209 -35.671 -29.638  0.00  0.00    -0.011 C 
ATOM      8  C   UNL A   1      35.009 -34.346 -29.559  0.00  0.00    -0.051 C 
BRANCH   7  10
ATOM      9  O   UNL A   1      36.316 -36.942 -28.049  0.00  0.00    -0.284 OA
ATOM     10  C   UNL A   1      36.419 -36.409 -29.156  0.00  0.00    +0.221 C 
BRANCH  10  11
ATOM     11  C   UNL A   1      37.626 -36.498 -29.950  0.00  0.00    +0.176 A 
ATOM     12  C   UNL A   1      37.889 -36.020 -31.223  0.00  0.00    -0.005 A 
ATOM     13  C   UNL A   1      39.236 -36.347 -31.523  0.00  0.00    +0.021 A 
ATOM     14  C   UNL A   1      40.096 -36.160 -32.619  0.00  0.00    -0.051 A 
ATOM     15  C   UNL A   1      41.411 -36.639 -32.530  0.00  0.00    -0.061 A 
ATOM     16  C   UNL A   1      41.865 -37.288 -31.378  0.00  0.00    -0.058 A 
ATOM     17  C   UNL A   1      41.024 -37.483 -30.278  0.00  0.00    -0.019 A 
ATOM     18  C   UNL A   1      39.724 -36.997 -30.398  0.00  0.00    +0.136 A 
ATOM     19  O   UNL A   1      38.756 -37.085 -29.445  0.00  0.00    -0.452 OA
ENDBRANCH  10  11
ENDBRANCH   7  10
ENDBRANCH   1   8
BRANCH   4  20
ATOM     20  C   UNL A   1      30.129 -31.813 -31.185  0.00  0.00    +0.049 C 
BRANCH  20  21
ATOM     21  C   UNL A   1      29.525 -30.967 -30.085  0.00  0.00    -0.008 A 
ATOM     22  C   UNL A   1      29.378 -31.462 -28.775  0.00  0.00    -0.055 A 
ATOM     23  C   UNL A   1      28.849 -30.664 -27.759  0.00  0.00    -0.060 A 
ATOM     24  C   UNL A   1      28.472 -29.351 -28.025  0.00  0.00    -0.042 A 
ATOM     25  C   UNL A   1      28.633 -28.823 -29.305  0.00  0.00    +0.060 A 
ATOM     26 CL   UNL A   1      28.158 -27.181 -29.555  0.00  0.00    -0.082 Cl
ATOM     27  C   UNL A   1      29.164 -29.621 -30.334  0.00  0.00    +0.064 A 
ATOM     28 CL   UNL A   1      29.400 -28.954 -31.920  0.00  0.00    -0.082 Cl
ENDBRANCH  20  21
ENDBRANCH   4  20
TORSDOF 5
ENDMDL
MODEL 5
REMARK VINA RESULT:    -8.185      5.114      7.323
REMARK INTER + INTRA:         -11.220
REMARK INTER:                 -10.677
REMARK INTRA:                  -0.543
REMARK UNBOUND:                -0.643
REMARK  Name = cpd332.pdb
REMARK  5 active torsions:
REMARK  status: ('A' for Active; 'I' for Inactive)
REMARK    1  A    between atoms: C_2  and  C_3
REMARK    2  A    between atoms: C_2  and  C_20
REMARK    3  A    between atoms: C_4  and  C_5
REMARK    4  A    between atoms: N_8  and  C_9
REMARK    5  A    between atoms: C_9  and  C_10
REMARK                            x       y       z     vdW  Elec       q    Type
REMARK                         _______ _______ _______ _____ _____    ______ ____
ROOT
ATOM      1  C   UNL A   1      34.320 -33.761 -29.761  0.00  0.00    -0.022 A 
ATOM      2  C   UNL A   1      33.154 -33.766 -28.996  0.00  0.00    -0.038 A 
ATOM      3  C   UNL A   1      32.259 -32.705 -29.091  0.00  0.00    +0.005 A 
ATOM      4  N   UNL A   1      32.506 -31.666 -29.922  0.00  0.00    -0.349 N 
ATOM      5  C   UNL A   1      33.615 -31.652 -30.696  0.00  0.00    +0.005 A 
ATOM      6  C   UNL A   1      34.535 -32.692 -30.631  0.00  0.00    -0.038 A 
ENDROOT
BRANCH   1   8
ATOM      7  C   UNL A   1      35.276 -35.896 -30.594  0.00  0.00    -0.011 C 
ATOM      8  C   UNL A   1      35.290 -34.865 -29.735  0.00  0.00    -0.051 C 
BRANCH   7  10
ATOM      9  O   UNL A   1      35.685 -38.173 -30.475  0.00  0.00    -0.284 OA
ATOM     10  C   UNL A   1      36.213 -37.064 -30.582  0.00  0.00    +0.221 C 
BRANCH  10  11
ATOM     11  C   UNL A   1      37.646 -36.895 -30.703  0.00  0.00    +0.176 A 
ATOM     12  C   UNL A   1      38.669 -37.397 -29.916  0.00  0.00    -0.005 A 
ATOM     13  C   UNL A   1      39.890 -36.958 -30.488  0.00  0.00    +0.021 A 
ATOM     14  C   UNL A   1      41.254 -37.108 -30.183  0.00  0.00    -0.051 A 
ATOM     15  C   UNL A   1      42.200 -36.506 -31.025  0.00  0.00    -0.061 A 
ATOM     16  C   UNL A   1      41.803 -35.772 -32.147  0.00  0.00    -0.058 A 
ATOM     17  C   UNL A   1      40.451 -35.613 -32.466  0.00  0.00    -0.019 A 
ATOM     18  C   UNL A   1      39.537 -36.221 -31.610  0.00  0.00    +0.136 A 
ATOM     19  O   UNL A   1      38.183 -36.186 -31.745  0.00  0.00    -0.452 OA
ENDBRANCH  10  11
ENDBRANCH   7  10
ENDBRANCH   1   8
BRANCH   4  20
ATOM     20  C   UNL A   1      31.515 -30.560 -30.023  0.00  0.00    +0.049 C 
BRANCH  20  21
ATOM     21  C   UNL A   1      30.285 -30.926 -30.826  0.00  0.00    -0.008 A 
ATOM     22  C   UNL A   1      30.292 -32.011 -31.723  0.00  0.00    -0.055 A 
ATOM     23  C   UNL A   1      29.144 -32.361 -32.437  0.00  0.00    -0.060 A 
ATOM     24  C   UNL A   1      27.963 -31.649 -32.257  0.00  0.00    -0.042 A 
ATOM     25  C   UNL A   1      27.917 -30.587 -31.353  0.00  0.00    +0.060 A 
ATOM     26 CL   UNL A   1      26.412 -29.761 -31.171  0.00  0.00    -0.082 Cl
ATOM     27  C   UNL A   1      29.069 -30.228 -30.632  0.00  0.00    +0.064 A 
ATOM     28 CL   UNL A   1      29.005 -28.931 -29.478  0.00  0.00    -0.082 Cl
ENDBRANCH  20  21
ENDBRANCH   4  20
TORSDOF 5
ENDMDL
MODEL 6
REMARK VINA RESULT:    -8.046      5.122      7.469
REMARK INTER + INTRA:         -11.040
REMARK INTER:                 -10.332
REMARK INTRA:                  -0.708
REMARK UNBOUND:                -0.643
REMARK  Name = cpd332.pdb
REMARK  5 active torsions:
REMARK  status: ('A' for Active; 'I' for Inactive)
REMARK    1  A    between atoms: C_2  and  C_3
REMARK    2  A    between atoms: C_2  and  C_20
REMARK    3  A    between atoms: C_4  and  C_5
REMARK    4  A    between atoms: N_8  and  C_9
REMARK    5  A    between atoms: C_9  and  C_10
REMARK                            x       y       z     vdW  Elec       q    Type
REMARK                         _______ _______ _______ _____ _____    ______ ____
ROOT
ATOM      1  C   UNL A   1      34.264 -33.722 -29.816  0.00  0.00    -0.022 A 
ATOM      2  C   UNL A   1      34.364 -32.588 -30.622  0.00  0.00    -0.038 A 
ATOM      3  C   UNL A   1      33.377 -31.609 -30.564  0.00  0.00    +0.005 A 
ATOM      4  N   UNL A   1      32.319 -31.743 -29.731  0.00  0.00    -0.349 N 
ATOM      5  C   UNL A   1      32.216 -32.820 -28.918  0.00  0.00    +0.005 A 
ATOM      6  C   UNL A   1      33.180 -33.821 -28.945  0.00  0.00    -0.038 A 
ENDROOT
BRANCH   1   8
ATOM      7  C   UNL A   1      35.058 -36.049 -30.163  0.00  0.00    -0.011 C 
ATOM      8  C   UNL A   1      35.288 -34.777 -29.802  0.00  0.00    -0.051 C 
BRANCH   7  10
ATOM      9  O   UNL A   1      35.608 -38.269 -29.794  0.00  0.00    -0.284 OA
ATOM     10  C   UNL A   1      36.053 -37.168 -30.126  0.00  0.00    +0.221 C 
BRANCH  10  11
ATOM     11  C   UNL A   1      37.444 -36.966 -30.473  0.00  0.00    +0.176 A 
ATOM     12  C   UNL A   1      38.592 -37.371 -29.813  0.00  0.00    -0.005 A 
ATOM     13  C   UNL A   1      39.696 -36.942 -30.593  0.00  0.00    +0.021 A 
ATOM     14  C   UNL A   1      41.095 -37.025 -30.486  0.00  0.00    -0.051 A 
ATOM     15  C   UNL A   1      41.880 -36.463 -31.503  0.00  0.00    -0.061 A 
ATOM     16  C   UNL A   1      41.292 -35.834 -32.604  0.00  0.00    -0.058 A 
ATOM     17  C   UNL A   1      39.902 -35.742 -32.727  0.00  0.00    -0.019 A 
ATOM     18  C   UNL A   1      39.150 -36.308 -31.701  0.00  0.00    +0.136 A 
ATOM     19  O   UNL A   1      37.791 -36.325 -31.634  0.00  0.00    -0.452 OA
ENDBRANCH  10  11
ENDBRANCH   7  10
ENDBRANCH   1   8
BRANCH   4  20
ATOM     20  C   UNL A   1      31.295 -30.665 -29.670  0.00  0.00    +0.049 C 
BRANCH  20  21
ATOM     21  C   UNL A   1      29.895 -31.179 -29.412  0.00  0.00    -0.008 A 
ATOM     22  C   UNL A   1      29.269 -31.008 -28.163  0.00  0.00    -0.055 A 
ATOM     23  C   UNL A   1      27.966 -31.458 -27.944  0.00  0.00    -0.060 A 
ATOM     24  C   UNL A   1      27.255 -32.072 -28.970  0.00  0.00    -0.042 A 
ATOM     25  C   UNL A   1      27.838 -32.230 -30.227  0.00  0.00    +0.060 A 
ATOM     26 CL   UNL A   1      26.888 -32.986 -31.456  0.00  0.00    -0.082 Cl
ATOM     27  C   UNL A   1      29.150 -31.780 -30.455  0.00  0.00    +0.064 A 
ATOM     28 CL   UNL A   1      29.865 -31.942 -32.030  0.00  0.00    -0.082 Cl
ENDBRANCH  20  21
ENDBRANCH   4  20
TORSDOF 5
ENDMDL
MODEL 7
REMARK VINA RESULT:    -7.982      4.399      6.635
REMARK INTER + INTRA:         -10.957
REMARK INTER:                 -10.269
REMARK INTRA:                  -0.688
REMARK UNBOUND:                -0.643
REMARK  Name = cpd332.pdb
REMARK  5 active torsions:
REMARK  status: ('A' for Active; 'I' for Inactive)
REMARK    1  A    between atoms: C_2  and  C_3
REMARK    2  A    between atoms: C_2  and  C_20
REMARK    3  A    between atoms: C_4  and  C_5
REMARK    4  A    between atoms: N_8  and  C_9
REMARK    5  A    between atoms: C_9  and  C_10
REMARK                            x       y       z     vdW  Elec       q    Type
REMARK                         _______ _______ _______ _____ _____    ______ ____
ROOT
ATOM      1  C   UNL A   1      33.934 -35.719 -28.672  0.00  0.00    -0.022 A 
ATOM      2  C   UNL A   1      34.108 -34.398 -29.088  0.00  0.00    -0.038 A 
ATOM      3  C   UNL A   1      33.051 -33.499 -28.995  0.00  0.00    +0.005 A 
ATOM      4  N   UNL A   1      31.852 -33.890 -28.503  0.00  0.00    -0.349 N 
ATOM      5  C   UNL A   1      31.668 -35.158 -28.066  0.00  0.00    +0.005 A 
ATOM      6  C   UNL A   1      32.699 -36.088 -28.141  0.00  0.00    -0.038 A 
ENDROOT
BRANCH   1   8
ATOM      7  C   UNL A   1      36.197 -36.510 -29.320  0.00  0.00    -0.011 C 
ATOM      8  C   UNL A   1      35.018 -36.711 -28.711  0.00  0.00    -0.051 C 
BRANCH   7  10
ATOM      9  O   UNL A   1      37.076 -38.627 -28.980  0.00  0.00    -0.284 OA
ATOM     10  C   UNL A   1      37.314 -37.502 -29.425  0.00  0.00    +0.221 C 
BRANCH  10  11
ATOM     11  C   UNL A   1      38.586 -37.158 -30.024  0.00  0.00    +0.176 A 
ATOM     12  C   UNL A   1      38.943 -36.053 -30.779  0.00  0.00    -0.005 A 
ATOM     13  C   UNL A   1      40.319 -36.187 -31.094  0.00  0.00    +0.021 A 
ATOM     14  C   UNL A   1      41.263 -35.437 -31.815  0.00  0.00    -0.051 A 
ATOM     15  C   UNL A   1      42.579 -35.915 -31.898  0.00  0.00    -0.061 A 
ATOM     16  C   UNL A   1      42.952 -37.110 -31.276  0.00  0.00    -0.058 A 
ATOM     17  C   UNL A   1      42.026 -37.869 -30.554  0.00  0.00    -0.019 A 
ATOM     18  C   UNL A   1      40.728 -37.369 -30.492  0.00  0.00    +0.136 A 
ATOM     19  O   UNL A   1      39.686 -37.955 -29.841  0.00  0.00    -0.452 OA
ENDBRANCH  10  11
ENDBRANCH   7  10
ENDBRANCH   1   8
BRANCH   4  20
ATOM     20  C   UNL A   1      30.749 -32.897 -28.389  0.00  0.00    +0.049 C 
BRANCH  20  21
ATOM     21  C   UNL A   1      30.231 -32.419 -29.729  0.00  0.00    -0.008 A 
ATOM     22  C   UNL A   1      29.809 -33.327 -30.719  0.00  0.00    -0.055 A 
ATOM     23  C   UNL A   1      29.303 -32.875 -31.939  0.00  0.00    -0.060 A 
ATOM     24  C   UNL A   1      29.192 -31.511 -32.191  0.00  0.00    -0.042 A 
ATOM     25  C   UNL A   1      29.575 -30.588 -31.218  0.00  0.00    +0.060 A 
ATOM     26 CL   UNL A   1      29.393 -28.913 -31.596  0.00  0.00    -0.082 Cl
ATOM     27  C   UNL A   1      30.086 -31.034 -29.987  0.00  0.00    +0.064 A 
ATOM     28 CL   UNL A   1      30.529 -29.887 -28.760  0.00  0.00    -0.082 Cl
ENDBRANCH  20  21
ENDBRANCH   4  20
TORSDOF 5
ENDMDL
MODEL 8
REMARK VINA RESULT:    -7.923      5.737      7.911
REMARK INTER + INTRA:         -10.881
REMARK INTER:                 -10.388
REMARK INTRA:                  -0.494
REMARK UNBOUND:                -0.643
REMARK  Name = cpd332.pdb
REMARK  5 active torsions:
REMARK  status: ('A' for Active; 'I' for Inactive)
REMARK    1  A    between atoms: C_2  and  C_3
REMARK    2  A    between atoms: C_2  and  C_20
REMARK    3  A    between atoms: C_4  and  C_5
REMARK    4  A    between atoms: N_8  and  C_9
REMARK    5  A    between atoms: C_9  and  C_10
REMARK                            x       y       z     vdW  Elec       q    Type
REMARK                         _______ _______ _______ _____ _____    ______ ____
ROOT
ATOM      1  C   UNL A   1      34.129 -36.478 -27.825  0.00  0.00    -0.022 A 
ATOM      2  C   UNL A   1      32.882 -36.029 -27.387  0.00  0.00    -0.038 A 
ATOM      3  C   UNL A   1      32.430 -36.371 -26.117  0.00  0.00    +0.005 A 
ATOM      4  N   UNL A   1      33.189 -37.135 -25.296  0.00  0.00    -0.349 N 
ATOM      5  C   UNL A   1      34.413 -37.557 -25.687  0.00  0.00    +0.005 A 
ATOM      6  C   UNL A   1      34.902 -37.237 -26.949  0.00  0.00    -0.038 A 
ENDROOT
BRANCH   1   8
ATOM      7  C   UNL A   1      35.976 -36.250 -29.468  0.00  0.00    -0.011 C 
ATOM      8  C   UNL A   1      34.681 -36.125 -29.141  0.00  0.00    -0.051 C 
BRANCH   7  10
ATOM      9  O   UNL A   1      35.837 -35.338 -31.593  0.00  0.00    -0.284 OA
ATOM     10  C   UNL A   1      36.595 -35.865 -30.776  0.00  0.00    +0.221 C 
BRANCH  10  11
ATOM     11  C   UNL A   1      37.999 -36.090 -31.052  0.00  0.00    +0.176 A 
ATOM     12  C   UNL A   1      38.838 -35.462 -31.957  0.00  0.00    -0.005 A 
ATOM     13  C   UNL A   1      40.124 -36.038 -31.804  0.00  0.00    +0.021 A 
ATOM     14  C   UNL A   1      41.383 -35.861 -32.404  0.00  0.00    -0.051 A 
ATOM     15  C   UNL A   1      42.456 -36.647 -31.957  0.00  0.00    -0.061 A 
ATOM     16  C   UNL A   1      42.286 -37.586 -30.936  0.00  0.00    -0.058 A 
ATOM     17  C   UNL A   1      41.041 -37.775 -30.327  0.00  0.00    -0.019 A 
ATOM     18  C   UNL A   1      39.996 -36.981 -30.794  0.00  0.00    +0.136 A 
ATOM     19  O   UNL A   1      38.715 -37.011 -30.334  0.00  0.00    -0.452 OA
ENDBRANCH  10  11
ENDBRANCH   7  10
ENDBRANCH   1   8
BRANCH   4  20
ATOM     20  C   UNL A   1      32.691 -37.459 -23.932  0.00  0.00    +0.049 C 
BRANCH  20  21
ATOM     21  C   UNL A   1      33.049 -38.858 -23.478  0.00  0.00    -0.008 A 
ATOM     22  C   UNL A   1      32.709 -39.988 -24.247  0.00  0.00    -0.055 A 
ATOM     23  C   UNL A   1      33.072 -41.272 -23.837  0.00  0.00    -0.060 A 
ATOM     24  C   UNL A   1      33.794 -41.455 -22.662  0.00  0.00    -0.042 A 
ATOM     25  C   UNL A   1      34.170 -40.353 -21.894  0.00  0.00    +0.060 A 
ATOM     26 CL   UNL A   1      35.080 -40.656 -20.458  0.00  0.00    -0.082 Cl
ATOM     27  C   UNL A   1      33.809 -39.056 -22.301  0.00  0.00    +0.064 A 
ATOM     28 CL   UNL A   1      34.308 -37.680 -21.367  0.00  0.00    -0.082 Cl
ENDBRANCH  20  21
ENDBRANCH   4  20
TORSDOF 5
ENDMDL
MODEL 9
REMARK VINA RESULT:    -7.833     18.167     19.807
REMARK INTER + INTRA:         -10.765
REMARK INTER:                  -9.998
REMARK INTRA:                  -0.767
REMARK UNBOUND:                -0.643
REMARK  Name = cpd332.pdb
REMARK  5 active torsions:
REMARK  status: ('A' for Active; 'I' for Inactive)
REMARK    1  A    between atoms: C_2  and  C_3
REMARK    2  A    between atoms: C_2  and  C_20
REMARK    3  A    between atoms: C_4  and  C_5
REMARK    4  A    between atoms: N_8  and  C_9
REMARK    5  A    between atoms: C_9  and  C_10
REMARK                            x       y       z     vdW  Elec       q    Type
REMARK                         _______ _______ _______ _____ _____    ______ ____
ROOT
ATOM      1  C   UNL A   1      42.321 -21.000 -36.621  0.00  0.00    -0.022 A 
ATOM      2  C   UNL A   1      41.131 -21.700 -36.421  0.00  0.00    -0.038 A 
ATOM      3  C   UNL A   1      40.567 -21.757 -35.151  0.00  0.00    +0.005 A 
ATOM      4  N   UNL A   1      41.159 -21.138 -34.104  0.00  0.00    -0.349 N 
ATOM      5  C   UNL A   1      42.297 -20.428 -34.279  0.00  0.00    +0.005 A 
ATOM      6  C   UNL A   1      42.894 -20.346 -35.532  0.00  0.00    -0.038 A 
ENDROOT
BRANCH   1   8
ATOM      7  C   UNL A   1      43.243 -19.697 -38.523  0.00  0.00    -0.011 C 
ATOM      8  C   UNL A   1      42.952 -20.871 -37.943  0.00  0.00    -0.051 C 
BRANCH   7  10
ATOM      9  O   UNL A   1      43.480 -18.506 -40.496  0.00  0.00    -0.284 OA
ATOM     10  C   UNL A   1      43.845 -19.511 -39.881  0.00  0.00    +0.221 C 
BRANCH  10  11
ATOM     11  C   UNL A   1      44.803 -20.449 -40.427  0.00  0.00    +0.176 A 
ATOM     12  C   UNL A   1      44.723 -21.245 -41.557  0.00  0.00    -0.005 A 
ATOM     13  C   UNL A   1      45.946 -21.955 -41.657  0.00  0.00    +0.021 A 
ATOM     14  C   UNL A   1      46.490 -22.902 -42.542  0.00  0.00    -0.051 A 
ATOM     15  C   UNL A   1      47.785 -23.382 -42.299  0.00  0.00    -0.061 A 
ATOM     16  C   UNL A   1      48.527 -22.932 -41.203  0.00  0.00    -0.058 A 
ATOM     17  C   UNL A   1      48.002 -21.990 -40.312  0.00  0.00    -0.019 A 
ATOM     18  C   UNL A   1      46.714 -21.534 -40.580  0.00  0.00    +0.136 A 
ATOM     19  O   UNL A   1      46.029 -20.621 -39.839  0.00  0.00    -0.452 OA
ENDBRANCH  10  11
ENDBRANCH   7  10
ENDBRANCH   1   8
BRANCH   4  20
ATOM     20  C   UNL A   1      40.515 -21.193 -32.763  0.00  0.00    +0.049 C 
BRANCH  20  21
ATOM     21  C   UNL A   1      39.090 -20.684 -32.759  0.00  0.00    -0.008 A 
ATOM     22  C   UNL A   1      37.995 -21.569 -32.791  0.00  0.00    -0.055 A 
ATOM     23  C   UNL A   1      36.683 -21.091 -32.756  0.00  0.00    -0.060 A 
ATOM     24  C   UNL A   1      36.437 -19.724 -32.671  0.00  0.00    -0.042 A 
ATOM     25  C   UNL A   1      37.501 -18.825 -32.608  0.00  0.00    +0.060 A 
ATOM     26 CL   UNL A   1      37.118 -17.146 -32.485  0.00  0.00    -0.082 Cl
ATOM     27  C   UNL A   1      38.825 -19.298 -32.643  0.00  0.00    +0.064 A 
ATOM     28 CL   UNL A   1      40.152 -18.183 -32.527  0.00  0.00    -0.082 Cl
ENDBRANCH  20  21
ENDBRANCH   4  20
TORSDOF 5
ENDMDL
MODEL 10
REMARK VINA RESULT:    -7.801      2.107      3.246
REMARK INTER + INTRA:         -10.724
REMARK INTER:                 -10.235
REMARK INTRA:                  -0.489
REMARK UNBOUND:                -0.643
REMARK  Name = cpd332.pdb
REMARK  5 active torsions:
REMARK  status: ('A' for Active; 'I' for Inactive)
REMARK    1  A    between atoms: C_2  and  C_3
REMARK    2  A    between atoms: C_2  and  C_20
REMARK    3  A    between atoms: C_4  and  C_5
REMARK    4  A    between atoms: N_8  and  C_9
REMARK    5  A    between atoms: C_9  and  C_10
REMARK                            x       y       z     vdW  Elec       q    Type
REMARK                         _______ _______ _______ _____ _____    ______ ____
ROOT
ATOM      1  C   UNL A   1      38.057 -36.890 -30.041  0.00  0.00    -0.022 A 
ATOM      2  C   UNL A   1      37.657 -37.383 -28.798  0.00  0.00    -0.038 A 
ATOM      3  C   UNL A   1      36.312 -37.361 -28.445  0.00  0.00    +0.005 A 
ATOM      4  N   UNL A   1      35.382 -36.867 -29.296  0.00  0.00    -0.349 N 
ATOM      5  C   UNL A   1      35.742 -36.411 -30.518  0.00  0.00    +0.005 A 
ATOM      6  C   UNL A   1      37.076 -36.415 -30.910  0.00  0.00    -0.038 A 
ENDROOT
BRANCH   1   8
ATOM      7  C   UNL A   1      39.953 -36.106 -31.439  0.00  0.00    -0.011 C 
ATOM      8  C   UNL A   1      39.456 -36.915 -30.491  0.00  0.00    -0.051 C 
BRANCH   7  10
ATOM      9  O   UNL A   1      41.576 -35.387 -32.928  0.00  0.00    -0.284 OA
ATOM     10  C   UNL A   1      41.356 -36.121 -31.962  0.00  0.00    +0.221 C 
BRANCH  10  11
ATOM     11  C   UNL A   1      42.387 -36.939 -31.359  0.00  0.00    +0.176 A 
ATOM     12  C   UNL A   1      43.657 -36.593 -30.926  0.00  0.00    -0.005 A 
ATOM     13  C   UNL A   1      44.248 -37.763 -30.385  0.00  0.00    +0.021 A 
ATOM     14  C   UNL A   1      45.485 -38.086 -29.801  0.00  0.00    -0.051 A 
ATOM     15  C   UNL A   1      45.698 -39.403 -29.367  0.00  0.00    -0.061 A 
ATOM     16  C   UNL A   1      44.706 -40.378 -29.506  0.00  0.00    -0.058 A 
ATOM     17  C   UNL A   1      43.469 -40.074 -30.084  0.00  0.00    -0.019 A 
ATOM     18  C   UNL A   1      43.289 -38.759 -30.506  0.00  0.00    +0.136 A 
ATOM     19  O   UNL A   1      42.163 -38.264 -31.089  0.00  0.00    -0.452 OA
ENDBRANCH  10  11
ENDBRANCH   7  10
ENDBRANCH   1   8
BRANCH   4  20
ATOM     20  C   UNL A   1      33.947 -36.884 -28.901  0.00  0.00    +0.049 C 
BRANCH  20  21
ATOM     21  C   UNL A   1      33.180 -35.668 -29.375  0.00  0.00    -0.008 A 
ATOM     22  C   UNL A   1      33.326 -34.417 -28.746  0.00  0.00    -0.055 A 
ATOM     23  C   UNL A   1      32.638 -33.294 -29.209  0.00  0.00    -0.060 A 
ATOM     24  C   UNL A   1      31.804 -33.392 -30.319  0.00  0.00    -0.042 A 
ATOM     25  C   UNL A   1      31.661 -34.612 -30.980  0.00  0.00    +0.060 A 
ATOM     26 CL   UNL A   1      30.622 -34.652 -32.360  0.00  0.00    -0.082 Cl
ATOM     27  C   UNL A   1      32.350 -35.747 -30.520  0.00  0.00    +0.064 A 
ATOM     28 CL   UNL A   1      32.204 -37.257 -31.364  0.00  0.00    -0.082 Cl
ENDBRANCH  20  21
ENDBRANCH   4  20
TORSDOF 5
ENDMDL
MODEL 11
REMARK VINA RESULT:    -7.788      4.879     10.655
REMARK INTER + INTRA:         -10.707
REMARK INTER:                 -10.525
REMARK INTRA:                  -0.182
REMARK UNBOUND:                -0.643
REMARK  Name = cpd332.pdb
REMARK  5 active torsions:
REMARK  status: ('A' for Active; 'I' for Inactive)
REMARK    1  A    between atoms: C_2  and  C_3
REMARK    2  A    between atoms: C_2  and  C_20
REMARK    3  A    between atoms: C_4  and  C_5
REMARK    4  A    between atoms: N_8  and  C_9
REMARK    5  A    between atoms: C_9  and  C_10
REMARK                            x       y       z     vdW  Elec       q    Type
REMARK                         _______ _______ _______ _____ _____    ______ ____
ROOT
ATOM      1  C   UNL A   1      38.356 -36.333 -30.883  0.00  0.00    -0.022 A 
ATOM      2  C   UNL A   1      38.837 -35.797 -32.078  0.00  0.00    -0.038 A 
ATOM      3  C   UNL A   1      40.202 -35.819 -32.347  0.00  0.00    +0.005 A 
ATOM      4  N   UNL A   1      41.071 -36.359 -31.461  0.00  0.00    -0.349 N 
ATOM      5  C   UNL A   1      40.625 -36.912 -30.309  0.00  0.00    +0.005 A 
ATOM      6  C   UNL A   1      39.269 -36.910 -30.002  0.00  0.00    -0.038 A 
ENDROOT
BRANCH   1   8
ATOM      7  C   UNL A   1      36.401 -37.130 -29.576  0.00  0.00    -0.011 C 
ATOM      8  C   UNL A   1      36.924 -36.373 -30.552  0.00  0.00    -0.051 C 
BRANCH   7  10
ATOM      9  O   UNL A   1      34.609 -38.284 -28.668  0.00  0.00    -0.284 OA
ATOM     10  C   UNL A   1      34.949 -37.240 -29.228  0.00  0.00    +0.221 C 
BRANCH  10  11
ATOM     11  C   UNL A   1      34.011 -36.176 -29.523  0.00  0.00    +0.176 A 
ATOM     12  C   UNL A   1      33.501 -35.188 -28.699  0.00  0.00    -0.005 A 
ATOM     13  C   UNL A   1      32.645 -34.382 -29.492  0.00  0.00    +0.021 A 
ATOM     14  C   UNL A   1      31.838 -33.252 -29.271  0.00  0.00    -0.051 A 
ATOM     15  C   UNL A   1      31.118 -32.720 -30.351  0.00  0.00    -0.061 A 
ATOM     16  C   UNL A   1      31.198 -33.294 -31.623  0.00  0.00    -0.058 A 
ATOM     17  C   UNL A   1      31.996 -34.417 -31.861  0.00  0.00    -0.019 A 
ATOM     18  C   UNL A   1      32.697 -34.922 -30.769  0.00  0.00    +0.136 A 
ATOM     19  O   UNL A   1      33.525 -36.003 -30.793  0.00  0.00    -0.452 OA
ENDBRANCH  10  11
ENDBRANCH   7  10
ENDBRANCH   1   8
BRANCH   4  20
ATOM     20  C   UNL A   1      42.522 -36.395 -31.790  0.00  0.00    +0.049 C 
BRANCH  20  21
ATOM     21  C   UNL A   1      43.285 -37.457 -31.029  0.00  0.00    -0.008 A 
ATOM     22  C   UNL A   1      42.799 -38.775 -30.922  0.00  0.00    -0.055 A 
ATOM     23  C   UNL A   1      43.525 -39.756 -30.245  0.00  0.00    -0.060 A 
ATOM     24  C   UNL A   1      44.756 -39.449 -29.675  0.00  0.00    -0.042 A 
ATOM     25  C   UNL A   1      45.277 -38.160 -29.788  0.00  0.00    +0.060 A 
ATOM     26 CL   UNL A   1      46.818 -37.858 -29.070  0.00  0.00    -0.082 Cl
ATOM     27  C   UNL A   1      44.552 -37.166 -30.469  0.00  0.00    +0.064 A 
ATOM     28 CL   UNL A   1      45.215 -35.571 -30.644  0.00  0.00    -0.082 Cl
ENDBRANCH  20  21
ENDBRANCH   4  20
TORSDOF 5
ENDMDL
MODEL 12
REMARK VINA RESULT:    -7.649      5.841      9.832
REMARK INTER + INTRA:         -10.528
REMARK INTER:                  -9.791
REMARK INTRA:                  -0.737
REMARK UNBOUND:                -0.643
REMARK  Name = cpd332.pdb
REMARK  5 active torsions:
REMARK  status: ('A' for Active; 'I' for Inactive)
REMARK    1  A    between atoms: C_2  and  C_3
REMARK    2  A    between atoms: C_2  and  C_20
REMARK    3  A    between atoms: C_4  and  C_5
REMARK    4  A    between atoms: N_8  and  C_9
REMARK    5  A    between atoms: C_9  and  C_10
REMARK                            x       y       z     vdW  Elec       q    Type
REMARK                         _______ _______ _______ _____ _____    ______ ____
ROOT
ATOM      1  C   UNL A   1      34.380 -39.220 -31.777  0.00  0.00    -0.022 A 
ATOM      2  C   UNL A   1      34.135 -37.847 -31.730  0.00  0.00    -0.038 A 
ATOM      3  C   UNL A   1      35.041 -37.003 -31.097  0.00  0.00    +0.005 A 
ATOM      4  N   UNL A   1      36.163 -37.498 -30.525  0.00  0.00    -0.349 N 
ATOM      5  C   UNL A   1      36.438 -38.822 -30.583  0.00  0.00    +0.005 A 
ATOM      6  C   UNL A   1      35.559 -39.700 -31.206  0.00  0.00    -0.038 A 
ENDROOT
BRANCH   1   8
ATOM      7  C   UNL A   1      33.586 -40.492 -33.756  0.00  0.00    -0.011 C 
ATOM      8  C   UNL A   1      33.483 -40.164 -32.459  0.00  0.00    -0.051 C 
BRANCH   7  10
ATOM      9  O   UNL A   1      31.553 -40.964 -34.761  0.00  0.00    -0.284 OA
ATOM     10  C   UNL A   1      32.673 -41.411 -34.507  0.00  0.00    +0.221 C 
BRANCH  10  11
ATOM     11  C   UNL A   1      33.092 -42.735 -34.916  0.00  0.00    +0.176 A 
ATOM     12  C   UNL A   1      34.067 -43.562 -34.385  0.00  0.00    -0.005 A 
ATOM     13  C   UNL A   1      34.053 -44.763 -35.139  0.00  0.00    +0.021 A 
ATOM     14  C   UNL A   1      34.774 -45.970 -35.121  0.00  0.00    -0.051 A 
ATOM     15  C   UNL A   1      34.450 -46.960 -36.060  0.00  0.00    -0.061 A 
ATOM     16  C   UNL A   1      33.430 -46.759 -36.996  0.00  0.00    -0.058 A 
ATOM     17  C   UNL A   1      32.703 -45.566 -37.027  0.00  0.00    -0.019 A 
ATOM     18  C   UNL A   1      33.049 -44.603 -36.083  0.00  0.00    +0.136 A 
ATOM     19  O   UNL A   1      32.464 -43.381 -35.948  0.00  0.00    -0.452 OA
ENDBRANCH  10  11
ENDBRANCH   7  10
ENDBRANCH   1   8
BRANCH   4  20
ATOM     20  C   UNL A   1      37.128 -36.566 -29.881  0.00  0.00    +0.049 C 
BRANCH  20  21
ATOM     21  C   UNL A   1      38.407 -36.386 -30.669  0.00  0.00    -0.008 A 
ATOM     22  C   UNL A   1      38.491 -35.465 -31.731  0.00  0.00    -0.055 A 
ATOM     23  C   UNL A   1      39.685 -35.283 -32.432  0.00  0.00    -0.060 A 
ATOM     24  C   UNL A   1      40.822 -36.002 -32.078  0.00  0.00    -0.042 A 
ATOM     25  C   UNL A   1      40.778 -36.900 -31.012  0.00  0.00    +0.060 A 
ATOM     26 CL   UNL A   1      42.233 -37.742 -30.620  0.00  0.00    -0.082 Cl
ATOM     27  C   UNL A   1      39.579 -37.089 -30.301  0.00  0.00    +0.064 A 
ATOM     28 CL   UNL A   1      39.531 -38.178 -28.949  0.00  0.00    -0.082 Cl
ENDBRANCH  20  21
ENDBRANCH   4  20
TORSDOF 5
ENDMDL
MODEL 13
REMARK VINA RESULT:    -7.581      5.051      7.711
REMARK INTER + INTRA:         -10.439
REMARK INTER:                  -9.629
REMARK INTRA:                  -0.810
REMARK UNBOUND:                -0.643
REMARK  Name = cpd332.pdb
REMARK  5 active torsions:
REMARK  status: ('A' for Active; 'I' for Inactive)
REMARK    1  A    between atoms: C_2  and  C_3
REMARK    2  A    between atoms: C_2  and  C_20
REMARK    3  A    between atoms: C_4  and  C_5
REMARK    4  A    between atoms: N_8  and  C_9
REMARK    5  A    between atoms: C_9  and  C_10
REMARK                            x       y       z     vdW  Elec       q    Type
REMARK                         _______ _______ _______ _____ _____    ______ ____
ROOT
ATOM      1  C   UNL A   1      34.905 -40.798 -31.310  0.00  0.00    -0.022 A 
ATOM      2  C   UNL A   1      33.759 -41.294 -30.688  0.00  0.00    -0.038 A 
ATOM      3  C   UNL A   1      32.855 -42.063 -31.413  0.00  0.00    +0.005 A 
ATOM      4  N   UNL A   1      33.076 -42.340 -32.719  0.00  0.00    -0.349 N 
ATOM      5  C   UNL A   1      34.195 -41.895 -33.337  0.00  0.00    +0.005 A 
ATOM      6  C   UNL A   1      35.123 -41.123 -32.648  0.00  0.00    -0.038 A 
ENDROOT
BRANCH   1   8
ATOM      7  C   UNL A   1      35.701 -39.405 -29.415  0.00  0.00    -0.011 C 
ATOM      8  C   UNL A   1      35.917 -40.008 -30.594  0.00  0.00    -0.051 C 
BRANCH   7  10
ATOM      9  O   UNL A   1      36.493 -38.460 -27.454  0.00  0.00    -0.284 OA
ATOM     10  C   UNL A   1      36.682 -38.555 -28.668  0.00  0.00    +0.221 C 
BRANCH  10  11
ATOM     11  C   UNL A   1      37.787 -37.900 -29.335  0.00  0.00    +0.176 A 
ATOM     12  C   UNL A   1      39.151 -38.043 -29.144  0.00  0.00    -0.005 A 
ATOM     13  C   UNL A   1      39.797 -37.194 -30.078  0.00  0.00    +0.021 A 
ATOM     14  C   UNL A   1      41.129 -36.875 -30.394  0.00  0.00    -0.051 A 
ATOM     15  C   UNL A   1      41.373 -35.958 -31.427  0.00  0.00    -0.061 A 
ATOM     16  C   UNL A   1      40.319 -35.371 -32.133  0.00  0.00    -0.058 A 
ATOM     17  C   UNL A   1      38.988 -35.676 -31.833  0.00  0.00    -0.019 A 
ATOM     18  C   UNL A   1      38.779 -36.589 -30.802  0.00  0.00    +0.136 A 
ATOM     19  O   UNL A   1      37.565 -37.017 -30.359  0.00  0.00    -0.452 OA
ENDBRANCH  10  11
ENDBRANCH   7  10
ENDBRANCH   1   8
BRANCH   4  20
ATOM     20  C   UNL A   1      32.105 -43.191 -33.461  0.00  0.00    +0.049 C 
BRANCH  20  21
ATOM     21  C   UNL A   1      32.568 -44.622 -33.631  0.00  0.00    -0.008 A 
ATOM     22  C   UNL A   1      32.425 -45.567 -32.597  0.00  0.00    -0.055 A 
ATOM     23  C   UNL A   1      32.826 -46.893 -32.774  0.00  0.00    -0.060 A 
ATOM     24  C   UNL A   1      33.362 -47.306 -33.990  0.00  0.00    -0.042 A 
ATOM     25  C   UNL A   1      33.489 -46.400 -35.042  0.00  0.00    +0.060 A 
ATOM     26 CL   UNL A   1      34.145 -46.991 -36.526  0.00  0.00    -0.082 Cl
ATOM     27  C   UNL A   1      33.087 -45.063 -34.872  0.00  0.00    +0.064 A 
ATOM     28 CL   UNL A   1      33.210 -43.942 -36.192  0.00  0.00    -0.082 Cl
ENDBRANCH  20  21
ENDBRANCH   4  20
TORSDOF 5
ENDMDL
MODEL 14
REMARK VINA RESULT:    -7.533      4.948      7.478
REMARK INTER + INTRA:         -10.378
REMARK INTER:                  -9.727
REMARK INTRA:                  -0.651
REMARK UNBOUND:                -0.643
REMARK  Name = cpd332.pdb
REMARK  5 active torsions:
REMARK  status: ('A' for Active; 'I' for Inactive)
REMARK    1  A    between atoms: C_2  and  C_3
REMARK    2  A    between atoms: C_2  and  C_20
REMARK    3  A    between atoms: C_4  and  C_5
REMARK    4  A    between atoms: N_8  and  C_9
REMARK    5  A    between atoms: C_9  and  C_10
REMARK                            x       y       z     vdW  Elec       q    Type
REMARK                         _______ _______ _______ _____ _____    ______ ____
ROOT
ATOM      1  C   UNL A   1      35.031 -40.902 -30.995  0.00  0.00    -0.022 A 
ATOM      2  C   UNL A   1      33.857 -41.348 -30.389  0.00  0.00    -0.038 A 
ATOM      3  C   UNL A   1      32.880 -41.978 -31.153  0.00  0.00    +0.005 A 
ATOM      4  N   UNL A   1      33.057 -42.166 -32.482  0.00  0.00    -0.349 N 
ATOM      5  C   UNL A   1      34.200 -41.768 -33.087  0.00  0.00    +0.005 A 
ATOM      6  C   UNL A   1      35.201 -41.135 -32.359  0.00  0.00    -0.038 A 
ENDROOT
BRANCH   1   8
ATOM      7  C   UNL A   1      36.041 -39.026 -29.719  0.00  0.00    -0.011 C 
ATOM      8  C   UNL A   1      36.118 -40.260 -30.241  0.00  0.00    -0.051 C 
BRANCH   7  10
ATOM      9  O   UNL A   1      37.085 -38.384 -27.753  0.00  0.00    -0.284 OA
ATOM     10  C   UNL A   1      37.132 -38.312 -28.983  0.00  0.00    +0.221 C 
BRANCH  10  11
ATOM     11  C   UNL A   1      38.181 -37.596 -29.679  0.00  0.00    +0.176 A 
ATOM     12  C   UNL A   1      38.104 -36.478 -30.492  0.00  0.00    -0.005 A 
ATOM     13  C   UNL A   1      39.426 -36.162 -30.895  0.00  0.00    +0.021 A 
ATOM     14  C   UNL A   1      40.023 -35.179 -31.703  0.00  0.00    -0.051 A 
ATOM     15  C   UNL A   1      41.417 -35.194 -31.860  0.00  0.00    -0.061 A 
ATOM     16  C   UNL A   1      42.203 -36.162 -31.227  0.00  0.00    -0.058 A 
ATOM     17  C   UNL A   1      41.626 -37.146 -30.419  0.00  0.00    -0.019 A 
ATOM     18  C   UNL A   1      40.241 -37.105 -30.285  0.00  0.00    +0.136 A 
ATOM     19  O   UNL A   1      39.492 -37.969 -29.545  0.00  0.00    -0.452 OA
ENDBRANCH  10  11
ENDBRANCH   7  10
ENDBRANCH   1   8
BRANCH   4  20
ATOM     20  C   UNL A   1      32.006 -42.869 -33.267  0.00  0.00    +0.049 C 
BRANCH  20  21
ATOM     21  C   UNL A   1      32.533 -44.048 -34.056  0.00  0.00    -0.008 A 
ATOM     22  C   UNL A   1      32.949 -43.908 -35.394  0.00  0.00    -0.055 A 
ATOM     23  C   UNL A   1      33.464 -44.995 -36.104  0.00  0.00    -0.060 A 
ATOM     24  C   UNL A   1      33.591 -46.237 -35.490  0.00  0.00    -0.042 A 
ATOM     25  C   UNL A   1      33.215 -46.399 -34.157  0.00  0.00    +0.060 A 
ATOM     26 CL   UNL A   1      33.417 -47.965 -33.458  0.00  0.00    -0.082 Cl
ATOM     27  C   UNL A   1      32.695 -45.310 -33.435  0.00  0.00    +0.064 A 
ATOM     28 CL   UNL A   1      32.261 -45.500 -31.764  0.00  0.00    -0.082 Cl
ENDBRANCH  20  21
ENDBRANCH   4  20
TORSDOF 5
ENDMDL
MODEL 15
REMARK VINA RESULT:    -7.456      6.896     12.577
REMARK INTER + INTRA:         -10.278
REMARK INTER:                  -9.962
REMARK INTRA:                  -0.316
REMARK UNBOUND:                -0.643
REMARK  Name = cpd332.pdb
REMARK  5 active torsions:
REMARK  status: ('A' for Active; 'I' for Inactive)
REMARK    1  A    between atoms: C_2  and  C_3
REMARK    2  A    between atoms: C_2  and  C_20
REMARK    3  A    between atoms: C_4  and  C_5
REMARK    4  A    between atoms: N_8  and  C_9
REMARK    5  A    between atoms: C_9  and  C_10
REMARK                            x       y       z     vdW  Elec       q    Type
REMARK                         _______ _______ _______ _____ _____    ______ ____
ROOT
ATOM      1  C   UNL A   1      34.225 -34.478 -29.808  0.00  0.00    -0.022 A 
ATOM      2  C   UNL A   1      34.353 -35.842 -30.071  0.00  0.00    -0.038 A 
ATOM      3  C   UNL A   1      35.455 -36.311 -30.779  0.00  0.00    +0.005 A 
ATOM      4  N   UNL A   1      36.410 -35.456 -31.215  0.00  0.00    -0.349 N 
ATOM      5  C   UNL A   1      36.323 -34.133 -30.947  0.00  0.00    +0.005 A 
ATOM      6  C   UNL A   1      35.238 -33.624 -30.242  0.00  0.00    -0.038 A 
ENDROOT
BRANCH   1   8
ATOM      7  C   UNL A   1      31.918 -33.592 -29.570  0.00  0.00    -0.011 C 
ATOM      8  C   UNL A   1      33.105 -33.921 -29.037  0.00  0.00    -0.051 C 
BRANCH   7  10
ATOM      9  O   UNL A   1      30.303 -33.651 -27.910  0.00  0.00    -0.284 OA
ATOM     10  C   UNL A   1      30.763 -32.982 -28.838  0.00  0.00    +0.221 C 
BRANCH  10  11
ATOM     11  C   UNL A   1      30.233 -31.683 -29.196  0.00  0.00    +0.176 A 
ATOM     12  C   UNL A   1      30.296 -30.998 -30.398  0.00  0.00    -0.005 A 
ATOM     13  C   UNL A   1      29.590 -29.781 -30.223  0.00  0.00    +0.021 A 
ATOM     14  C   UNL A   1      29.292 -28.667 -31.027  0.00  0.00    -0.051 A 
ATOM     15  C   UNL A   1      28.533 -27.624 -30.475  0.00  0.00    -0.061 A 
ATOM     16  C   UNL A   1      28.076 -27.686 -29.155  0.00  0.00    -0.058 A 
ATOM     17  C   UNL A   1      28.362 -28.786 -28.342  0.00  0.00    -0.019 A 
ATOM     18  C   UNL A   1      29.119 -29.803 -28.918  0.00  0.00    +0.136 A 
ATOM     19  O   UNL A   1      29.501 -30.953 -28.297  0.00  0.00    -0.452 OA
ENDBRANCH  10  11
ENDBRANCH   7  10
ENDBRANCH   1   8
BRANCH   4  20
ATOM     20  C   UNL A   1      37.592 -35.991 -31.944  0.00  0.00    +0.049 C 
BRANCH  20  21
ATOM     21  C   UNL A   1      38.632 -36.606 -31.033  0.00  0.00    -0.008 A 
ATOM     22  C   UNL A   1      38.273 -37.209 -29.812  0.00  0.00    -0.055 A 
ATOM     23  C   UNL A   1      39.236 -37.802 -28.992  0.00  0.00    -0.060 A 
ATOM     24  C   UNL A   1      40.572 -37.820 -29.381  0.00  0.00    -0.042 A 
ATOM     25  C   UNL A   1      40.954 -37.256 -30.598  0.00  0.00    +0.060 A 
ATOM     26 CL   UNL A   1      42.627 -37.332 -31.020  0.00  0.00    -0.082 Cl
ATOM     27  C   UNL A   1      39.990 -36.657 -31.429  0.00  0.00    +0.064 A 
ATOM     28 CL   UNL A   1      40.457 -35.988 -32.962  0.00  0.00    -0.082 Cl
ENDBRANCH  20  21
ENDBRANCH   4  20
TORSDOF 5
ENDMDL
MODEL 16
REMARK VINA RESULT:    -7.423      4.767      6.932
REMARK INTER + INTRA:         -10.236
REMARK INTER:                  -9.495
REMARK INTRA:                  -0.741
REMARK UNBOUND:                -0.643
REMARK  Name = cpd332.pdb
REMARK  5 active torsions:
REMARK  status: ('A' for Active; 'I' for Inactive)
REMARK    1  A    between atoms: C_2  and  C_3
REMARK    2  A    between atoms: C_2  and  C_20
REMARK    3  A    between atoms: C_4  and  C_5
REMARK    4  A    between atoms: N_8  and  C_9
REMARK    5  A    between atoms: C_9  and  C_10
REMARK                            x       y       z     vdW  Elec       q    Type
REMARK                         _______ _______ _______ _____ _____    ______ ____
ROOT
ATOM      1  C   UNL A   1      35.101 -40.862 -31.161  0.00  0.00    -0.022 A 
ATOM      2  C   UNL A   1      35.235 -41.138 -32.522  0.00  0.00    -0.038 A 
ATOM      3  C   UNL A   1      34.199 -41.766 -33.206  0.00  0.00    +0.005 A 
ATOM      4  N   UNL A   1      33.058 -42.111 -32.565  0.00  0.00    -0.349 N 
ATOM      5  C   UNL A   1      32.893 -41.828 -31.253  0.00  0.00    +0.005 A 
ATOM      6  C   UNL A   1      33.904 -41.201 -30.532  0.00  0.00    -0.038 A 
ENDROOT
BRANCH   1   8
ATOM      7  C   UNL A   1      35.891 -39.213 -29.481  0.00  0.00    -0.011 C 
ATOM      8  C   UNL A   1      36.142 -40.171 -30.386  0.00  0.00    -0.051 C 
BRANCH   7  10
ATOM      9  O   UNL A   1      36.739 -38.411 -27.480  0.00  0.00    -0.284 OA
ATOM     10  C   UNL A   1      36.915 -38.450 -28.699  0.00  0.00    +0.221 C 
BRANCH  10  11
ATOM     11  C   UNL A   1      38.045 -37.811 -29.341  0.00  0.00    +0.176 A 
ATOM     12  C   UNL A   1      39.402 -38.027 -29.171  0.00  0.00    -0.005 A 
ATOM     13  C   UNL A   1      40.079 -37.159 -30.064  0.00  0.00    +0.021 A 
ATOM     14  C   UNL A   1      41.422 -36.885 -30.376  0.00  0.00    -0.051 A 
ATOM     15  C   UNL A   1      41.701 -35.925 -31.360  0.00  0.00    -0.061 A 
ATOM     16  C   UNL A   1      40.670 -35.252 -32.023  0.00  0.00    -0.058 A 
ATOM     17  C   UNL A   1      39.329 -35.512 -31.726  0.00  0.00    -0.019 A 
ATOM     18  C   UNL A   1      39.085 -36.469 -30.744  0.00  0.00    +0.136 A 
ATOM     19  O   UNL A   1      37.855 -36.864 -30.313  0.00  0.00    -0.452 OA
ENDBRANCH  10  11
ENDBRANCH   7  10
ENDBRANCH   1   8
BRANCH   4  20
ATOM     20  C   UNL A   1      31.956 -42.755 -33.331  0.00  0.00    +0.049 C 
BRANCH  20  21
ATOM     21  C   UNL A   1      31.629 -42.043 -34.627  0.00  0.00    -0.008 A 
ATOM     22  C   UNL A   1      30.905 -40.835 -34.637  0.00  0.00    -0.055 A 
ATOM     23  C   UNL A   1      30.635 -40.169 -35.834  0.00  0.00    -0.060 A 
ATOM     24  C   UNL A   1      31.095 -40.685 -37.042  0.00  0.00    -0.042 A 
ATOM     25  C   UNL A   1      31.839 -41.865 -37.061  0.00  0.00    +0.060 A 
ATOM     26 CL   UNL A   1      32.390 -42.434 -38.595  0.00  0.00    -0.082 Cl
ATOM     27  C   UNL A   1      32.115 -42.541 -35.859  0.00  0.00    +0.064 A 
ATOM     28 CL   UNL A   1      33.073 -43.990 -35.876  0.00  0.00    -0.082 Cl
ENDBRANCH  20  21
ENDBRANCH   4  20
TORSDOF 5
ENDMDL
MODEL 17
REMARK VINA RESULT:    -7.228     17.882     19.991
REMARK INTER + INTRA:          -9.984
REMARK INTER:                  -9.321
REMARK INTRA:                  -0.663
REMARK UNBOUND:                -0.643
REMARK  Name = cpd332.pdb
REMARK  5 active torsions:
REMARK  status: ('A' for Active; 'I' for Inactive)
REMARK    1  A    between atoms: C_2  and  C_3
REMARK    2  A    between atoms: C_2  and  C_20
REMARK    3  A    between atoms: C_4  and  C_5
REMARK    4  A    between atoms: N_8  and  C_9
REMARK    5  A    between atoms: C_9  and  C_10
REMARK                            x       y       z     vdW  Elec       q    Type
REMARK                         _______ _______ _______ _____ _____    ______ ____
ROOT
ATOM      1  C   UNL A   1      41.090 -21.844 -36.601  0.00  0.00    -0.022 A 
ATOM      2  C   UNL A   1      39.841 -22.282 -36.157  0.00  0.00    -0.038 A 
ATOM      3  C   UNL A   1      39.427 -21.994 -34.861  0.00  0.00    +0.005 A 
ATOM      4  N   UNL A   1      40.222 -21.290 -34.022  0.00  0.00    -0.349 N 
ATOM      5  C   UNL A   1      41.424 -20.830 -34.438  0.00  0.00    +0.005 A 
ATOM      6  C   UNL A   1      41.876 -21.095 -35.726  0.00  0.00    -0.038 A 
ENDROOT
BRANCH   1   8
ATOM      7  C   UNL A   1      41.834 -21.109 -38.852  0.00  0.00    -0.011 C 
ATOM      8  C   UNL A   1      41.574 -22.084 -37.968  0.00  0.00    -0.051 C 
BRANCH   7  10
ATOM      9  O   UNL A   1      41.428 -21.707 -41.053  0.00  0.00    -0.284 OA
ATOM     10  C   UNL A   1      42.286 -21.301 -40.267  0.00  0.00    +0.221 C 
BRANCH  10  11
ATOM     11  C   UNL A   1      43.644 -21.014 -40.680  0.00  0.00    +0.176 A 
ATOM     12  C   UNL A   1      44.277 -19.796 -40.867  0.00  0.00    -0.005 A 
ATOM     13  C   UNL A   1      45.615 -20.074 -41.243  0.00  0.00    +0.021 A 
ATOM     14  C   UNL A   1      46.747 -19.307 -41.574  0.00  0.00    -0.051 A 
ATOM     15  C   UNL A   1      47.938 -19.974 -41.896  0.00  0.00    -0.061 A 
ATOM     16  C   UNL A   1      48.008 -21.370 -41.888  0.00  0.00    -0.058 A 
ATOM     17  C   UNL A   1      46.894 -22.148 -41.561  0.00  0.00    -0.019 A 
ATOM     18  C   UNL A   1      45.726 -21.457 -41.247  0.00  0.00    +0.136 A 
ATOM     19  O   UNL A   1      44.539 -22.028 -40.903  0.00  0.00    -0.452 OA
ENDBRANCH  10  11
ENDBRANCH   7  10
ENDBRANCH   1   8
BRANCH   4  20
ATOM     20  C   UNL A   1      39.739 -20.973 -32.651  0.00  0.00    +0.049 C 
BRANCH  20  21
ATOM     21  C   UNL A   1      38.807 -19.781 -32.603  0.00  0.00    -0.008 A 
ATOM     22  C   UNL A   1      39.302 -18.463 -32.599  0.00  0.00    -0.055 A 
ATOM     23  C   UNL A   1      38.434 -17.369 -32.586  0.00  0.00    -0.060 A 
ATOM     24  C   UNL A   1      37.057 -17.567 -32.595  0.00  0.00    -0.042 A 
ATOM     25  C   UNL A   1      36.537 -18.861 -32.628  0.00  0.00    +0.060 A 
ATOM     26 CL   UNL A   1      34.818 -19.027 -32.655  0.00  0.00    -0.082 Cl
ATOM     27  C   UNL A   1      37.404 -19.967 -32.641  0.00  0.00    +0.064 A 
ATOM     28 CL   UNL A   1      36.760 -21.578 -32.720  0.00  0.00    -0.082 Cl
ENDBRANCH  20  21
ENDBRANCH   4  20
TORSDOF 5
ENDMDL
MODEL 18
REMARK VINA RESULT:    -7.209     18.561     20.024
REMARK INTER + INTRA:          -9.959
REMARK INTER:                  -9.342
REMARK INTRA:                  -0.616
REMARK UNBOUND:                -0.643
REMARK  Name = cpd332.pdb
REMARK  5 active torsions:
REMARK  status: ('A' for Active; 'I' for Inactive)
REMARK    1  A    between atoms: C_2  and  C_3
REMARK    2  A    between atoms: C_2  and  C_20
REMARK    3  A    between atoms: C_4  and  C_5
REMARK    4  A    between atoms: N_8  and  C_9
REMARK    5  A    between atoms: C_9  and  C_10
REMARK                            x       y       z     vdW  Elec       q    Type
REMARK                         _______ _______ _______ _____ _____    ______ ____
ROOT
ATOM      1  C   UNL A   1      43.442 -19.897 -35.173  0.00  0.00    -0.022 A 
ATOM      2  C   UNL A   1      43.488 -19.728 -33.789  0.00  0.00    -0.038 A 
ATOM      3  C   UNL A   1      42.370 -20.026 -33.017  0.00  0.00    +0.005 A 
ATOM      4  N   UNL A   1      41.234 -20.482 -33.595  0.00  0.00    -0.349 N 
ATOM      5  C   UNL A   1      41.174 -20.682 -34.932  0.00  0.00    +0.005 A 
ATOM      6  C   UNL A   1      42.270 -20.396 -35.739  0.00  0.00    -0.038 A 
ENDROOT
BRANCH   1   8
ATOM      7  C   UNL A   1      44.503 -19.371 -37.355  0.00  0.00    -0.011 C 
ATOM      8  C   UNL A   1      44.597 -19.634 -36.043  0.00  0.00    -0.051 C 
BRANCH   7  10
ATOM      9  O   UNL A   1      46.174 -18.027 -38.231  0.00  0.00    -0.284 OA
ATOM     10  C   UNL A   1      45.649 -19.140 -38.291  0.00  0.00    +0.221 C 
BRANCH  10  11
ATOM     11  C   UNL A   1      46.112 -20.169 -39.199  0.00  0.00    +0.176 A 
ATOM     12  C   UNL A   1      47.227 -20.986 -39.120  0.00  0.00    -0.005 A 
ATOM     13  C   UNL A   1      47.201 -21.841 -40.251  0.00  0.00    +0.021 A 
ATOM     14  C   UNL A   1      48.018 -22.867 -40.755  0.00  0.00    -0.051 A 
ATOM     15  C   UNL A   1      47.638 -23.504 -41.946  0.00  0.00    -0.061 A 
ATOM     16  C   UNL A   1      46.472 -23.133 -42.621  0.00  0.00    -0.058 A 
ATOM     17  C   UNL A   1      45.646 -22.116 -42.134  0.00  0.00    -0.019 A 
ATOM     18  C   UNL A   1      46.051 -21.502 -40.951  0.00  0.00    +0.136 A 
ATOM     19  O   UNL A   1      45.389 -20.496 -40.316  0.00  0.00    -0.452 OA
ENDBRANCH  10  11
ENDBRANCH   7  10
ENDBRANCH   1   8
BRANCH   4  20
ATOM     20  C   UNL A   1      40.064 -20.820 -32.739  0.00  0.00    +0.049 C 
BRANCH  20  21
ATOM     21  C   UNL A   1      39.018 -19.727 -32.692  0.00  0.00    -0.008 A 
ATOM     22  C   UNL A   1      39.379 -18.366 -32.708  0.00  0.00    -0.055 A 
ATOM     23  C   UNL A   1      38.406 -17.364 -32.696  0.00  0.00    -0.060 A 
ATOM     24  C   UNL A   1      37.056 -17.698 -32.686  0.00  0.00    -0.042 A 
ATOM     25  C   UNL A   1      36.667 -19.038 -32.699  0.00  0.00    +0.060 A 
ATOM     26 CL   UNL A   1      34.973 -19.375 -32.703  0.00  0.00    -0.082 Cl
ATOM     27  C   UNL A   1      37.641 -20.053 -32.711  0.00  0.00    +0.064 A 
ATOM     28 CL   UNL A   1      37.159 -21.721 -32.766  0.00  0.00    -0.082 Cl
ENDBRANCH  20  21
ENDBRANCH   4  20
TORSDOF 5
ENDMDL
MODEL 19
REMARK VINA RESULT:    -7.061     18.882     21.615
REMARK INTER + INTRA:          -9.768
REMARK INTER:                  -9.298
REMARK INTRA:                  -0.470
REMARK UNBOUND:                -0.643
REMARK  Name = cpd332.pdb
REMARK  5 active torsions:
REMARK  status: ('A' for Active; 'I' for Inactive)
REMARK    1  A    between atoms: C_2  and  C_3
REMARK    2  A    between atoms: C_2  and  C_20
REMARK    3  A    between atoms: C_4  and  C_5
REMARK    4  A    between atoms: N_8  and  C_9
REMARK    5  A    between atoms: C_9  and  C_10
REMARK                            x       y       z     vdW  Elec       q    Type
REMARK                         _______ _______ _______ _____ _____    ______ ____
ROOT
ATOM      1  C   UNL A   1      44.963 -18.511 -36.257  0.00  0.00    -0.022 A 
ATOM      2  C   UNL A   1      45.852 -17.556 -36.750  0.00  0.00    -0.038 A 
ATOM      3  C   UNL A   1      46.528 -17.791 -37.943  0.00  0.00    +0.005 A 
ATOM      4  N   UNL A   1      46.330 -18.937 -38.635  0.00  0.00    -0.349 N 
ATOM      5  C   UNL A   1      45.451 -19.865 -38.192  0.00  0.00    +0.005 A 
ATOM      6  C   UNL A   1      44.755 -19.670 -37.004  0.00  0.00    -0.038 A 
ENDROOT
BRANCH   1   8
ATOM      7  C   UNL A   1      43.101 -19.024 -34.696  0.00  0.00    -0.011 C 
ATOM      8  C   UNL A   1      44.191 -18.312 -35.022  0.00  0.00    -0.051 C 
BRANCH   7  10
ATOM      9  O   UNL A   1      42.729 -18.096 -32.606  0.00  0.00    -0.284 OA
ATOM     10  C   UNL A   1      42.256 -18.833 -33.474  0.00  0.00    +0.221 C 
BRANCH  10  11
ATOM     11  C   UNL A   1      40.961 -19.465 -33.335  0.00  0.00    +0.176 A 
ATOM     12  C   UNL A   1      40.633 -20.807 -33.252  0.00  0.00    -0.005 A 
ATOM     13  C   UNL A   1      39.226 -20.885 -33.093  0.00  0.00    +0.021 A 
ATOM     14  C   UNL A   1      38.284 -21.920 -32.958  0.00  0.00    -0.051 A 
ATOM     15  C   UNL A   1      36.931 -21.582 -32.810  0.00  0.00    -0.061 A 
ATOM     16  C   UNL A   1      36.520 -20.246 -32.793  0.00  0.00    -0.058 A 
ATOM     17  C   UNL A   1      37.442 -19.203 -32.925  0.00  0.00    -0.019 A 
ATOM     18  C   UNL A   1      38.777 -19.571 -33.072  0.00  0.00    +0.136 A 
ATOM     19  O   UNL A   1      39.823 -18.712 -33.213  0.00  0.00    -0.452 OA
ENDBRANCH  10  11
ENDBRANCH   7  10
ENDBRANCH   1   8
BRANCH   4  20
ATOM     20  C   UNL A   1      47.046 -19.146 -39.923  0.00  0.00    +0.049 C 
BRANCH  20  21
ATOM     21  C   UNL A   1      46.336 -20.103 -40.856  0.00  0.00    -0.008 A 
ATOM     22  C   UNL A   1      45.140 -19.743 -41.505  0.00  0.00    -0.055 A 
ATOM     23  C   UNL A   1      44.509 -20.621 -42.389  0.00  0.00    -0.060 A 
ATOM     24  C   UNL A   1      45.066 -21.867 -42.657  0.00  0.00    -0.042 A 
ATOM     25  C   UNL A   1      46.266 -22.241 -42.051  0.00  0.00    +0.060 A 
ATOM     26 CL   UNL A   1      46.906 -23.796 -42.446  0.00  0.00    -0.082 Cl
ATOM     27  C   UNL A   1      46.907 -21.363 -41.160  0.00  0.00    +0.064 A 
ATOM     28 CL   UNL A   1      48.420 -21.810 -40.434  0.00  0.00    -0.082 Cl
ENDBRANCH  20  21
ENDBRANCH   4  20
TORSDOF 5
ENDMDL
MODEL 20
REMARK VINA RESULT:    -7.052     18.575     20.262
REMARK INTER + INTRA:          -9.756
REMARK INTER:                  -9.049
REMARK INTRA:                  -0.707
REMARK UNBOUND:                -0.643
REMARK  Name = cpd332.pdb
REMARK  5 active torsions:
REMARK  status: ('A' for Active; 'I' for Inactive)
REMARK    1  A    between atoms: C_2  and  C_3
REMARK    2  A    between atoms: C_2  and  C_20
REMARK    3  A    between atoms: C_4  and  C_5
REMARK    4  A    between atoms: N_8  and  C_9
REMARK    5  A    between atoms: C_9  and  C_10
REMARK                            x       y       z     vdW  Elec       q    Type
REMARK                         _______ _______ _______ _____ _____    ______ ____
ROOT
ATOM      1  C   UNL A   1      43.027 -19.669 -36.683  0.00  0.00    -0.022 A 
ATOM      2  C   UNL A   1      42.724 -18.442 -36.091  0.00  0.00    -0.038 A 
ATOM      3  C   UNL A   1      42.149 -18.407 -34.825  0.00  0.00    +0.005 A 
ATOM      4  N   UNL A   1      41.880 -19.553 -34.157  0.00  0.00    -0.349 N 
ATOM      5  C   UNL A   1      42.192 -20.754 -34.697  0.00  0.00    +0.005 A 
ATOM      6  C   UNL A   1      42.768 -20.833 -35.960  0.00  0.00    -0.038 A 
ENDROOT
BRANCH   1   8
ATOM      7  C   UNL A   1      44.322 -18.770 -38.602  0.00  0.00    -0.011 C 
ATOM      8  C   UNL A   1      43.667 -19.776 -38.002  0.00  0.00    -0.051 C 
BRANCH   7  10
ATOM      9  O   UNL A   1      44.776 -17.820 -40.665  0.00  0.00    -0.284 OA
ATOM     10  C   UNL A   1      44.952 -18.815 -39.959  0.00  0.00    +0.221 C 
BRANCH  10  11
ATOM     11  C   UNL A   1      45.728 -19.954 -40.403  0.00  0.00    +0.176 A 
ATOM     12  C   UNL A   1      46.958 -20.416 -39.964  0.00  0.00    -0.005 A 
ATOM     13  C   UNL A   1      47.256 -21.585 -40.710  0.00  0.00    +0.021 A 
ATOM     14  C   UNL A   1      48.319 -22.504 -40.758  0.00  0.00    -0.051 A 
ATOM     15  C   UNL A   1      48.240 -23.574 -41.660  0.00  0.00    -0.061 A 
ATOM     16  C   UNL A   1      47.131 -23.733 -42.496  0.00  0.00    -0.058 A 
ATOM     17  C   UNL A   1      46.065 -22.830 -42.462  0.00  0.00    -0.019 A 
ATOM     18  C   UNL A   1      46.173 -21.777 -41.557  0.00  0.00    +0.136 A 
ATOM     19  O   UNL A   1      45.247 -20.797 -41.370  0.00  0.00    -0.452 OA
ENDBRANCH  10  11
ENDBRANCH   7  10
ENDBRANCH   1   8
BRANCH   4  20
ATOM     20  C   UNL A   1      41.291 -19.482 -32.792  0.00  0.00    +0.049 C 
BRANCH  20  21
ATOM     21  C   UNL A   1      39.777 -19.454 -32.792  0.00  0.00    -0.008 A 
ATOM     22  C   UNL A   1      39.067 -18.242 -32.888  0.00  0.00    -0.055 A 
ATOM     23  C   UNL A   1      37.671 -18.228 -32.919  0.00  0.00    -0.060 A 
ATOM     24  C   UNL A   1      36.956 -19.421 -32.871  0.00  0.00    -0.042 A 
ATOM     25  C   UNL A   1      37.633 -20.639 -32.804  0.00  0.00    +0.060 A 
ATOM     26 CL   UNL A   1      36.680 -22.078 -32.766  0.00  0.00    -0.082 Cl
ATOM     27  C   UNL A   1      39.039 -20.661 -32.773  0.00  0.00    +0.064 A 
ATOM     28 CL   UNL A   1      39.884 -22.178 -32.728  0.00  0.00    -0.082 Cl
ENDBRANCH  20  21
ENDBRANCH   4  20
TORSDOF 5
ENDMDL
