REMARK  Name = cpd332.pdb
REMARK  5 active torsions:
REMARK  status: ('A' for Active; 'I' for Inactive)
REMARK    1  A    between atoms: C_2  and  C_3
REMARK    2  A    between atoms: C_2  and  C_20
REMARK    3  A    between atoms: C_4  and  C_5
REMARK    4  A    between atoms: N_8  and  C_9
REMARK    5  A    between atoms: C_9  and  C_10
REMARK                            x       y       z     vdW  Elec       q    Type
REMARK                         _______ _______ _______ _____ _____    ______ ____
ROOT
ATOM      1  C   UNL A   1      -2.838  -0.463  -0.005  0.00  0.00    -0.022 A 
ATOM      2  C   UNL A   1      -3.715  -0.324   1.071  0.00  0.00    -0.038 A 
ATOM      3  C   UNL A   1      -4.883  -1.078   1.114  0.00  0.00    +0.005 A 
ATOM      4  N   UNL A   1      -5.179  -1.950   0.122  0.00  0.00    -0.349 N 
ATOM      5  C   UNL A   1      -4.330  -2.124  -0.917  0.00  0.00    +0.005 A 
ATOM      6  C   UNL A   1      -3.152  -1.390  -0.998  0.00  0.00    -0.038 A 
ENDROOT
BRANCH   1   8
ATOM      7  C   UNL A   1      -1.407   1.538   0.332  0.00  0.00    -0.011 C 
ATOM      8  C   UNL A   1      -1.571   0.277  -0.096  0.00  0.00    -0.051 C 
BRANCH   7  10
ATOM      9  O   UNL A   1      -0.306   3.572   0.201  0.00  0.00    -0.284 OA
ATOM     10  C   UNL A   1      -0.153   2.349   0.223  0.00  0.00    +0.221 C 
BRANCH  10  11
ATOM     11  C   UNL A   1       1.154   1.729   0.161  0.00  0.00    +0.176 A 
ATOM     12  C   UNL A   1       2.391   2.289  -0.111  0.00  0.00    -0.005 A 
ATOM     13  C   UNL A   1       3.351   1.250  -0.015  0.00  0.00    +0.021 A 
ATOM     14  C   UNL A   1       4.744   1.150  -0.175  0.00  0.00    -0.051 A 
ATOM     15  C   UNL A   1       5.354  -0.098   0.018  0.00  0.00    -0.061 A 
ATOM     16  C   UNL A   1       4.600  -1.223   0.365  0.00  0.00    -0.058 A 
ATOM     17  C   UNL A   1       3.214  -1.142   0.529  0.00  0.00    -0.019 A 
ATOM     18  C   UNL A   1       2.638   0.110   0.329  0.00  0.00    +0.136 A 
ATOM     19  O   UNL A   1       1.312   0.397   0.441  0.00  0.00    -0.452 OA
ENDBRANCH  10  11
ENDBRANCH   7  10
ENDBRANCH   1   8
BRANCH   4  20
ATOM     20  C   UNL A   1      -6.422  -2.764   0.211  0.00  0.00    +0.049 C 
BRANCH  20  21
ATOM     21  C   UNL A   1      -7.679  -1.976  -0.089  0.00  0.00    -0.008 A 
ATOM     22  C   UNL A   1      -7.657  -0.858  -0.945  0.00  0.00    -0.055 A 
ATOM     23  C   UNL A   1      -8.827  -0.156  -1.241  0.00  0.00    -0.060 A 
ATOM     24  C   UNL A   1     -10.044  -0.564  -0.704  0.00  0.00    -0.042 A 
ATOM     25  C   UNL A   1     -10.102  -1.685   0.124  0.00  0.00    +0.060 A 
ATOM     26 CL   UNL A   1     -11.650  -2.141   0.739  0.00  0.00    -0.082 Cl
ATOM     27  C   UNL A   1      -8.928  -2.397   0.427  0.00  0.00    +0.064 A 
ATOM     28 CL   UNL A   1      -9.003  -3.815   1.427  0.00  0.00    -0.082 Cl
ENDBRANCH  20  21
ENDBRANCH   4  20
TORSDOF 5
