REMARK  Name = cpd91.pdb
REMARK  3 active torsions:
REMARK  status: ('A' for Active; 'I' for Inactive)
REMARK    1  A    between atoms: C_2  and  C_3
REMARK    2  A    between atoms: C_2  and  C_11
REMARK    3  A    between atoms: C_7  and  C_8
REMARK                            x       y       z     vdW  Elec       q    Type
REMARK                         _______ _______ _______ _____ _____    ______ ____
ROOT
ATOM      1  C   UNL A   1       0.923   0.730   0.023  0.00  0.00    +0.027 A 
ATOM      2  C   UNL A   1       2.138   0.048   0.149  0.00  0.00    -0.051 A 
ATOM      3  C   UNL A   1       2.154  -1.346   0.249  0.00  0.00    -0.061 A 
ATOM      4  C   UNL A   1       0.961  -2.068   0.227  0.00  0.00    -0.058 A 
ATOM      5  C   UNL A   1      -0.267  -1.406   0.109  0.00  0.00    -0.036 A 
ATOM      6  C   UNL A   1      -0.274  -0.006   0.002  0.00  0.00    -0.047 A 
ENDROOT
BRANCH   1   8
ATOM      7  O   UNL A   1      -0.280   2.743  -0.136  0.00  0.00    -0.283 OA
ATOM      8  C   UNL A   1       0.836   2.219  -0.088  0.00  0.00    +0.265 C 
BRANCH   8   9
ATOM      9  C   UNL A   1       2.131   3.014  -0.128  0.00  0.00    +0.455 C 
ATOM     10  F   UNL A   1       2.941   2.638  -1.158  0.00  0.00    -0.163 F 
ATOM     11  F   UNL A   1       1.937   4.354  -0.270  0.00  0.00    -0.163 F 
ATOM     12  F   UNL A   1       2.869   2.857   1.008  0.00  0.00    -0.163 F 
ENDBRANCH   8   9
ENDBRANCH   1   8
BRANCH   5  13
ATOM     13  C   UNL A   1      -1.552  -2.180   0.068  0.00  0.00    +0.028 C 
ATOM     14 BR   UNL A   1      -1.939  -2.687  -1.768  0.00  0.00    -0.087 Br
ENDBRANCH   5  13
TORSDOF 3
