@<TRIPOS>MOLECULE
*****
 14 14 0 0 0
SMALL
GASTEIGER

@<TRIPOS>ATOM
      1 O           0.0000    2.0000    0.0000 O.2     1  UNL1       -0.2825
      2 C           0.8660    1.5000    0.0000 C.2     1  UNL1        0.2666
      3 C           0.8660    0.5000    0.0000 C.ar    1  UNL1        0.0428
      4 C           1.7321    0.0000    0.0000 C.ar    1  UNL1        0.0031
      5 C           1.7321   -1.0000    0.0000 C.ar    1  UNL1       -0.0002
      6 C           0.8660   -1.5000    0.0000 C.ar    1  UNL1       -0.0034
      7 C           0.0000   -1.0000    0.0000 C.ar    1  UNL1       -0.0107
      8 C          -0.8660   -1.5000    0.0000 C.3     1  UNL1        0.0938
      9 BR         -0.8660   -2.5000    0.0000 Br      1  UNL1       -0.0756
     10 C           0.0000   -0.0000    0.0000 C.ar    1  UNL1       -0.0003
     11 C           1.7321    2.0000    0.0000 C.3     1  UNL1        0.4554
     12 F           2.2321    2.8660    0.0000 F       1  UNL1       -0.1631
     13 F           1.2321    2.8660    0.0000 F       1  UNL1       -0.1631
     14 F           2.5981    1.5000    0.0000 F       1  UNL1       -0.1631
@<TRIPOS>BOND
     1     1     2    2
     2     2     3    1
     3     3     4   ar
     4     4     5   ar
     5     5     6   ar
     6     6     7   ar
     7     7     8    1
     8     8     9    1
     9     7    10   ar
    10     3    10   ar
    11     2    11    1
    12    11    12    1
    13    11    13    1
    14    11    14    1
