MODEL 1
REMARK VINA RESULT:    -7.078      0.000      0.000
REMARK INTER + INTRA:          -8.735
REMARK INTER:                  -8.319
REMARK INTRA:                  -0.415
REMARK UNBOUND:                -0.415
REMARK  Name = cpd91.pdb
REMARK  3 active torsions:
REMARK  status: ('A' for Active; 'I' for Inactive)
REMARK    1  A    between atoms: C_2  and  C_3
REMARK    2  A    between atoms: C_2  and  C_11
REMARK    3  A    between atoms: C_7  and  C_8
REMARK                            x       y       z     vdW  Elec       q    Type
REMARK                         _______ _______ _______ _____ _____    ______ ____
ROOT
ATOM      1  C   UNL A   1      46.275 -40.737 -29.997  0.00  0.00    +0.027 A 
ATOM      2  C   UNL A   1      46.136 -41.772 -30.928  0.00  0.00    -0.051 A 
ATOM      3  C   UNL A   1      47.184 -42.077 -31.801  0.00  0.00    -0.061 A 
ATOM      4  C   UNL A   1      48.374 -41.352 -31.754  0.00  0.00    -0.058 A 
ATOM      5  C   UNL A   1      48.533 -40.307 -30.835  0.00  0.00    -0.036 A 
ATOM      6  C   UNL A   1      47.478 -40.011 -29.957  0.00  0.00    -0.047 A 
ENDROOT
BRANCH   1   8
ATOM      7  O   UNL A   1      44.546 -39.331 -29.249  0.00  0.00    -0.283 OA
ATOM      8  C   UNL A   1      45.193 -40.359 -29.035  0.00  0.00    +0.265 C 
BRANCH   8   9
ATOM      9  C   UNL A   1      44.940 -41.269 -27.844  0.00  0.00    +0.455 C 
ATOM     10  F   UNL A   1      46.065 -41.486 -27.106  0.00  0.00    -0.163 F 
ATOM     11  F   UNL A   1      44.010 -40.779 -26.979  0.00  0.00    -0.163 F 
ATOM     12  F   UNL A   1      44.494 -42.502 -28.221  0.00  0.00    -0.163 F 
ENDBRANCH   8   9
ENDBRANCH   1   8
BRANCH   5  13
ATOM     13  C   UNL A   1      49.818 -39.535 -30.770  0.00  0.00    +0.028 C 
ATOM     14 BR   UNL A   1      49.827 -38.435 -29.168  0.00  0.00    -0.087 Br
ENDBRANCH   5  13
TORSDOF 3
ENDMDL
MODEL 2
REMARK VINA RESULT:    -6.976      7.566      9.011
REMARK INTER + INTRA:          -8.615
REMARK INTER:                  -8.245
REMARK INTRA:                  -0.371
REMARK UNBOUND:                -0.415
REMARK  Name = cpd91.pdb
REMARK  3 active torsions:
REMARK  status: ('A' for Active; 'I' for Inactive)
REMARK    1  A    between atoms: C_2  and  C_3
REMARK    2  A    between atoms: C_2  and  C_11
REMARK    3  A    between atoms: C_7  and  C_8
REMARK                            x       y       z     vdW  Elec       q    Type
REMARK                         _______ _______ _______ _____ _____    ______ ____
ROOT
ATOM      1  C   UNL A   1      40.374 -36.598 -30.834  0.00  0.00    +0.027 A 
ATOM      2  C   UNL A   1      40.706 -35.414 -31.502  0.00  0.00    -0.051 A 
ATOM      3  C   UNL A   1      39.701 -34.531 -31.907  0.00  0.00    -0.061 A 
ATOM      4  C   UNL A   1      38.361 -34.823 -31.653  0.00  0.00    -0.058 A 
ATOM      5  C   UNL A   1      38.006 -36.005 -30.992  0.00  0.00    -0.036 A 
ATOM      6  C   UNL A   1      39.022 -36.884 -30.582  0.00  0.00    -0.047 A 
ENDROOT
BRANCH   1   8
ATOM      7  O   UNL A   1      41.312 -38.037 -29.229  0.00  0.00    -0.283 OA
ATOM      8  C   UNL A   1      41.400 -37.585 -30.374  0.00  0.00    +0.265 C 
BRANCH   8   9
ATOM      9  C   UNL A   1      42.497 -37.987 -31.346  0.00  0.00    +0.455 C 
ATOM     10  F   UNL A   1      42.976 -39.240 -31.099  0.00  0.00    -0.163 F 
ATOM     11  F   UNL A   1      42.093 -37.987 -32.646  0.00  0.00    -0.163 F 
ATOM     12  F   UNL A   1      43.574 -37.153 -31.284  0.00  0.00    -0.163 F 
ENDBRANCH   8   9
ENDBRANCH   1   8
BRANCH   5  13
ATOM     13  C   UNL A   1      36.567 -36.315 -30.701  0.00  0.00    +0.028 C 
ATOM     14 BR   UNL A   1      36.392 -36.878 -28.849  0.00  0.00    -0.087 Br
ENDBRANCH   5  13
TORSDOF 3
ENDMDL
MODEL 3
REMARK VINA RESULT:    -6.833      3.815      5.051
REMARK INTER + INTRA:          -8.447
REMARK INTER:                  -8.127
REMARK INTRA:                  -0.320
REMARK UNBOUND:                -0.415
REMARK  Name = cpd91.pdb
REMARK  3 active torsions:
REMARK  status: ('A' for Active; 'I' for Inactive)
REMARK    1  A    between atoms: C_2  and  C_3
REMARK    2  A    between atoms: C_2  and  C_11
REMARK    3  A    between atoms: C_7  and  C_8
REMARK                            x       y       z     vdW  Elec       q    Type
REMARK                         _______ _______ _______ _____ _____    ______ ____
ROOT
ATOM      1  C   UNL A   1      48.517 -39.006 -30.028  0.00  0.00    +0.027 A 
ATOM      2  C   UNL A   1      48.959 -39.961 -30.950  0.00  0.00    -0.051 A 
ATOM      3  C   UNL A   1      48.158 -41.066 -31.255  0.00  0.00    -0.061 A 
ATOM      4  C   UNL A   1      46.916 -41.227 -30.642  0.00  0.00    -0.058 A 
ATOM      5  C   UNL A   1      46.457 -40.287 -29.712  0.00  0.00    -0.036 A 
ATOM      6  C   UNL A   1      47.263 -39.176 -29.416  0.00  0.00    -0.047 A 
ENDROOT
BRANCH   1   8
ATOM      7  O   UNL A   1      48.864 -36.684 -29.907  0.00  0.00    -0.283 OA
ATOM      8  C   UNL A   1      49.323 -37.802 -29.658  0.00  0.00    +0.265 C 
BRANCH   8   9
ATOM      9  C   UNL A   1      50.669 -38.018 -28.983  0.00  0.00    +0.455 C 
ATOM     10  F   UNL A   1      51.516 -38.771 -29.741  0.00  0.00    -0.163 F 
ATOM     11  F   UNL A   1      51.330 -36.858 -28.716  0.00  0.00    -0.163 F 
ATOM     12  F   UNL A   1      50.550 -38.669 -27.791  0.00  0.00    -0.163 F 
ENDBRANCH   8   9
ENDBRANCH   1   8
BRANCH   5  13
ATOM     13  C   UNL A   1      45.113 -40.447 -29.063  0.00  0.00    +0.028 C 
ATOM     14 BR   UNL A   1      45.062 -42.133 -28.097  0.00  0.00    -0.087 Br
ENDBRANCH   5  13
TORSDOF 3
ENDMDL
MODEL 4
REMARK VINA RESULT:    -6.783      7.392      8.986
REMARK INTER + INTRA:          -8.388
REMARK INTER:                  -8.151
REMARK INTRA:                  -0.237
REMARK UNBOUND:                -0.415
REMARK  Name = cpd91.pdb
REMARK  3 active torsions:
REMARK  status: ('A' for Active; 'I' for Inactive)
REMARK    1  A    between atoms: C_2  and  C_3
REMARK    2  A    between atoms: C_2  and  C_11
REMARK    3  A    between atoms: C_7  and  C_8
REMARK                            x       y       z     vdW  Elec       q    Type
REMARK                         _______ _______ _______ _____ _____    ______ ____
ROOT
ATOM      1  C   UNL A   1      40.212 -37.077 -30.195  0.00  0.00    +0.027 A 
ATOM      2  C   UNL A   1      40.338 -37.835 -29.026  0.00  0.00    -0.051 A 
ATOM      3  C   UNL A   1      39.198 -38.270 -28.345  0.00  0.00    -0.061 A 
ATOM      4  C   UNL A   1      37.927 -37.950 -28.822  0.00  0.00    -0.058 A 
ATOM      5  C   UNL A   1      37.777 -37.186 -29.986  0.00  0.00    -0.036 A 
ATOM      6  C   UNL A   1      38.928 -36.759 -30.668  0.00  0.00    -0.047 A 
ENDROOT
BRANCH   1   8
ATOM      7  O   UNL A   1      41.583 -35.364 -31.039  0.00  0.00    -0.283 OA
ATOM      8  C   UNL A   1      41.391 -36.581 -30.971  0.00  0.00    +0.265 C 
BRANCH   8   9
ATOM      9  C   UNL A   1      42.299 -37.605 -31.633  0.00  0.00    +0.455 C 
ATOM     10  F   UNL A   1      43.618 -37.275 -31.529  0.00  0.00    -0.163 F 
ATOM     11  F   UNL A   1      42.179 -38.853 -31.103  0.00  0.00    -0.163 F 
ATOM     12  F   UNL A   1      42.047 -37.734 -32.967  0.00  0.00    -0.163 F 
ENDBRANCH   8   9
ENDBRANCH   1   8
BRANCH   5  13
ATOM     13  C   UNL A   1      36.412 -36.854 -30.511  0.00  0.00    +0.028 C 
ATOM     14 BR   UNL A   1      36.336 -34.963 -30.955  0.00  0.00    -0.087 Br
ENDBRANCH   5  13
TORSDOF 3
ENDMDL
MODEL 5
REMARK VINA RESULT:    -6.737      7.691      9.312
REMARK INTER + INTRA:          -8.334
REMARK INTER:                  -7.949
REMARK INTRA:                  -0.385
REMARK UNBOUND:                -0.415
REMARK  Name = cpd91.pdb
REMARK  3 active torsions:
REMARK  status: ('A' for Active; 'I' for Inactive)
REMARK    1  A    between atoms: C_2  and  C_3
REMARK    2  A    between atoms: C_2  and  C_11
REMARK    3  A    between atoms: C_7  and  C_8
REMARK                            x       y       z     vdW  Elec       q    Type
REMARK                         _______ _______ _______ _____ _____    ______ ____
ROOT
ATOM      1  C   UNL A   1      40.171 -37.481 -30.113  0.00  0.00    +0.027 A 
ATOM      2  C   UNL A   1      39.952 -38.191 -28.927  0.00  0.00    -0.051 A 
ATOM      3  C   UNL A   1      38.678 -38.221 -28.352  0.00  0.00    -0.061 A 
ATOM      4  C   UNL A   1      37.618 -37.542 -28.952  0.00  0.00    -0.058 A 
ATOM      5  C   UNL A   1      37.816 -36.819 -30.135  0.00  0.00    -0.036 A 
ATOM      6  C   UNL A   1      39.097 -36.800 -30.710  0.00  0.00    -0.047 A 
ENDROOT
BRANCH   1   8
ATOM      7  O   UNL A   1      42.088 -38.462 -31.055  0.00  0.00    -0.283 OA
ATOM      8  C   UNL A   1      41.508 -37.408 -30.779  0.00  0.00    +0.265 C 
BRANCH   8   9
ATOM      9  C   UNL A   1      42.083 -36.036 -31.091  0.00  0.00    +0.455 C 
ATOM     10  F   UNL A   1      41.750 -35.106 -30.151  0.00  0.00    -0.163 F 
ATOM     11  F   UNL A   1      43.442 -36.025 -31.168  0.00  0.00    -0.163 F 
ATOM     12  F   UNL A   1      41.633 -35.546 -32.282  0.00  0.00    -0.163 F 
ENDBRANCH   8   9
ENDBRANCH   1   8
BRANCH   5  13
ATOM     13  C   UNL A   1      36.674 -36.101 -30.793  0.00  0.00    +0.028 C 
ATOM     14 BR   UNL A   1      35.378 -35.580 -29.442  0.00  0.00    -0.087 Br
ENDBRANCH   5  13
TORSDOF 3
ENDMDL
MODEL 6
REMARK VINA RESULT:    -6.488      8.869     10.329
REMARK INTER + INTRA:          -8.041
REMARK INTER:                  -7.650
REMARK INTRA:                  -0.392
REMARK UNBOUND:                -0.415
REMARK  Name = cpd91.pdb
REMARK  3 active torsions:
REMARK  status: ('A' for Active; 'I' for Inactive)
REMARK    1  A    between atoms: C_2  and  C_3
REMARK    2  A    between atoms: C_2  and  C_11
REMARK    3  A    between atoms: C_7  and  C_8
REMARK                            x       y       z     vdW  Elec       q    Type
REMARK                         _______ _______ _______ _____ _____    ______ ____
ROOT
ATOM      1  C   UNL A   1      39.208 -35.976 -31.415  0.00  0.00    +0.027 A 
ATOM      2  C   UNL A   1      38.909 -37.021 -30.534  0.00  0.00    -0.051 A 
ATOM      3  C   UNL A   1      37.699 -37.026 -29.835  0.00  0.00    -0.061 A 
ATOM      4  C   UNL A   1      36.781 -35.990 -30.007  0.00  0.00    -0.058 A 
ATOM      5  C   UNL A   1      37.062 -34.931 -30.878  0.00  0.00    -0.036 A 
ATOM      6  C   UNL A   1      38.277 -34.936 -31.582  0.00  0.00    -0.047 A 
ENDROOT
BRANCH   1   8
ATOM      7  O   UNL A   1      40.423 -35.712 -33.410  0.00  0.00    -0.283 OA
ATOM      8  C   UNL A   1      40.483 -35.910 -32.193  0.00  0.00    +0.265 C 
BRANCH   8   9
ATOM      9  C   UNL A   1      41.793 -36.082 -31.442  0.00  0.00    +0.455 C 
ATOM     10  F   UNL A   1      42.162 -37.390 -31.331  0.00  0.00    -0.163 F 
ATOM     11  F   UNL A   1      42.841 -35.444 -32.031  0.00  0.00    -0.163 F 
ATOM     12  F   UNL A   1      41.726 -35.601 -30.168  0.00  0.00    -0.163 F 
ENDBRANCH   8   9
ENDBRANCH   1   8
BRANCH   5  13
ATOM     13  C   UNL A   1      36.070 -33.822 -31.079  0.00  0.00    +0.028 C 
ATOM     14 BR   UNL A   1      34.687 -33.943 -29.718  0.00  0.00    -0.087 Br
ENDBRANCH   5  13
TORSDOF 3
ENDMDL
MODEL 7
REMARK VINA RESULT:    -6.427     30.987     32.035
REMARK INTER + INTRA:          -7.970
REMARK INTER:                  -7.533
REMARK INTRA:                  -0.436
REMARK UNBOUND:                -0.415
REMARK  Name = cpd91.pdb
REMARK  3 active torsions:
REMARK  status: ('A' for Active; 'I' for Inactive)
REMARK    1  A    between atoms: C_2  and  C_3
REMARK    2  A    between atoms: C_2  and  C_11
REMARK    3  A    between atoms: C_7  and  C_8
REMARK                            x       y       z     vdW  Elec       q    Type
REMARK                         _______ _______ _______ _____ _____    ______ ____
ROOT
ATOM      1  C   UNL A   1      63.999 -25.382  -7.022  0.00  0.00    +0.027 A 
ATOM      2  C   UNL A   1      63.630 -24.421  -6.075  0.00  0.00    -0.051 A 
ATOM      3  C   UNL A   1      63.227 -23.147  -6.486  0.00  0.00    -0.061 A 
ATOM      4  C   UNL A   1      63.192 -22.823  -7.842  0.00  0.00    -0.058 A 
ATOM      5  C   UNL A   1      63.563 -23.767  -8.808  0.00  0.00    -0.036 A 
ATOM      6  C   UNL A   1      63.961 -25.046  -8.386  0.00  0.00    -0.047 A 
ENDROOT
BRANCH   1   8
ATOM      7  O   UNL A   1      65.649 -27.008  -6.625  0.00  0.00    -0.283 OA
ATOM      8  C   UNL A   1      64.440 -26.761  -6.649  0.00  0.00    +0.265 C 
BRANCH   8   9
ATOM      9  C   UNL A   1      63.374 -27.790  -6.309  0.00  0.00    +0.455 C 
ATOM     10  F   UNL A   1      62.369 -27.821  -7.230  0.00  0.00    -0.163 F 
ATOM     11  F   UNL A   1      63.856 -29.061  -6.233  0.00  0.00    -0.163 F 
ATOM     12  F   UNL A   1      62.778 -27.539  -5.109  0.00  0.00    -0.163 F 
ENDBRANCH   8   9
ENDBRANCH   1   8
BRANCH   5  13
ATOM     13  C   UNL A   1      63.511 -23.428 -10.268  0.00  0.00    +0.028 C 
ATOM     14 BR   UNL A   1      63.034 -21.555 -10.477  0.00  0.00    -0.087 Br
ENDBRANCH   5  13
TORSDOF 3
ENDMDL
MODEL 8
REMARK VINA RESULT:    -6.421      8.020      9.475
REMARK INTER + INTRA:          -7.962
REMARK INTER:                  -7.774
REMARK INTRA:                  -0.188
REMARK UNBOUND:                -0.415
REMARK  Name = cpd91.pdb
REMARK  3 active torsions:
REMARK  status: ('A' for Active; 'I' for Inactive)
REMARK    1  A    between atoms: C_2  and  C_3
REMARK    2  A    between atoms: C_2  and  C_11
REMARK    3  A    between atoms: C_7  and  C_8
REMARK                            x       y       z     vdW  Elec       q    Type
REMARK                         _______ _______ _______ _____ _____    ______ ____
ROOT
ATOM      1  C   UNL A   1      39.688 -36.888 -30.655  0.00  0.00    +0.027 A 
ATOM      2  C   UNL A   1      40.475 -37.730 -29.861  0.00  0.00    -0.051 A 
ATOM      3  C   UNL A   1      39.886 -38.494 -28.850  0.00  0.00    -0.061 A 
ATOM      4  C   UNL A   1      38.512 -38.424 -28.623  0.00  0.00    -0.058 A 
ATOM      5  C   UNL A   1      37.706 -37.584 -29.401  0.00  0.00    -0.036 A 
ATOM      6  C   UNL A   1      38.304 -36.824 -30.419  0.00  0.00    -0.047 A 
ENDROOT
BRANCH   1   8
ATOM      7  O   UNL A   1      39.478 -35.519 -32.554  0.00  0.00    -0.283 OA
ATOM      8  C   UNL A   1      40.255 -36.044 -31.752  0.00  0.00    +0.265 C 
BRANCH   8   9
ATOM      9  C   UNL A   1      41.763 -35.869 -31.818  0.00  0.00    +0.455 C 
ATOM     10  F   UNL A   1      42.296 -35.491 -30.622  0.00  0.00    -0.163 F 
ATOM     11  F   UNL A   1      42.423 -37.003 -32.184  0.00  0.00    -0.163 F 
ATOM     12  F   UNL A   1      42.133 -34.910 -32.715  0.00  0.00    -0.163 F 
ENDBRANCH   8   9
ENDBRANCH   1   8
BRANCH   5  13
ATOM     13  C   UNL A   1      36.224 -37.518 -29.171  0.00  0.00    +0.028 C 
ATOM     14 BR   UNL A   1      35.863 -37.640 -27.265  0.00  0.00    -0.087 Br
ENDBRANCH   5  13
TORSDOF 3
ENDMDL
MODEL 9
REMARK VINA RESULT:    -6.351      7.602      8.943
REMARK INTER + INTRA:          -7.880
REMARK INTER:                  -7.462
REMARK INTRA:                  -0.418
REMARK UNBOUND:                -0.415
REMARK  Name = cpd91.pdb
REMARK  3 active torsions:
REMARK  status: ('A' for Active; 'I' for Inactive)
REMARK    1  A    between atoms: C_2  and  C_3
REMARK    2  A    between atoms: C_2  and  C_11
REMARK    3  A    between atoms: C_7  and  C_8
REMARK                            x       y       z     vdW  Elec       q    Type
REMARK                         _______ _______ _______ _____ _____    ______ ____
ROOT
ATOM      1  C   UNL A   1      38.551 -38.048 -28.893  0.00  0.00    +0.027 A 
ATOM      2  C   UNL A   1      39.816 -38.509 -28.512  0.00  0.00    -0.051 A 
ATOM      3  C   UNL A   1      40.953 -38.101 -29.215  0.00  0.00    -0.061 A 
ATOM      4  C   UNL A   1      40.837 -37.235 -30.302  0.00  0.00    -0.058 A 
ATOM      5  C   UNL A   1      39.580 -36.767 -30.705  0.00  0.00    -0.036 A 
ATOM      6  C   UNL A   1      38.443 -37.176 -29.990  0.00  0.00    -0.047 A 
ENDROOT
BRANCH   1   8
ATOM      7  O   UNL A   1      36.945 -37.797 -27.195  0.00  0.00    -0.283 OA
ATOM      8  C   UNL A   1      37.295 -38.446 -28.184  0.00  0.00    +0.265 C 
BRANCH   8   9
ATOM      9  C   UNL A   1      36.508 -39.629 -28.725  0.00  0.00    +0.455 C 
ATOM     10  F   UNL A   1      35.396 -39.896 -27.984  0.00  0.00    -0.163 F 
ATOM     11  F   UNL A   1      36.076 -39.449 -30.004  0.00  0.00    -0.163 F 
ATOM     12  F   UNL A   1      37.241 -40.778 -28.732  0.00  0.00    -0.163 F 
ENDBRANCH   8   9
ENDBRANCH   1   8
BRANCH   5  13
ATOM     13  C   UNL A   1      39.452 -35.822 -31.864  0.00  0.00    +0.028 C 
ATOM     14 BR   UNL A   1      40.893 -36.152 -33.126  0.00  0.00    -0.087 Br
ENDBRANCH   5  13
TORSDOF 3
ENDMDL
MODEL 10
REMARK VINA RESULT:    -6.160      8.549     10.119
REMARK INTER + INTRA:          -7.655
REMARK INTER:                  -7.525
REMARK INTRA:                  -0.130
REMARK UNBOUND:                -0.415
REMARK  Name = cpd91.pdb
REMARK  3 active torsions:
REMARK  status: ('A' for Active; 'I' for Inactive)
REMARK    1  A    between atoms: C_2  and  C_3
REMARK    2  A    between atoms: C_2  and  C_11
REMARK    3  A    between atoms: C_7  and  C_8
REMARK                            x       y       z     vdW  Elec       q    Type
REMARK                         _______ _______ _______ _____ _____    ______ ____
ROOT
ATOM      1  C   UNL A   1      39.192 -36.264 -31.085  0.00  0.00    +0.027 A 
ATOM      2  C   UNL A   1      38.624 -35.101 -31.616  0.00  0.00    -0.051 A 
ATOM      3  C   UNL A   1      37.314 -34.745 -31.283  0.00  0.00    -0.061 A 
ATOM      4  C   UNL A   1      36.563 -35.544 -30.422  0.00  0.00    -0.058 A 
ATOM      5  C   UNL A   1      37.109 -36.716 -29.884  0.00  0.00    -0.036 A 
ATOM      6  C   UNL A   1      38.428 -37.064 -30.219  0.00  0.00    -0.047 A 
ENDROOT
BRANCH   1   8
ATOM      7  O   UNL A   1      41.242 -37.267 -30.520  0.00  0.00    -0.283 OA
ATOM      8  C   UNL A   1      40.587 -36.703 -31.401  0.00  0.00    +0.265 C 
BRANCH   8   9
ATOM      9  C   UNL A   1      41.125 -36.437 -32.797  0.00  0.00    +0.455 C 
ATOM     10  F   UNL A   1      41.910 -35.323 -32.850  0.00  0.00    -0.163 F 
ATOM     11  F   UNL A   1      41.884 -37.456 -33.286  0.00  0.00    -0.163 F 
ATOM     12  F   UNL A   1      40.128 -36.239 -33.707  0.00  0.00    -0.163 F 
ENDBRANCH   8   9
ENDBRANCH   1   8
BRANCH   5  13
ATOM     13  C   UNL A   1      36.310 -37.570 -28.944  0.00  0.00    +0.028 C 
ATOM     14 BR   UNL A   1      37.279 -39.218 -28.593  0.00  0.00    -0.087 Br
ENDBRANCH   5  13
TORSDOF 3
ENDMDL
MODEL 11
REMARK VINA RESULT:    -6.139     31.816     32.791
REMARK INTER + INTRA:          -7.631
REMARK INTER:                  -7.193
REMARK INTRA:                  -0.438
REMARK UNBOUND:                -0.415
REMARK  Name = cpd91.pdb
REMARK  3 active torsions:
REMARK  status: ('A' for Active; 'I' for Inactive)
REMARK    1  A    between atoms: C_2  and  C_3
REMARK    2  A    between atoms: C_2  and  C_11
REMARK    3  A    between atoms: C_7  and  C_8
REMARK                            x       y       z     vdW  Elec       q    Type
REMARK                         _______ _______ _______ _____ _____    ______ ____
ROOT
ATOM      1  C   UNL A   1      64.361 -25.620  -6.955  0.00  0.00    +0.027 A 
ATOM      2  C   UNL A   1      64.267 -25.190  -8.282  0.00  0.00    -0.051 A 
ATOM      3  C   UNL A   1      63.898 -23.873  -8.570  0.00  0.00    -0.061 A 
ATOM      4  C   UNL A   1      63.617 -22.978  -7.537  0.00  0.00    -0.058 A 
ATOM      5  C   UNL A   1      63.696 -23.389  -6.201  0.00  0.00    -0.036 A 
ATOM      6  C   UNL A   1      64.075 -24.712  -5.921  0.00  0.00    -0.047 A 
ENDROOT
BRANCH   1   8
ATOM      7  O   UNL A   1      65.948 -27.309  -6.564  0.00  0.00    -0.283 OA
ATOM      8  C   UNL A   1      64.750 -27.014  -6.579  0.00  0.00    +0.265 C 
BRANCH   8   9
ATOM      9  C   UNL A   1      63.647 -27.999  -6.227  0.00  0.00    +0.455 C 
ATOM     10  F   UNL A   1      63.121 -27.771  -4.990  0.00  0.00    -0.163 F 
ATOM     11  F   UNL A   1      62.598 -27.967  -7.094  0.00  0.00    -0.163 F 
ATOM     12  F   UNL A   1      64.089 -29.289  -6.216  0.00  0.00    -0.163 F 
ENDBRANCH   8   9
ENDBRANCH   1   8
BRANCH   5  13
ATOM     13  C   UNL A   1      63.411 -22.426  -5.087  0.00  0.00    +0.028 C 
ATOM     14 BR   UNL A   1      64.218 -23.084  -3.445  0.00  0.00    -0.087 Br
ENDBRANCH   5  13
TORSDOF 3
ENDMDL
MODEL 12
REMARK VINA RESULT:    -6.086      8.867     10.055
REMARK INTER + INTRA:          -7.568
REMARK INTER:                  -7.362
REMARK INTRA:                  -0.206
REMARK UNBOUND:                -0.415
REMARK  Name = cpd91.pdb
REMARK  3 active torsions:
REMARK  status: ('A' for Active; 'I' for Inactive)
REMARK    1  A    between atoms: C_2  and  C_3
REMARK    2  A    between atoms: C_2  and  C_11
REMARK    3  A    between atoms: C_7  and  C_8
REMARK                            x       y       z     vdW  Elec       q    Type
REMARK                         _______ _______ _______ _____ _____    ______ ____
ROOT
ATOM      1  C   UNL A   1      38.037 -36.206 -31.272  0.00  0.00    +0.027 A 
ATOM      2  C   UNL A   1      38.535 -35.592 -32.426  0.00  0.00    -0.051 A 
ATOM      3  C   UNL A   1      39.883 -35.731 -32.770  0.00  0.00    -0.061 A 
ATOM      4  C   UNL A   1      40.742 -36.479 -31.965  0.00  0.00    -0.058 A 
ATOM      5  C   UNL A   1      40.267 -37.096 -30.801  0.00  0.00    -0.036 A 
ATOM      6  C   UNL A   1      38.911 -36.957 -30.467  0.00  0.00    -0.047 A 
ENDROOT
BRANCH   1   8
ATOM      7  O   UNL A   1      36.002 -37.128 -30.542  0.00  0.00    -0.283 OA
ATOM      8  C   UNL A   1      36.607 -36.097 -30.847  0.00  0.00    +0.265 C 
BRANCH   8   9
ATOM      9  C   UNL A   1      35.972 -34.717 -30.806  0.00  0.00    +0.455 C 
ATOM     10  F   UNL A   1      36.888 -33.718 -30.955  0.00  0.00    -0.163 F 
ATOM     11  F   UNL A   1      35.041 -34.522 -31.780  0.00  0.00    -0.163 F 
ATOM     12  F   UNL A   1      35.339 -34.474 -29.623  0.00  0.00    -0.163 F 
ENDBRANCH   8   9
ENDBRANCH   1   8
BRANCH   5  13
ATOM     13  C   UNL A   1      41.184 -37.915 -29.942  0.00  0.00    +0.028 C 
ATOM     14 BR   UNL A   1      42.832 -38.266 -30.912  0.00  0.00    -0.087 Br
ENDBRANCH   5  13
TORSDOF 3
ENDMDL
MODEL 13
REMARK VINA RESULT:    -6.000      7.835      9.188
REMARK INTER + INTRA:          -7.467
REMARK INTER:                  -7.019
REMARK INTRA:                  -0.448
REMARK UNBOUND:                -0.415
REMARK  Name = cpd91.pdb
REMARK  3 active torsions:
REMARK  status: ('A' for Active; 'I' for Inactive)
REMARK    1  A    between atoms: C_2  and  C_3
REMARK    2  A    between atoms: C_2  and  C_11
REMARK    3  A    between atoms: C_7  and  C_8
REMARK                            x       y       z     vdW  Elec       q    Type
REMARK                         _______ _______ _______ _____ _____    ______ ____
ROOT
ATOM      1  C   UNL A   1      37.777 -37.483 -29.356  0.00  0.00    +0.027 A 
ATOM      2  C   UNL A   1      37.082 -36.622 -30.212  0.00  0.00    -0.051 A 
ATOM      3  C   UNL A   1      37.776 -35.854 -31.151  0.00  0.00    -0.061 A 
ATOM      4  C   UNL A   1      39.165 -35.936 -31.242  0.00  0.00    -0.058 A 
ATOM      5  C   UNL A   1      39.882 -36.785 -30.390  0.00  0.00    -0.036 A 
ATOM      6  C   UNL A   1      39.177 -37.559 -29.454  0.00  0.00    -0.047 A 
ENDROOT
BRANCH   1   8
ATOM      7  O   UNL A   1      36.806 -37.823 -27.243  0.00  0.00    -0.283 OA
ATOM      8  C   UNL A   1      37.097 -38.331 -28.329  0.00  0.00    +0.265 C 
BRANCH   8   9
ATOM      9  C   UNL A   1      36.789 -39.777 -28.681  0.00  0.00    +0.455 C 
ATOM     10  F   UNL A   1      36.485 -39.939 -30.000  0.00  0.00    -0.163 F 
ATOM     11  F   UNL A   1      37.822 -40.626 -28.425  0.00  0.00    -0.163 F 
ATOM     12  F   UNL A   1      35.720 -40.262 -27.987  0.00  0.00    -0.163 F 
ENDBRANCH   8   9
ENDBRANCH   1   8
BRANCH   5  13
ATOM     13  C   UNL A   1      41.376 -36.890 -30.495  0.00  0.00    +0.028 C 
ATOM     14 BR   UNL A   1      42.018 -35.614 -31.813  0.00  0.00    -0.087 Br
ENDBRANCH   5  13
TORSDOF 3
ENDMDL
MODEL 14
REMARK VINA RESULT:    -5.885      8.400      9.701
REMARK INTER + INTRA:          -7.333
REMARK INTER:                  -6.908
REMARK INTRA:                  -0.425
REMARK UNBOUND:                -0.415
REMARK  Name = cpd91.pdb
REMARK  3 active torsions:
REMARK  status: ('A' for Active; 'I' for Inactive)
REMARK    1  A    between atoms: C_2  and  C_3
REMARK    2  A    between atoms: C_2  and  C_11
REMARK    3  A    between atoms: C_7  and  C_8
REMARK                            x       y       z     vdW  Elec       q    Type
REMARK                         _______ _______ _______ _____ _____    ______ ____
ROOT
ATOM      1  C   UNL A   1      37.786 -37.464 -29.818  0.00  0.00    +0.027 A 
ATOM      2  C   UNL A   1      38.163 -38.046 -28.603  0.00  0.00    -0.051 A 
ATOM      3  C   UNL A   1      39.516 -38.230 -28.302  0.00  0.00    -0.061 A 
ATOM      4  C   UNL A   1      40.499 -37.838 -29.210  0.00  0.00    -0.058 A 
ATOM      5  C   UNL A   1      40.145 -37.261 -30.435  0.00  0.00    -0.036 A 
ATOM      6  C   UNL A   1      38.784 -37.073 -30.727  0.00  0.00    -0.047 A 
ENDROOT
BRANCH   1   8
ATOM      7  O   UNL A   1      35.787 -38.097 -30.880  0.00  0.00    -0.283 OA
ATOM      8  C   UNL A   1      36.358 -37.240 -30.201  0.00  0.00    +0.265 C 
BRANCH   8   9
ATOM      9  C   UNL A   1      35.678 -35.966 -29.726  0.00  0.00    +0.455 C 
ATOM     10  F   UNL A   1      35.536 -35.926 -28.371  0.00  0.00    -0.163 F 
ATOM     11  F   UNL A   1      36.352 -34.834 -30.069  0.00  0.00    -0.163 F 
ATOM     12  F   UNL A   1      34.422 -35.828 -30.240  0.00  0.00    -0.163 F 
ENDBRANCH   8   9
ENDBRANCH   1   8
BRANCH   5  13
ATOM     13  C   UNL A   1      41.200 -36.822 -31.407  0.00  0.00    +0.028 C 
ATOM     14 BR   UNL A   1      42.779 -37.935 -31.188  0.00  0.00    -0.087 Br
ENDBRANCH   5  13
TORSDOF 3
ENDMDL
MODEL 15
REMARK VINA RESULT:    -5.777     23.058     23.841
REMARK INTER + INTRA:          -7.205
REMARK INTER:                  -6.790
REMARK INTRA:                  -0.415
REMARK UNBOUND:                -0.415
REMARK  Name = cpd91.pdb
REMARK  3 active torsions:
REMARK  status: ('A' for Active; 'I' for Inactive)
REMARK    1  A    between atoms: C_2  and  C_3
REMARK    2  A    between atoms: C_2  and  C_11
REMARK    3  A    between atoms: C_7  and  C_8
REMARK                            x       y       z     vdW  Elec       q    Type
REMARK                         _______ _______ _______ _____ _____    ______ ____
ROOT
ATOM      1  C   UNL A   1      46.348 -20.557 -41.964  0.00  0.00    +0.027 A 
ATOM      2  C   UNL A   1      45.232 -20.786 -42.776  0.00  0.00    -0.051 A 
ATOM      3  C   UNL A   1      44.207 -19.838 -42.845  0.00  0.00    -0.061 A 
ATOM      4  C   UNL A   1      44.286 -18.659 -42.104  0.00  0.00    -0.058 A 
ATOM      5  C   UNL A   1      45.390 -18.412 -41.279  0.00  0.00    -0.036 A 
ATOM      6  C   UNL A   1      46.418 -19.366 -41.221  0.00  0.00    -0.047 A 
ENDROOT
BRANCH   1   8
ATOM      7  O   UNL A   1      48.630 -21.117 -42.006  0.00  0.00    -0.283 OA
ATOM      8  C   UNL A   1      47.478 -21.529 -41.846  0.00  0.00    +0.265 C 
BRANCH   8   9
ATOM      9  C   UNL A   1      47.149 -22.978 -41.526  0.00  0.00    +0.455 C 
ATOM     10  F   UNL A   1      46.150 -23.094 -40.605  0.00  0.00    -0.163 F 
ATOM     11  F   UNL A   1      46.746 -23.693 -42.612  0.00  0.00    -0.163 F 
ATOM     12  F   UNL A   1      48.218 -23.649 -41.008  0.00  0.00    -0.163 F 
ENDBRANCH   8   9
ENDBRANCH   1   8
BRANCH   5  13
ATOM     13  C   UNL A   1      45.487 -17.138 -40.492  0.00  0.00    +0.028 C 
ATOM     14 BR   UNL A   1      47.189 -16.278 -40.869  0.00  0.00    -0.087 Br
ENDBRANCH   5  13
TORSDOF 3
ENDMDL
MODEL 16
REMARK VINA RESULT:    -5.725      2.545      3.243
REMARK INTER + INTRA:          -7.144
REMARK INTER:                  -6.748
REMARK INTRA:                  -0.397
REMARK UNBOUND:                -0.415
REMARK  Name = cpd91.pdb
REMARK  3 active torsions:
REMARK  status: ('A' for Active; 'I' for Inactive)
REMARK    1  A    between atoms: C_2  and  C_3
REMARK    2  A    between atoms: C_2  and  C_11
REMARK    3  A    between atoms: C_7  and  C_8
REMARK                            x       y       z     vdW  Elec       q    Type
REMARK                         _______ _______ _______ _____ _____    ______ ____
ROOT
ATOM      1  C   UNL A   1      46.893 -39.747 -29.612  0.00  0.00    +0.027 A 
ATOM      2  C   UNL A   1      48.291 -39.808 -29.600  0.00  0.00    -0.051 A 
ATOM      3  C   UNL A   1      49.044 -38.634 -29.513  0.00  0.00    -0.061 A 
ATOM      4  C   UNL A   1      48.411 -37.393 -29.441  0.00  0.00    -0.058 A 
ATOM      5  C   UNL A   1      47.013 -37.308 -29.459  0.00  0.00    -0.036 A 
ATOM      6  C   UNL A   1      46.264 -38.493 -29.539  0.00  0.00    -0.047 A 
ENDROOT
BRANCH   1   8
ATOM      7  O   UNL A   1      46.186 -41.730 -30.658  0.00  0.00    -0.283 OA
ATOM      8  C   UNL A   1      46.029 -40.964 -29.703  0.00  0.00    +0.265 C 
BRANCH   8   9
ATOM      9  C   UNL A   1      45.004 -41.202 -28.606  0.00  0.00    +0.455 C 
ATOM     10  F   UNL A   1      45.497 -40.930 -27.365  0.00  0.00    -0.163 F 
ATOM     11  F   UNL A   1      43.883 -40.441 -28.742  0.00  0.00    -0.163 F 
ATOM     12  F   UNL A   1      44.579 -42.497 -28.568  0.00  0.00    -0.163 F 
ENDBRANCH   8   9
ENDBRANCH   1   8
BRANCH   5  13
ATOM     13  C   UNL A   1      46.327 -35.977 -29.365  0.00  0.00    +0.028 C 
ATOM     14 BR   UNL A   1      44.801 -35.954 -30.568  0.00  0.00    -0.087 Br
ENDBRANCH   5  13
TORSDOF 3
ENDMDL
MODEL 17
REMARK VINA RESULT:    -5.510      9.520     10.766
REMARK INTER + INTRA:          -6.892
REMARK INTER:                  -6.437
REMARK INTRA:                  -0.455
REMARK UNBOUND:                -0.415
REMARK  Name = cpd91.pdb
REMARK  3 active torsions:
REMARK  status: ('A' for Active; 'I' for Inactive)
REMARK    1  A    between atoms: C_2  and  C_3
REMARK    2  A    between atoms: C_2  and  C_11
REMARK    3  A    between atoms: C_7  and  C_8
REMARK                            x       y       z     vdW  Elec       q    Type
REMARK                         _______ _______ _______ _____ _____    ______ ____
ROOT
ATOM      1  C   UNL A   1      37.694 -37.131 -29.691  0.00  0.00    +0.027 A 
ATOM      2  C   UNL A   1      38.823 -37.063 -30.515  0.00  0.00    -0.051 A 
ATOM      3  C   UNL A   1      38.943 -36.038 -31.458  0.00  0.00    -0.061 A 
ATOM      4  C   UNL A   1      37.940 -35.078 -31.588  0.00  0.00    -0.058 A 
ATOM      5  C   UNL A   1      36.799 -35.131 -30.779  0.00  0.00    -0.036 A 
ATOM      6  C   UNL A   1      36.689 -36.159 -29.829  0.00  0.00    -0.047 A 
ENDROOT
BRANCH   1   8
ATOM      7  O   UNL A   1      37.984 -38.031 -27.539  0.00  0.00    -0.283 OA
ATOM      8  C   UNL A   1      37.504 -38.200 -28.663  0.00  0.00    +0.265 C 
BRANCH   8   9
ATOM      9  C   UNL A   1      36.718 -39.442 -29.053  0.00  0.00    +0.455 C 
ATOM     10  F   UNL A   1      36.459 -39.494 -30.391  0.00  0.00    -0.163 F 
ATOM     11  F   UNL A   1      37.359 -40.603 -28.747  0.00  0.00    -0.163 F 
ATOM     12  F   UNL A   1      35.506 -39.503 -28.432  0.00  0.00    -0.163 F 
ENDBRANCH   8   9
ENDBRANCH   1   8
BRANCH   5  13
ATOM     13  C   UNL A   1      35.725 -34.090 -30.903  0.00  0.00    +0.028 C 
ATOM     14 BR   UNL A   1      34.384 -34.381 -29.526  0.00  0.00    -0.087 Br
ENDBRANCH   5  13
TORSDOF 3
ENDMDL
MODEL 18
REMARK VINA RESULT:    -5.484     10.555     11.825
REMARK INTER + INTRA:          -6.861
REMARK INTER:                  -6.416
REMARK INTRA:                  -0.445
REMARK UNBOUND:                -0.415
REMARK  Name = cpd91.pdb
REMARK  3 active torsions:
REMARK  status: ('A' for Active; 'I' for Inactive)
REMARK    1  A    between atoms: C_2  and  C_3
REMARK    2  A    between atoms: C_2  and  C_11
REMARK    3  A    between atoms: C_7  and  C_8
REMARK                            x       y       z     vdW  Elec       q    Type
REMARK                         _______ _______ _______ _____ _____    ______ ____
ROOT
ATOM      1  C   UNL A   1      36.397 -35.170 -30.760  0.00  0.00    +0.027 A 
ATOM      2  C   UNL A   1      36.313 -36.046 -29.672  0.00  0.00    -0.051 A 
ATOM      3  C   UNL A   1      37.394 -36.871 -29.350  0.00  0.00    -0.061 A 
ATOM      4  C   UNL A   1      38.563 -36.831 -30.110  0.00  0.00    -0.058 A 
ATOM      5  C   UNL A   1      38.666 -35.967 -31.207  0.00  0.00    -0.036 A 
ATOM      6  C   UNL A   1      37.579 -35.136 -31.520  0.00  0.00    -0.047 A 
ENDROOT
BRANCH   1   8
ATOM      7  O   UNL A   1      35.333 -33.075 -30.823  0.00  0.00    -0.283 OA
ATOM      8  C   UNL A   1      35.278 -34.261 -31.158  0.00  0.00    +0.265 C 
BRANCH   8   9
ATOM      9  C   UNL A   1      34.130 -34.845 -31.964  0.00  0.00    +0.455 C 
ATOM     10  F   UNL A   1      34.521 -35.892 -32.744  0.00  0.00    -0.163 F 
ATOM     11  F   UNL A   1      33.110 -35.310 -31.192  0.00  0.00    -0.163 F 
ATOM     12  F   UNL A   1      33.576 -33.931 -32.812  0.00  0.00    -0.163 F 
ENDBRANCH   8   9
ENDBRANCH   1   8
BRANCH   5  13
ATOM     13  C   UNL A   1      39.928 -35.909 -32.018  0.00  0.00    +0.028 C 
ATOM     14 BR   UNL A   1      41.335 -36.877 -31.089  0.00  0.00    -0.087 Br
ENDBRANCH   5  13
TORSDOF 3
ENDMDL
MODEL 19
REMARK VINA RESULT:    -5.440     21.775     22.542
REMARK INTER + INTRA:          -6.810
REMARK INTER:                  -6.389
REMARK INTRA:                  -0.421
REMARK UNBOUND:                -0.415
REMARK  Name = cpd91.pdb
REMARK  3 active torsions:
REMARK  status: ('A' for Active; 'I' for Inactive)
REMARK    1  A    between atoms: C_2  and  C_3
REMARK    2  A    between atoms: C_2  and  C_11
REMARK    3  A    between atoms: C_7  and  C_8
REMARK                            x       y       z     vdW  Elec       q    Type
REMARK                         _______ _______ _______ _____ _____    ______ ____
ROOT
ATOM      1  C   UNL A   1      46.084 -21.516 -41.489  0.00  0.00    +0.027 A 
ATOM      2  C   UNL A   1      45.128 -21.692 -42.494  0.00  0.00    -0.051 A 
ATOM      3  C   UNL A   1      43.768 -21.552 -42.203  0.00  0.00    -0.061 A 
ATOM      4  C   UNL A   1      43.353 -21.239 -40.908  0.00  0.00    -0.058 A 
ATOM      5  C   UNL A   1      44.293 -21.066 -39.885  0.00  0.00    -0.036 A 
ATOM      6  C   UNL A   1      45.657 -21.201 -40.187  0.00  0.00    -0.047 A 
ENDROOT
BRANCH   1   8
ATOM      7  O   UNL A   1      48.201 -20.641 -42.017  0.00  0.00    -0.283 OA
ATOM      8  C   UNL A   1      47.554 -21.652 -41.734  0.00  0.00    +0.265 C 
BRANCH   8   9
ATOM      9  C   UNL A   1      48.178 -23.033 -41.613  0.00  0.00    +0.455 C 
ATOM     10  F   UNL A   1      47.526 -23.822 -40.712  0.00  0.00    -0.163 F 
ATOM     11  F   UNL A   1      48.187 -23.725 -42.785  0.00  0.00    -0.163 F 
ATOM     12  F   UNL A   1      49.475 -22.979 -41.195  0.00  0.00    -0.163 F 
ENDBRANCH   8   9
ENDBRANCH   1   8
BRANCH   5  13
ATOM     13  C   UNL A   1      43.852 -20.712 -38.495  0.00  0.00    +0.028 C 
ATOM     14 BR   UNL A   1      42.062 -21.406 -38.191  0.00  0.00    -0.087 Br
ENDBRANCH   5  13
TORSDOF 3
ENDMDL
MODEL 20
REMARK VINA RESULT:    -5.261     10.648     11.989
REMARK INTER + INTRA:          -6.599
REMARK INTER:                  -6.146
REMARK INTRA:                  -0.452
REMARK UNBOUND:                -0.415
REMARK  Name = cpd91.pdb
REMARK  3 active torsions:
REMARK  status: ('A' for Active; 'I' for Inactive)
REMARK    1  A    between atoms: C_2  and  C_3
REMARK    2  A    between atoms: C_2  and  C_11
REMARK    3  A    between atoms: C_7  and  C_8
REMARK                            x       y       z     vdW  Elec       q    Type
REMARK                         _______ _______ _______ _____ _____    ______ ____
ROOT
ATOM      1  C   UNL A   1      35.944 -35.730 -30.723  0.00  0.00    +0.027 A 
ATOM      2  C   UNL A   1      35.927 -36.525 -29.572  0.00  0.00    -0.051 A 
ATOM      3  C   UNL A   1      37.101 -37.133 -29.120  0.00  0.00    -0.061 A 
ATOM      4  C   UNL A   1      38.298 -36.955 -29.814  0.00  0.00    -0.058 A 
ATOM      5  C   UNL A   1      38.338 -36.170 -30.972  0.00  0.00    -0.036 A 
ATOM      6  C   UNL A   1      37.155 -35.557 -31.416  0.00  0.00    -0.047 A 
ENDROOT
BRANCH   1   8
ATOM      7  O   UNL A   1      34.021 -35.659 -32.073  0.00  0.00    -0.283 OA
ATOM      8  C   UNL A   1      34.723 -35.053 -31.260  0.00  0.00    +0.265 C 
BRANCH   8   9
ATOM      9  C   UNL A   1      34.405 -33.650 -30.768  0.00  0.00    +0.455 C 
ATOM     10  F   UNL A   1      34.526 -32.714 -31.752  0.00  0.00    -0.163 F 
ATOM     11  F   UNL A   1      33.140 -33.524 -30.280  0.00  0.00    -0.163 F 
ATOM     12  F   UNL A   1      35.239 -33.252 -29.765  0.00  0.00    -0.163 F 
ENDBRANCH   8   9
ENDBRANCH   1   8
BRANCH   5  13
ATOM     13  C   UNL A   1      39.627 -35.963 -31.712  0.00  0.00    +0.028 C 
ATOM     14 BR   UNL A   1      41.071 -36.833 -30.744  0.00  0.00    -0.087 Br
ENDBRANCH   5  13
TORSDOF 3
ENDMDL
