MODEL 1
REMARK VINA RESULT:    -6.766      0.000      0.000
REMARK INTER + INTRA:         -13.712
REMARK INTER:                 -10.128
REMARK INTRA:                  -3.585
REMARK UNBOUND:                -3.585
REMARK  Name = cpd334.pdb
REMARK  10 active torsions:
REMARK  status: ('A' for Active; 'I' for Inactive)
REMARK    1  A    between atoms: C_1  and  C_2
REMARK    2  A    between atoms: C_2  and  C_4
REMARK    3  A    between atoms: C_4  and  C_13
REMARK    4  A    between atoms: C_5  and  C_6
REMARK    5  A    between atoms: C_9  and  O_10
REMARK    6  A    between atoms: N_15  and  C_16
REMARK    7  A    between atoms: C_16  and  C_17
REMARK    8  A    between atoms: C_17  and  C_18
REMARK    9  A    between atoms: C_18  and  N_19
REMARK   10  A    between atoms: N_19  and  C_20
REMARK                            x       y       z     vdW  Elec       q    Type
REMARK                         _______ _______ _______ _____ _____    ______ ____
ROOT
ATOM      1  C   UNL A   1      32.741 -36.821 -33.208  0.00  0.00    +0.013 C 
ENDROOT
BRANCH   1   4
ATOM      2  C   UNL A   1      31.211 -38.528 -32.135  0.00  0.00    +0.247 C 
ATOM      3  O   UNL A   1      30.066 -38.867 -31.852  0.00  0.00    -0.270 OA
ATOM      4  N   UNL A   1      31.450 -37.387 -32.845  0.00  0.00    -0.311 N 
ATOM      5  H   UNL A   1      30.657 -36.888 -33.148  0.00  0.00    +0.000 HD
BRANCH   2   6
ATOM      6  C   UNL A   1      32.371 -39.359 -31.741  0.00  0.00    +0.079 C 
ATOM      7  C   UNL A   1      32.943 -39.064 -30.558  0.00  0.00    -0.039 C 
BRANCH   7   8
ATOM      8  C   UNL A   1      34.060 -39.773 -29.923  0.00  0.00    -0.024 A 
ATOM      9  C   UNL A   1      33.899 -40.458 -28.713  0.00  0.00    -0.051 A 
ATOM     10  C   UNL A   1      34.987 -41.095 -28.109  0.00  0.00    -0.020 A 
ATOM     11  C   UNL A   1      36.238 -41.032 -28.714  0.00  0.00    +0.117 A 
ATOM     12  C   UNL A   1      36.418 -40.342 -29.907  0.00  0.00    -0.020 A 
ATOM     13  C   UNL A   1      35.329 -39.709 -30.511  0.00  0.00    -0.051 A 
BRANCH  11  14
ATOM     14  O   UNL A   1      37.326 -41.636 -28.160  0.00  0.00    -0.507 OA
ATOM     15  H   UNL A   1      37.365 -41.776 -27.234  0.00  0.00    +0.000 HD
ENDBRANCH  11  14
ENDBRANCH   7   8
BRANCH   6  17
ATOM     16  C   UNL A   1      32.461 -41.878 -32.178  0.00  0.00    -0.001 C 
ATOM     17  C   UNL A   1      32.795 -40.478 -32.622  0.00  0.00    +0.165 C 
ATOM     18  O   UNL A   1      33.350 -40.265 -33.698  0.00  0.00    -0.292 OA
ENDBRANCH   6  17
ENDBRANCH   2   6
ENDBRANCH   1   4
BRANCH   1  19
ATOM     19  C   UNL A   1      33.216 -35.774 -32.206  0.00  0.00    -0.022 C 
BRANCH  19  20
ATOM     20  C   UNL A   1      34.741 -35.681 -32.153  0.00  0.00    +0.011 C 
BRANCH  20  21
ATOM     21  N   UNL A   1      35.201 -35.032 -30.913  0.00  0.00    -0.343 N 
ATOM     22  H   UNL A   1      35.040 -34.083 -30.706  0.00  0.00    +0.000 HD
BRANCH  21  23
ATOM     23  C   UNL A   1      35.903 -35.919 -30.039  0.00  0.00    +0.041 A 
ATOM     24  C   UNL A   1      37.245 -36.280 -30.286  0.00  0.00    -0.005 A 
ATOM     25  C   UNL A   1      37.900 -37.038 -29.311  0.00  0.00    +0.047 A 
ATOM     26  N   UNL A   1      37.300 -37.463 -28.174  0.00  0.00    -0.251 NA
ATOM     27  C   UNL A   1      36.014 -37.158 -27.961  0.00  0.00    +0.073 A 
ATOM     28  C   UNL A   1      35.409 -37.623 -26.799  0.00  0.00    -0.036 A 
ATOM     29  C   UNL A   1      34.069 -37.366 -26.508  0.00  0.00    -0.060 A 
ATOM     30  C   UNL A   1      33.304 -36.631 -27.400  0.00  0.00    -0.061 A 
ATOM     31  C   UNL A   1      33.891 -36.152 -28.570  0.00  0.00    -0.051 A 
ATOM     32  C   UNL A   1      35.256 -36.391 -28.864  0.00  0.00    +0.021 A 
ATOM     33  C   UNL A   1      39.325 -37.502 -29.481  0.00  0.00    -0.010 C 
ATOM     34  C   UNL A   1      40.100 -36.718 -30.531  0.00  0.00    -0.047 C 
ATOM     35  C   UNL A   1      39.272 -36.606 -31.801  0.00  0.00    -0.049 C 
ATOM     36  C   UNL A   1      37.984 -35.831 -31.527  0.00  0.00    -0.024 C 
ENDBRANCH  21  23
ENDBRANCH  20  21
ENDBRANCH  19  20
ENDBRANCH   1  19
TORSDOF 9
ENDMDL
MODEL 2
REMARK VINA RESULT:    -6.579     17.620     20.677
REMARK INTER + INTRA:         -13.432
REMARK INTER:                 -11.333
REMARK INTRA:                  -2.100
REMARK UNBOUND:                -3.585
REMARK  Name = cpd334.pdb
REMARK  10 active torsions:
REMARK  status: ('A' for Active; 'I' for Inactive)
REMARK    1  A    between atoms: C_1  and  C_2
REMARK    2  A    between atoms: C_2  and  C_4
REMARK    3  A    between atoms: C_4  and  C_13
REMARK    4  A    between atoms: C_5  and  C_6
REMARK    5  A    between atoms: C_9  and  O_10
REMARK    6  A    between atoms: N_15  and  C_16
REMARK    7  A    between atoms: C_16  and  C_17
REMARK    8  A    between atoms: C_17  and  C_18
REMARK    9  A    between atoms: C_18  and  N_19
REMARK   10  A    between atoms: N_19  and  C_20
REMARK                            x       y       z     vdW  Elec       q    Type
REMARK                         _______ _______ _______ _____ _____    ______ ____
ROOT
ATOM      1  C   UNL A   1      39.412 -21.672 -38.115  0.00  0.00    +0.013 C 
ENDROOT
BRANCH   1   4
ATOM      2  C   UNL A   1      39.031 -23.044 -36.023  0.00  0.00    +0.247 C 
ATOM      3  O   UNL A   1      38.753 -24.132 -35.528  0.00  0.00    -0.270 OA
ATOM      4  N   UNL A   1      39.147 -22.897 -37.376  0.00  0.00    -0.311 N 
ATOM      5  H   UNL A   1      39.039 -23.715 -37.913  0.00  0.00    +0.000 HD
BRANCH   2   6
ATOM      6  C   UNL A   1      39.279 -21.860 -35.170  0.00  0.00    +0.079 C 
ATOM      7  C   UNL A   1      40.541 -21.390 -35.152  0.00  0.00    -0.039 C 
BRANCH   7   8
ATOM      8  C   UNL A   1      41.025 -20.203 -34.438  0.00  0.00    -0.024 A 
ATOM      9  C   UNL A   1      40.753 -18.909 -34.900  0.00  0.00    -0.051 A 
ATOM     10  C   UNL A   1      41.256 -17.795 -34.222  0.00  0.00    -0.020 A 
ATOM     11  C   UNL A   1      42.042 -17.981 -33.090  0.00  0.00    +0.117 A 
ATOM     12  C   UNL A   1      42.335 -19.259 -32.628  0.00  0.00    -0.020 A 
ATOM     13  C   UNL A   1      41.828 -20.372 -33.304  0.00  0.00    -0.051 A 
BRANCH  11  14
ATOM     14  O   UNL A   1      42.555 -16.925 -32.399  0.00  0.00    -0.507 OA
ATOM     15  H   UNL A   1      42.021 -16.175 -32.223  0.00  0.00    +0.000 HD
ENDBRANCH  11  14
ENDBRANCH   7   8
BRANCH   6  17
ATOM     16  C   UNL A   1      37.991 -21.562 -32.979  0.00  0.00    -0.001 C 
ATOM     17  C   UNL A   1      38.142 -21.238 -34.442  0.00  0.00    +0.165 C 
ATOM     18  O   UNL A   1      37.385 -20.447 -35.002  0.00  0.00    -0.292 OA
ENDBRANCH   6  17
ENDBRANCH   2   6
ENDBRANCH   1   4
BRANCH   1  19
ATOM     19  C   UNL A   1      40.361 -21.897 -39.287  0.00  0.00    -0.022 C 
BRANCH  19  20
ATOM     20  C   UNL A   1      41.825 -21.902 -38.846  0.00  0.00    +0.011 C 
BRANCH  20  21
ATOM     21  N   UNL A   1      42.552 -20.733 -39.372  0.00  0.00    -0.343 N 
ATOM     22  H   UNL A   1      42.109 -19.972 -39.813  0.00  0.00    +0.000 HD
BRANCH  21  23
ATOM     23  C   UNL A   1      43.966 -20.813 -39.177  0.00  0.00    +0.041 A 
ATOM     24  C   UNL A   1      44.557 -20.459 -37.945  0.00  0.00    -0.005 A 
ATOM     25  C   UNL A   1      45.926 -20.697 -37.794  0.00  0.00    +0.047 A 
ATOM     26  N   UNL A   1      46.704 -21.214 -38.775  0.00  0.00    -0.251 NA
ATOM     27  C   UNL A   1      46.150 -21.509 -39.958  0.00  0.00    +0.073 A 
ATOM     28  C   UNL A   1      46.969 -22.016 -40.960  0.00  0.00    -0.036 A 
ATOM     29  C   UNL A   1      46.477 -22.333 -42.228  0.00  0.00    -0.060 A 
ATOM     30  C   UNL A   1      45.135 -22.134 -42.511  0.00  0.00    -0.061 A 
ATOM     31  C   UNL A   1      44.296 -21.629 -41.519  0.00  0.00    -0.051 A 
ATOM     32  C   UNL A   1      44.781 -21.323 -40.224  0.00  0.00    +0.021 A 
ATOM     33  C   UNL A   1      46.667 -20.334 -36.531  0.00  0.00    -0.010 C 
ATOM     34  C   UNL A   1      45.757 -20.133 -35.327  0.00  0.00    -0.047 C 
ATOM     35  C   UNL A   1      44.594 -19.232 -35.708  0.00  0.00    -0.049 C 
ATOM     36  C   UNL A   1      43.751 -19.889 -36.800  0.00  0.00    -0.024 C 
ENDBRANCH  21  23
ENDBRANCH  20  21
ENDBRANCH  19  20
ENDBRANCH   1  19
TORSDOF 9
ENDMDL
MODEL 3
REMARK VINA RESULT:    -6.449      0.862      3.401
REMARK INTER + INTRA:         -13.238
REMARK INTER:                 -10.693
REMARK INTRA:                  -2.545
REMARK UNBOUND:                -3.585
REMARK  Name = cpd334.pdb
REMARK  10 active torsions:
REMARK  status: ('A' for Active; 'I' for Inactive)
REMARK    1  A    between atoms: C_1  and  C_2
REMARK    2  A    between atoms: C_2  and  C_4
REMARK    3  A    between atoms: C_4  and  C_13
REMARK    4  A    between atoms: C_5  and  C_6
REMARK    5  A    between atoms: C_9  and  O_10
REMARK    6  A    between atoms: N_15  and  C_16
REMARK    7  A    between atoms: C_16  and  C_17
REMARK    8  A    between atoms: C_17  and  C_18
REMARK    9  A    between atoms: C_18  and  N_19
REMARK   10  A    between atoms: N_19  and  C_20
REMARK                            x       y       z     vdW  Elec       q    Type
REMARK                         _______ _______ _______ _____ _____    ______ ____
ROOT
ATOM      1  C   UNL A   1      33.633 -37.309 -32.626  0.00  0.00    +0.013 C 
ENDROOT
BRANCH   1   4
ATOM      2  C   UNL A   1      31.883 -39.082 -32.173  0.00  0.00    +0.247 C 
ATOM      3  O   UNL A   1      30.710 -39.432 -32.256  0.00  0.00    -0.270 OA
ATOM      4  N   UNL A   1      32.300 -37.890 -32.693  0.00  0.00    -0.311 N 
ATOM      5  H   UNL A   1      31.618 -37.360 -33.167  0.00  0.00    +0.000 HD
BRANCH   2   6
ATOM      6  C   UNL A   1      32.894 -39.954 -31.534  0.00  0.00    +0.079 C 
ATOM      7  C   UNL A   1      33.243 -39.638 -30.272  0.00  0.00    -0.039 C 
BRANCH   7   8
ATOM      8  C   UNL A   1      34.172 -40.375 -29.408  0.00  0.00    -0.024 A 
ATOM      9  C   UNL A   1      35.548 -40.406 -29.671  0.00  0.00    -0.051 A 
ATOM     10  C   UNL A   1      36.408 -41.146 -28.854  0.00  0.00    -0.020 A 
ATOM     11  C   UNL A   1      35.885 -41.863 -27.783  0.00  0.00    +0.117 A 
ATOM     12  C   UNL A   1      34.520 -41.856 -27.519  0.00  0.00    -0.020 A 
ATOM     13  C   UNL A   1      33.662 -41.114 -28.334  0.00  0.00    -0.051 A 
BRANCH  11  14
ATOM     14  O   UNL A   1      36.685 -42.599 -26.962  0.00  0.00    -0.507 OA
ATOM     15  H   UNL A   1      36.400 -43.439 -26.657  0.00  0.00    +0.000 HD
ENDBRANCH  11  14
ENDBRANCH   7   8
BRANCH   6  17
ATOM     16  C   UNL A   1      32.705 -42.445 -32.086  0.00  0.00    -0.001 C 
ATOM     17  C   UNL A   1      33.415 -41.131 -32.278  0.00  0.00    +0.165 C 
ATOM     18  O   UNL A   1      34.356 -41.022 -33.062  0.00  0.00    -0.292 OA
ENDBRANCH   6  17
ENDBRANCH   2   6
ENDBRANCH   1   4
BRANCH   1  19
ATOM     19  C   UNL A   1      33.599 -35.786 -32.576  0.00  0.00    -0.022 C 
BRANCH  19  20
ATOM     20  C   UNL A   1      33.405 -35.263 -31.153  0.00  0.00    +0.011 C 
BRANCH  20  21
ATOM     21  N   UNL A   1      34.617 -34.591 -30.653  0.00  0.00    -0.343 N 
ATOM     22  H   UNL A   1      34.812 -33.638 -30.809  0.00  0.00    +0.000 HD
BRANCH  21  23
ATOM     23  C   UNL A   1      35.483 -35.460 -29.919  0.00  0.00    +0.041 A 
ATOM     24  C   UNL A   1      35.039 -36.124 -28.755  0.00  0.00    -0.005 A 
ATOM     25  C   UNL A   1      35.902 -37.060 -28.178  0.00  0.00    +0.047 A 
ATOM     26  N   UNL A   1      37.139 -37.328 -28.660  0.00  0.00    -0.251 NA
ATOM     27  C   UNL A   1      37.576 -36.665 -29.738  0.00  0.00    +0.073 A 
ATOM     28  C   UNL A   1      38.856 -36.937 -30.205  0.00  0.00    -0.036 A 
ATOM     29  C   UNL A   1      39.396 -36.279 -31.311  0.00  0.00    -0.060 A 
ATOM     30  C   UNL A   1      38.645 -35.319 -31.970  0.00  0.00    -0.061 A 
ATOM     31  C   UNL A   1      37.357 -35.033 -31.521  0.00  0.00    -0.051 A 
ATOM     32  C   UNL A   1      36.793 -35.709 -30.412  0.00  0.00    +0.021 A 
ATOM     33  C   UNL A   1      35.543 -37.809 -26.919  0.00  0.00    -0.010 C 
ATOM     34  C   UNL A   1      34.051 -37.807 -26.613  0.00  0.00    -0.047 C 
ATOM     35  C   UNL A   1      33.505 -36.394 -26.735  0.00  0.00    -0.049 C 
ATOM     36  C   UNL A   1      33.667 -35.886 -28.166  0.00  0.00    -0.024 C 
ENDBRANCH  21  23
ENDBRANCH  20  21
ENDBRANCH  19  20
ENDBRANCH   1  19
TORSDOF 9
ENDMDL
MODEL 4
REMARK VINA RESULT:    -6.309     19.992     23.295
REMARK INTER + INTRA:         -13.028
REMARK INTER:                 -10.325
REMARK INTRA:                  -2.703
REMARK UNBOUND:                -3.585
REMARK  Name = cpd334.pdb
REMARK  10 active torsions:
REMARK  status: ('A' for Active; 'I' for Inactive)
REMARK    1  A    between atoms: C_1  and  C_2
REMARK    2  A    between atoms: C_2  and  C_4
REMARK    3  A    between atoms: C_4  and  C_13
REMARK    4  A    between atoms: C_5  and  C_6
REMARK    5  A    between atoms: C_9  and  O_10
REMARK    6  A    between atoms: N_15  and  C_16
REMARK    7  A    between atoms: C_16  and  C_17
REMARK    8  A    between atoms: C_17  and  C_18
REMARK    9  A    between atoms: C_18  and  N_19
REMARK   10  A    between atoms: N_19  and  C_20
REMARK                            x       y       z     vdW  Elec       q    Type
REMARK                         _______ _______ _______ _____ _____    ______ ____
ROOT
ATOM      1  C   UNL A   1      46.194 -17.467 -35.845  0.00  0.00    +0.013 C 
ENDROOT
BRANCH   1   4
ATOM      2  C   UNL A   1      44.716 -18.688 -34.192  0.00  0.00    +0.247 C 
ATOM      3  O   UNL A   1      44.524 -19.044 -33.034  0.00  0.00    -0.270 OA
ATOM      4  N   UNL A   1      45.796 -17.920 -34.520  0.00  0.00    -0.311 N 
ATOM      5  H   UNL A   1      46.374 -17.639 -33.774  0.00  0.00    +0.000 HD
BRANCH   2   6
ATOM      6  C   UNL A   1      43.769 -19.055 -35.269  0.00  0.00    +0.079 C 
ATOM      7  C   UNL A   1      43.982 -20.238 -35.875  0.00  0.00    -0.039 C 
BRANCH   7   8
ATOM      8  C   UNL A   1      43.156 -20.848 -36.922  0.00  0.00    -0.024 A 
ATOM      9  C   UNL A   1      42.018 -21.602 -36.610  0.00  0.00    -0.051 A 
ATOM     10  C   UNL A   1      41.267 -22.205 -37.625  0.00  0.00    -0.020 A 
ATOM     11  C   UNL A   1      41.667 -22.059 -38.949  0.00  0.00    +0.117 A 
ATOM     12  C   UNL A   1      42.803 -21.328 -39.274  0.00  0.00    -0.020 A 
ATOM     13  C   UNL A   1      43.550 -20.724 -38.260  0.00  0.00    -0.051 A 
BRANCH  11  14
ATOM     14  O   UNL A   1      40.967 -22.630 -39.969  0.00  0.00    -0.507 OA
ATOM     15  H   UNL A   1      40.080 -22.901 -39.836  0.00  0.00    +0.000 HD
ENDBRANCH  11  14
ENDBRANCH   7   8
BRANCH   6  17
ATOM     16  C   UNL A   1      42.822 -17.145 -36.684  0.00  0.00    -0.001 C 
ATOM     17  C   UNL A   1      42.632 -18.147 -35.576  0.00  0.00    +0.165 C 
ATOM     18  O   UNL A   1      41.560 -18.248 -34.984  0.00  0.00    -0.292 OA
ENDBRANCH   6  17
ENDBRANCH   2   6
ENDBRANCH   1   4
BRANCH   1  19
ATOM     19  C   UNL A   1      47.312 -18.319 -36.436  0.00  0.00    -0.022 C 
BRANCH  19  20
ATOM     20  C   UNL A   1      46.823 -19.181 -37.600  0.00  0.00    +0.011 C 
BRANCH  20  21
ATOM     21  N   UNL A   1      47.416 -18.752 -38.878  0.00  0.00    -0.343 N 
ATOM     22  H   UNL A   1      48.349 -18.448 -38.968  0.00  0.00    +0.000 HD
BRANCH  21  23
ATOM     23  C   UNL A   1      46.503 -18.821 -39.976  0.00  0.00    +0.041 A 
ATOM     24  C   UNL A   1      46.439 -19.962 -40.804  0.00  0.00    -0.005 A 
ATOM     25  C   UNL A   1      45.426 -20.004 -41.767  0.00  0.00    +0.047 A 
ATOM     26  N   UNL A   1      44.540 -18.998 -41.958  0.00  0.00    -0.251 NA
ATOM     27  C   UNL A   1      44.630 -17.897 -41.202  0.00  0.00    +0.073 A 
ATOM     28  C   UNL A   1      43.726 -16.866 -41.428  0.00  0.00    -0.036 A 
ATOM     29  C   UNL A   1      43.761 -15.677 -40.697  0.00  0.00    -0.060 A 
ATOM     30  C   UNL A   1      44.725 -15.505 -39.717  0.00  0.00    -0.061 A 
ATOM     31  C   UNL A   1      45.639 -16.528 -39.470  0.00  0.00    -0.051 A 
ATOM     32  C   UNL A   1      45.600 -17.745 -40.193  0.00  0.00    +0.021 A 
ATOM     33  C   UNL A   1      45.278 -21.161 -42.723  0.00  0.00    -0.010 C 
ATOM     34  C   UNL A   1      45.993 -22.425 -42.265  0.00  0.00    -0.047 C 
ATOM     35  C   UNL A   1      47.410 -22.085 -41.834  0.00  0.00    -0.049 C 
ATOM     36  C   UNL A   1      47.386 -21.129 -40.642  0.00  0.00    -0.024 C 
ENDBRANCH  21  23
ENDBRANCH  20  21
ENDBRANCH  19  20
ENDBRANCH   1  19
TORSDOF 9
ENDMDL
MODEL 5
REMARK VINA RESULT:    -6.199     19.512     22.687
REMARK INTER + INTRA:         -12.864
REMARK INTER:                  -9.802
REMARK INTRA:                  -3.062
REMARK UNBOUND:                -3.585
REMARK  Name = cpd334.pdb
REMARK  10 active torsions:
REMARK  status: ('A' for Active; 'I' for Inactive)
REMARK    1  A    between atoms: C_1  and  C_2
REMARK    2  A    between atoms: C_2  and  C_4
REMARK    3  A    between atoms: C_4  and  C_13
REMARK    4  A    between atoms: C_5  and  C_6
REMARK    5  A    between atoms: C_9  and  O_10
REMARK    6  A    between atoms: N_15  and  C_16
REMARK    7  A    between atoms: C_16  and  C_17
REMARK    8  A    between atoms: C_17  and  C_18
REMARK    9  A    between atoms: C_18  and  N_19
REMARK   10  A    between atoms: N_19  and  C_20
REMARK                            x       y       z     vdW  Elec       q    Type
REMARK                         _______ _______ _______ _____ _____    ______ ____
ROOT
ATOM      1  C   UNL A   1      40.701 -21.875 -39.190  0.00  0.00    +0.013 C 
ENDROOT
BRANCH   1   4
ATOM      2  C   UNL A   1      40.166 -19.849 -37.768  0.00  0.00    +0.247 C 
ATOM      3  O   UNL A   1      39.379 -18.950 -37.493  0.00  0.00    -0.270 OA
ATOM      4  N   UNL A   1      39.859 -20.788 -38.712  0.00  0.00    -0.311 N 
ATOM      5  H   UNL A   1      38.963 -20.722 -39.116  0.00  0.00    +0.000 HD
BRANCH   2   6
ATOM      6  C   UNL A   1      41.465 -19.966 -37.067  0.00  0.00    +0.079 C 
ATOM      7  C   UNL A   1      42.545 -19.515 -37.732  0.00  0.00    -0.039 C 
BRANCH   7   8
ATOM      8  C   UNL A   1      43.924 -19.467 -37.233  0.00  0.00    -0.024 A 
ATOM      9  C   UNL A   1      44.376 -18.412 -36.430  0.00  0.00    -0.051 A 
ATOM     10  C   UNL A   1      45.705 -18.369 -35.998  0.00  0.00    -0.020 A 
ATOM     11  C   UNL A   1      46.581 -19.379 -36.383  0.00  0.00    +0.117 A 
ATOM     12  C   UNL A   1      46.153 -20.424 -37.193  0.00  0.00    -0.020 A 
ATOM     13  C   UNL A   1      44.824 -20.466 -37.622  0.00  0.00    -0.051 A 
BRANCH  11  14
ATOM     14  O   UNL A   1      47.885 -19.377 -35.987  0.00  0.00    -0.507 OA
ATOM     15  H   UNL A   1      48.564 -19.212 -36.612  0.00  0.00    +0.000 HD
ENDBRANCH  11  14
ENDBRANCH   7   8
BRANCH   6  17
ATOM     16  C   UNL A   1      41.357 -22.000 -35.518  0.00  0.00    -0.001 C 
ATOM     17  C   UNL A   1      41.497 -20.510 -35.684  0.00  0.00    +0.165 C 
ATOM     18  O   UNL A   1      41.685 -19.775 -34.716  0.00  0.00    -0.292 OA
ENDBRANCH   6  17
ENDBRANCH   2   6
ENDBRANCH   1   4
BRANCH   1  19
ATOM     19  C   UNL A   1      41.285 -21.589 -40.569  0.00  0.00    -0.022 C 
BRANCH  19  20
ATOM     20  C   UNL A   1      42.814 -21.587 -40.554  0.00  0.00    +0.011 C 
BRANCH  20  21
ATOM     21  N   UNL A   1      43.365 -20.849 -41.704  0.00  0.00    -0.343 N 
ATOM     22  H   UNL A   1      42.862 -20.687 -42.536  0.00  0.00    +0.000 HD
BRANCH  21  23
ATOM     23  C   UNL A   1      44.703 -20.392 -41.494  0.00  0.00    +0.041 A 
ATOM     24  C   UNL A   1      44.963 -19.125 -40.928  0.00  0.00    -0.005 A 
ATOM     25  C   UNL A   1      46.293 -18.813 -40.629  0.00  0.00    +0.047 A 
ATOM     26  N   UNL A   1      47.328 -19.648 -40.886  0.00  0.00    -0.251 NA
ATOM     27  C   UNL A   1      47.084 -20.831 -41.463  0.00  0.00    +0.073 A 
ATOM     28  C   UNL A   1      48.162 -21.664 -41.740  0.00  0.00    -0.036 A 
ATOM     29  C   UNL A   1      47.998 -22.906 -42.356  0.00  0.00    -0.060 A 
ATOM     30  C   UNL A   1      46.729 -23.331 -42.713  0.00  0.00    -0.061 A 
ATOM     31  C   UNL A   1      45.634 -22.513 -42.441  0.00  0.00    -0.051 A 
ATOM     32  C   UNL A   1      45.787 -21.260 -41.799  0.00  0.00    +0.021 A 
ATOM     33  C   UNL A   1      46.691 -17.480 -40.048  0.00  0.00    -0.010 C 
ATOM     34  C   UNL A   1      45.533 -16.724 -39.409  0.00  0.00    -0.047 C 
ATOM     35  C   UNL A   1      44.342 -16.719 -40.352  0.00  0.00    -0.049 C 
ATOM     36  C   UNL A   1      43.858 -18.147 -40.603  0.00  0.00    -0.024 C 
ENDBRANCH  21  23
ENDBRANCH  20  21
ENDBRANCH  19  20
ENDBRANCH   1  19
TORSDOF 9
ENDMDL
MODEL 6
REMARK VINA RESULT:    -6.165     18.377     21.767
REMARK INTER + INTRA:         -12.813
REMARK INTER:                 -11.145
REMARK INTRA:                  -1.668
REMARK UNBOUND:                -3.585
REMARK  Name = cpd334.pdb
REMARK  10 active torsions:
REMARK  status: ('A' for Active; 'I' for Inactive)
REMARK    1  A    between atoms: C_1  and  C_2
REMARK    2  A    between atoms: C_2  and  C_4
REMARK    3  A    between atoms: C_4  and  C_13
REMARK    4  A    between atoms: C_5  and  C_6
REMARK    5  A    between atoms: C_9  and  O_10
REMARK    6  A    between atoms: N_15  and  C_16
REMARK    7  A    between atoms: C_16  and  C_17
REMARK    8  A    between atoms: C_17  and  C_18
REMARK    9  A    between atoms: C_18  and  N_19
REMARK   10  A    between atoms: N_19  and  C_20
REMARK                            x       y       z     vdW  Elec       q    Type
REMARK                         _______ _______ _______ _____ _____    ______ ____
ROOT
ATOM      1  C   UNL A   1      45.531 -18.837 -36.712  0.00  0.00    +0.013 C 
ENDROOT
BRANCH   1   4
ATOM      2  C   UNL A   1      44.047 -18.528 -38.739  0.00  0.00    +0.247 C 
ATOM      3  O   UNL A   1      42.986 -18.117 -39.200  0.00  0.00    -0.270 OA
ATOM      4  N   UNL A   1      44.351 -18.361 -37.418  0.00  0.00    -0.311 N 
ATOM      5  H   UNL A   1      43.696 -17.859 -36.881  0.00  0.00    +0.000 HD
BRANCH   2   6
ATOM      6  C   UNL A   1      45.046 -19.194 -39.605  0.00  0.00    +0.079 C 
ATOM      7  C   UNL A   1      45.257 -20.504 -39.375  0.00  0.00    -0.039 C 
BRANCH   7   8
ATOM      8  C   UNL A   1      46.146 -21.394 -40.130  0.00  0.00    -0.024 A 
ATOM      9  C   UNL A   1      47.454 -21.657 -39.703  0.00  0.00    -0.051 A 
ATOM     10  C   UNL A   1      48.294 -22.480 -40.459  0.00  0.00    -0.020 A 
ATOM     11  C   UNL A   1      47.825 -23.027 -41.648  0.00  0.00    +0.117 A 
ATOM     12  C   UNL A   1      46.536 -22.763 -42.094  0.00  0.00    -0.020 A 
ATOM     13  C   UNL A   1      45.696 -21.943 -41.337  0.00  0.00    -0.051 A 
BRANCH  11  14
ATOM     14  O   UNL A   1      48.609 -23.833 -42.418  0.00  0.00    -0.507 OA
ATOM     15  H   UNL A   1      48.519 -23.822 -43.351  0.00  0.00    +0.000 HD
ENDBRANCH  11  14
ENDBRANCH   7   8
BRANCH   6  17
ATOM     16  C   UNL A   1      47.077 -17.861 -40.410  0.00  0.00    -0.001 C 
ATOM     17  C   UNL A   1      45.704 -18.415 -40.687  0.00  0.00    +0.165 C 
ATOM     18  O   UNL A   1      45.168 -18.274 -41.785  0.00  0.00    -0.292 OA
ENDBRANCH   6  17
ENDBRANCH   2   6
ENDBRANCH   1   4
BRANCH   1  19
ATOM     19  C   UNL A   1      45.176 -19.580 -35.429  0.00  0.00    -0.022 C 
BRANCH  19  20
ATOM     20  C   UNL A   1      43.665 -19.721 -35.246  0.00  0.00    +0.011 C 
BRANCH  20  21
ATOM     21  N   UNL A   1      43.229 -21.120 -35.401  0.00  0.00    -0.343 N 
ATOM     22  H   UNL A   1      43.844 -21.888 -35.352  0.00  0.00    +0.000 HD
BRANCH  21  23
ATOM     23  C   UNL A   1      41.823 -21.252 -35.628  0.00  0.00    +0.041 A 
ATOM     24  C   UNL A   1      40.906 -21.255 -34.555  0.00  0.00    -0.005 A 
ATOM     25  C   UNL A   1      39.544 -21.249 -34.871  0.00  0.00    +0.047 A 
ATOM     26  N   UNL A   1      39.076 -21.273 -36.142  0.00  0.00    -0.251 NA
ATOM     27  C   UNL A   1      39.947 -21.315 -37.157  0.00  0.00    +0.073 A 
ATOM     28  C   UNL A   1      39.447 -21.363 -38.453  0.00  0.00    -0.036 A 
ATOM     29  C   UNL A   1      40.285 -21.426 -39.568  0.00  0.00    -0.060 A 
ATOM     30  C   UNL A   1      41.659 -21.448 -39.390  0.00  0.00    -0.061 A 
ATOM     31  C   UNL A   1      42.182 -21.397 -38.100  0.00  0.00    -0.051 A 
ATOM     32  C   UNL A   1      41.341 -21.313 -36.963  0.00  0.00    +0.021 A 
ATOM     33  C   UNL A   1      38.475 -21.278 -33.807  0.00  0.00    -0.010 C 
ATOM     34  C   UNL A   1      38.975 -20.860 -32.430  0.00  0.00    -0.047 C 
ATOM     35  C   UNL A   1      40.266 -21.595 -32.109  0.00  0.00    -0.049 C 
ATOM     36  C   UNL A   1      41.354 -21.216 -33.112  0.00  0.00    -0.024 C 
ENDBRANCH  21  23
ENDBRANCH  20  21
ENDBRANCH  19  20
ENDBRANCH   1  19
TORSDOF 9
ENDMDL
MODEL 7
REMARK VINA RESULT:    -5.995     18.801     22.267
REMARK INTER + INTRA:         -12.558
REMARK INTER:                 -10.541
REMARK INTRA:                  -2.017
REMARK UNBOUND:                -3.585
REMARK  Name = cpd334.pdb
REMARK  10 active torsions:
REMARK  status: ('A' for Active; 'I' for Inactive)
REMARK    1  A    between atoms: C_1  and  C_2
REMARK    2  A    between atoms: C_2  and  C_4
REMARK    3  A    between atoms: C_4  and  C_13
REMARK    4  A    between atoms: C_5  and  C_6
REMARK    5  A    between atoms: C_9  and  O_10
REMARK    6  A    between atoms: N_15  and  C_16
REMARK    7  A    between atoms: C_16  and  C_17
REMARK    8  A    between atoms: C_17  and  C_18
REMARK    9  A    between atoms: C_18  and  N_19
REMARK   10  A    between atoms: N_19  and  C_20
REMARK                            x       y       z     vdW  Elec       q    Type
REMARK                         _______ _______ _______ _____ _____    ______ ____
ROOT
ATOM      1  C   UNL A   1      46.501 -18.482 -35.417  0.00  0.00    +0.013 C 
ENDROOT
BRANCH   1   4
ATOM      2  C   UNL A   1      46.701 -16.732 -37.235  0.00  0.00    +0.247 C 
ATOM      3  O   UNL A   1      46.993 -15.581 -37.545  0.00  0.00    -0.270 OA
ATOM      4  N   UNL A   1      46.853 -17.175 -35.952  0.00  0.00    -0.311 N 
ATOM      5  H   UNL A   1      47.247 -16.536 -35.315  0.00  0.00    +0.000 HD
BRANCH   2   6
ATOM      6  C   UNL A   1      46.200 -17.689 -38.248  0.00  0.00    +0.079 C 
ATOM      7  C   UNL A   1      47.027 -18.701 -38.573  0.00  0.00    -0.039 C 
BRANCH   7   8
ATOM      8  C   UNL A   1      46.741 -19.804 -39.498  0.00  0.00    -0.024 A 
ATOM      9  C   UNL A   1      46.231 -21.027 -39.044  0.00  0.00    -0.051 A 
ATOM     10  C   UNL A   1      46.002 -22.075 -39.941  0.00  0.00    -0.020 A 
ATOM     11  C   UNL A   1      46.297 -21.898 -41.289  0.00  0.00    +0.117 A 
ATOM     12  C   UNL A   1      46.819 -20.696 -41.752  0.00  0.00    -0.020 A 
ATOM     13  C   UNL A   1      47.045 -19.649 -40.856  0.00  0.00    -0.051 A 
BRANCH  11  14
ATOM     14  O   UNL A   1      46.092 -22.892 -42.197  0.00  0.00    -0.507 OA
ATOM     15  H   UNL A   1      46.505 -22.852 -43.038  0.00  0.00    +0.000 HD
ENDBRANCH  11  14
ENDBRANCH   7   8
BRANCH   6  17
ATOM     16  C   UNL A   1      44.699 -17.185 -40.258  0.00  0.00    -0.001 C 
ATOM     17  C   UNL A   1      44.829 -17.517 -38.794  0.00  0.00    +0.165 C 
ATOM     18  O   UNL A   1      43.837 -17.692 -38.089  0.00  0.00    -0.292 OA
ENDBRANCH   6  17
ENDBRANCH   2   6
ENDBRANCH   1   4
BRANCH   1  19
ATOM     19  C   UNL A   1      45.050 -18.544 -34.952  0.00  0.00    -0.022 C 
BRANCH  19  20
ATOM     20  C   UNL A   1      44.338 -19.797 -35.462  0.00  0.00    +0.011 C 
BRANCH  20  21
ATOM     21  N   UNL A   1      42.948 -19.506 -35.857  0.00  0.00    -0.343 N 
ATOM     22  H   UNL A   1      42.602 -18.594 -35.990  0.00  0.00    +0.000 HD
BRANCH  21  23
ATOM     23  C   UNL A   1      42.152 -20.681 -36.029  0.00  0.00    +0.041 A 
ATOM     24  C   UNL A   1      41.518 -21.303 -34.932  0.00  0.00    -0.005 A 
ATOM     25  C   UNL A   1      40.648 -22.363 -35.206  0.00  0.00    +0.047 A 
ATOM     26  N   UNL A   1      40.419 -22.833 -36.456  0.00  0.00    -0.251 NA
ATOM     27  C   UNL A   1      41.055 -22.271 -37.491  0.00  0.00    +0.073 A 
ATOM     28  C   UNL A   1      40.825 -22.782 -38.762  0.00  0.00    -0.036 A 
ATOM     29  C   UNL A   1      41.460 -22.266 -39.894  0.00  0.00    -0.060 A 
ATOM     30  C   UNL A   1      42.356 -21.217 -39.757  0.00  0.00    -0.061 A 
ATOM     31  C   UNL A   1      42.599 -20.688 -38.491  0.00  0.00    -0.051 A 
ATOM     32  C   UNL A   1      41.944 -21.191 -37.340  0.00  0.00    +0.021 A 
ATOM     33  C   UNL A   1      39.937 -23.118 -34.111  0.00  0.00    -0.010 C 
ATOM     34  C   UNL A   1      39.881 -22.364 -32.789  0.00  0.00    -0.047 C 
ATOM     35  C   UNL A   1      41.261 -21.825 -32.448  0.00  0.00    -0.049 C 
ATOM     36  C   UNL A   1      41.716 -20.826 -33.512  0.00  0.00    -0.024 C 
ENDBRANCH  21  23
ENDBRANCH  20  21
ENDBRANCH  19  20
ENDBRANCH   1  19
TORSDOF 9
ENDMDL
MODEL 8
REMARK VINA RESULT:    -5.949     18.861     22.161
REMARK INTER + INTRA:         -12.490
REMARK INTER:                 -10.456
REMARK INTRA:                  -2.034
REMARK UNBOUND:                -3.585
REMARK  Name = cpd334.pdb
REMARK  10 active torsions:
REMARK  status: ('A' for Active; 'I' for Inactive)
REMARK    1  A    between atoms: C_1  and  C_2
REMARK    2  A    between atoms: C_2  and  C_4
REMARK    3  A    between atoms: C_4  and  C_13
REMARK    4  A    between atoms: C_5  and  C_6
REMARK    5  A    between atoms: C_9  and  O_10
REMARK    6  A    between atoms: N_15  and  C_16
REMARK    7  A    between atoms: C_16  and  C_17
REMARK    8  A    between atoms: C_17  and  C_18
REMARK    9  A    between atoms: C_18  and  N_19
REMARK   10  A    between atoms: N_19  and  C_20
REMARK                            x       y       z     vdW  Elec       q    Type
REMARK                         _______ _______ _______ _____ _____    ______ ____
ROOT
ATOM      1  C   UNL A   1      44.846 -17.832 -35.930  0.00  0.00    +0.013 C 
ENDROOT
BRANCH   1   4
ATOM      2  C   UNL A   1      46.503 -16.619 -37.410  0.00  0.00    +0.247 C 
ATOM      3  O   UNL A   1      47.317 -15.709 -37.534  0.00  0.00    -0.270 OA
ATOM      4  N   UNL A   1      45.871 -16.840 -36.220  0.00  0.00    -0.311 N 
ATOM      5  H   UNL A   1      46.141 -16.261 -35.470  0.00  0.00    +0.000 HD
BRANCH   2   6
ATOM      6  C   UNL A   1      46.198 -17.526 -38.540  0.00  0.00    +0.079 C 
ATOM      7  C   UNL A   1      46.832 -18.714 -38.540  0.00  0.00    -0.039 C 
BRANCH   7   8
ATOM      8  C   UNL A   1      46.656 -19.801 -39.509  0.00  0.00    -0.024 A 
ATOM      9  C   UNL A   1      46.961 -19.630 -40.865  0.00  0.00    -0.051 A 
ATOM     10  C   UNL A   1      46.750 -20.670 -41.776  0.00  0.00    -0.020 A 
ATOM     11  C   UNL A   1      46.223 -21.876 -41.325  0.00  0.00    +0.117 A 
ATOM     12  C   UNL A   1      45.901 -22.057 -39.986  0.00  0.00    -0.020 A 
ATOM     13  C   UNL A   1      46.114 -21.018 -39.077  0.00  0.00    -0.051 A 
BRANCH  11  14
ATOM     14  O   UNL A   1      46.000 -22.916 -42.177  0.00  0.00    -0.507 OA
ATOM     15  H   UNL A   1      46.376 -23.756 -42.000  0.00  0.00    +0.000 HD
ENDBRANCH  11  14
ENDBRANCH   7   8
BRANCH   6  17
ATOM     16  C   UNL A   1      45.682 -16.289 -40.719  0.00  0.00    -0.001 C 
ATOM     17  C   UNL A   1      45.195 -17.110 -39.555  0.00  0.00    +0.165 C 
ATOM     18  O   UNL A   1      44.022 -17.470 -39.474  0.00  0.00    -0.292 OA
ENDBRANCH   6  17
ENDBRANCH   2   6
ENDBRANCH   1   4
BRANCH   1  19
ATOM     19  C   UNL A   1      45.380 -18.988 -35.092  0.00  0.00    -0.022 C 
BRANCH  19  20
ATOM     20  C   UNL A   1      44.335 -20.086 -34.897  0.00  0.00    +0.011 C 
BRANCH  20  21
ATOM     21  N   UNL A   1      42.987 -19.623 -35.272  0.00  0.00    -0.343 N 
ATOM     22  H   UNL A   1      42.711 -18.678 -35.242  0.00  0.00    +0.000 HD
BRANCH  21  23
ATOM     23  C   UNL A   1      42.120 -20.682 -35.684  0.00  0.00    +0.041 A 
ATOM     24  C   UNL A   1      42.001 -21.044 -37.043  0.00  0.00    -0.005 A 
ATOM     25  C   UNL A   1      41.240 -22.178 -37.345  0.00  0.00    +0.047 A 
ATOM     26  N   UNL A   1      40.595 -22.912 -36.406  0.00  0.00    -0.251 NA
ATOM     27  C   UNL A   1      40.674 -22.541 -35.122  0.00  0.00    +0.073 A 
ATOM     28  C   UNL A   1      39.986 -23.293 -34.176  0.00  0.00    -0.036 A 
ATOM     29  C   UNL A   1      40.000 -22.967 -32.819  0.00  0.00    -0.060 A 
ATOM     30  C   UNL A   1      40.711 -21.858 -32.389  0.00  0.00    -0.061 A 
ATOM     31  C   UNL A   1      41.410 -21.092 -33.320  0.00  0.00    -0.051 A 
ATOM     32  C   UNL A   1      41.419 -21.426 -34.696  0.00  0.00    +0.021 A 
ATOM     33  C   UNL A   1      41.022 -22.642 -38.763  0.00  0.00    -0.010 C 
ATOM     34  C   UNL A   1      42.035 -22.078 -39.751  0.00  0.00    -0.047 C 
ATOM     35  C   UNL A   1      42.170 -20.578 -39.546  0.00  0.00    -0.049 C 
ATOM     36  C   UNL A   1      42.701 -20.281 -38.144  0.00  0.00    -0.024 C 
ENDBRANCH  21  23
ENDBRANCH  20  21
ENDBRANCH  19  20
ENDBRANCH   1  19
TORSDOF 9
ENDMDL
MODEL 9
REMARK VINA RESULT:    -5.901     19.878     22.852
REMARK INTER + INTRA:         -12.418
REMARK INTER:                  -8.731
REMARK INTRA:                  -3.687
REMARK UNBOUND:                -3.585
REMARK  Name = cpd334.pdb
REMARK  10 active torsions:
REMARK  status: ('A' for Active; 'I' for Inactive)
REMARK    1  A    between atoms: C_1  and  C_2
REMARK    2  A    between atoms: C_2  and  C_4
REMARK    3  A    between atoms: C_4  and  C_13
REMARK    4  A    between atoms: C_5  and  C_6
REMARK    5  A    between atoms: C_9  and  O_10
REMARK    6  A    between atoms: N_15  and  C_16
REMARK    7  A    between atoms: C_16  and  C_17
REMARK    8  A    between atoms: C_17  and  C_18
REMARK    9  A    between atoms: C_18  and  N_19
REMARK   10  A    between atoms: N_19  and  C_20
REMARK                            x       y       z     vdW  Elec       q    Type
REMARK                         _______ _______ _______ _____ _____    ______ ____
ROOT
ATOM      1  C   UNL A   1      41.747 -20.572 -36.466  0.00  0.00    +0.013 C 
ENDROOT
BRANCH   1   4
ATOM      2  C   UNL A   1      40.515 -20.053 -38.616  0.00  0.00    +0.247 C 
ATOM      3  O   UNL A   1      39.559 -19.513 -39.163  0.00  0.00    -0.270 OA
ATOM      4  N   UNL A   1      40.705 -19.947 -37.267  0.00  0.00    -0.311 N 
ATOM      5  H   UNL A   1      40.063 -19.382 -36.781  0.00  0.00    +0.000 HD
BRANCH   2   6
ATOM      6  C   UNL A   1      41.511 -20.817 -39.401  0.00  0.00    +0.079 C 
ATOM      7  C   UNL A   1      42.607 -20.140 -39.794  0.00  0.00    -0.039 C 
BRANCH   7   8
ATOM      8  C   UNL A   1      43.757 -20.683 -40.526  0.00  0.00    -0.024 A 
ATOM      9  C   UNL A   1      43.818 -20.647 -41.925  0.00  0.00    -0.051 A 
ATOM     10  C   UNL A   1      44.907 -21.204 -42.601  0.00  0.00    -0.020 A 
ATOM     11  C   UNL A   1      45.928 -21.807 -41.873  0.00  0.00    +0.117 A 
ATOM     12  C   UNL A   1      45.875 -21.865 -40.485  0.00  0.00    -0.020 A 
ATOM     13  C   UNL A   1      44.787 -21.306 -39.811  0.00  0.00    -0.051 A 
BRANCH  11  14
ATOM     14  O   UNL A   1      47.008 -22.364 -42.490  0.00  0.00    -0.507 OA
ATOM     15  H   UNL A   1      46.950 -23.230 -42.845  0.00  0.00    +0.000 HD
ENDBRANCH  11  14
ENDBRANCH   7   8
BRANCH   6  17
ATOM     16  C   UNL A   1      40.927 -22.670 -41.066  0.00  0.00    -0.001 C 
ATOM     17  C   UNL A   1      41.280 -22.262 -39.660  0.00  0.00    +0.165 C 
ATOM     18  O   UNL A   1      41.424 -23.098 -38.770  0.00  0.00    -0.292 OA
ENDBRANCH   6  17
ENDBRANCH   2   6
ENDBRANCH   1   4
BRANCH   1  19
ATOM     19  C   UNL A   1      42.489 -19.565 -35.595  0.00  0.00    -0.022 C 
BRANCH  19  20
ATOM     20  C   UNL A   1      43.804 -19.114 -36.231  0.00  0.00    +0.011 C 
BRANCH  20  21
ATOM     21  N   UNL A   1      43.841 -17.654 -36.422  0.00  0.00    -0.343 N 
ATOM     22  H   UNL A   1      43.992 -17.015 -35.687  0.00  0.00    +0.000 HD
BRANCH  21  23
ATOM     23  C   UNL A   1      43.635 -17.256 -37.779  0.00  0.00    +0.041 A 
ATOM     24  C   UNL A   1      44.657 -17.391 -38.744  0.00  0.00    -0.005 A 
ATOM     25  C   UNL A   1      44.329 -17.108 -40.074  0.00  0.00    +0.047 A 
ATOM     26  N   UNL A   1      43.103 -16.685 -40.464  0.00  0.00    -0.251 NA
ATOM     27  C   UNL A   1      42.148 -16.515 -39.541  0.00  0.00    +0.073 A 
ATOM     28  C   UNL A   1      40.904 -16.058 -39.957  0.00  0.00    -0.036 A 
ATOM     29  C   UNL A   1      39.858 -15.837 -39.059  0.00  0.00    -0.060 A 
ATOM     30  C   UNL A   1      40.056 -16.070 -37.708  0.00  0.00    -0.061 A 
ATOM     31  C   UNL A   1      41.295 -16.533 -37.269  0.00  0.00    -0.051 A 
ATOM     32  C   UNL A   1      42.356 -16.779 -38.175  0.00  0.00    +0.021 A 
ATOM     33  C   UNL A   1      45.347 -17.193 -41.184  0.00  0.00    -0.010 C 
ATOM     34  C   UNL A   1      46.572 -18.024 -40.826  0.00  0.00    -0.047 C 
ATOM     35  C   UNL A   1      47.096 -17.602 -39.463  0.00  0.00    -0.049 C 
ATOM     36  C   UNL A   1      46.045 -17.870 -38.386  0.00  0.00    -0.024 C 
ENDBRANCH  21  23
ENDBRANCH  20  21
ENDBRANCH  19  20
ENDBRANCH   1  19
TORSDOF 9
ENDMDL
MODEL 10
REMARK VINA RESULT:    -5.879     20.625     23.719
REMARK INTER + INTRA:         -12.385
REMARK INTER:                  -8.759
REMARK INTRA:                  -3.626
REMARK UNBOUND:                -3.585
REMARK  Name = cpd334.pdb
REMARK  10 active torsions:
REMARK  status: ('A' for Active; 'I' for Inactive)
REMARK    1  A    between atoms: C_1  and  C_2
REMARK    2  A    between atoms: C_2  and  C_4
REMARK    3  A    between atoms: C_4  and  C_13
REMARK    4  A    between atoms: C_5  and  C_6
REMARK    5  A    between atoms: C_9  and  O_10
REMARK    6  A    between atoms: N_15  and  C_16
REMARK    7  A    between atoms: C_16  and  C_17
REMARK    8  A    between atoms: C_17  and  C_18
REMARK    9  A    between atoms: C_18  and  N_19
REMARK   10  A    between atoms: N_19  and  C_20
REMARK                            x       y       z     vdW  Elec       q    Type
REMARK                         _______ _______ _______ _____ _____    ______ ____
ROOT
ATOM      1  C   UNL A   1      44.193 -14.811 -39.931  0.00  0.00    +0.013 C 
ENDROOT
BRANCH   1   4
ATOM      2  C   UNL A   1      43.271 -15.216 -37.609  0.00  0.00    +0.247 C 
ATOM      3  O   UNL A   1      43.169 -14.833 -36.448  0.00  0.00    -0.270 OA
ATOM      4  N   UNL A   1      43.936 -14.470 -38.539  0.00  0.00    -0.311 N 
ATOM      5  H   UNL A   1      44.283 -13.601 -38.234  0.00  0.00    +0.000 HD
BRANCH   2   6
ATOM      6  C   UNL A   1      42.651 -16.487 -38.048  0.00  0.00    +0.079 C 
ATOM      7  C   UNL A   1      43.427 -17.585 -37.981  0.00  0.00    -0.039 C 
BRANCH   7   8
ATOM      8  C   UNL A   1      43.031 -18.960 -38.301  0.00  0.00    -0.024 A 
ATOM      9  C   UNL A   1      42.833 -19.377 -39.624  0.00  0.00    -0.051 A 
ATOM     10  C   UNL A   1      42.419 -20.683 -39.901  0.00  0.00    -0.020 A 
ATOM     11  C   UNL A   1      42.192 -21.565 -38.849  0.00  0.00    +0.117 A 
ATOM     12  C   UNL A   1      42.367 -21.163 -37.531  0.00  0.00    -0.020 A 
ATOM     13  C   UNL A   1      42.784 -19.858 -37.256  0.00  0.00    -0.051 A 
BRANCH  11  14
ATOM     14  O   UNL A   1      41.786 -22.847 -39.072  0.00  0.00    -0.507 OA
ATOM     15  H   UNL A   1      42.252 -23.388 -39.680  0.00  0.00    +0.000 HD
ENDBRANCH  11  14
ENDBRANCH   7   8
BRANCH   6  17
ATOM     16  C   UNL A   1      40.937 -16.247 -39.933  0.00  0.00    -0.001 C 
ATOM     17  C   UNL A   1      41.227 -16.491 -38.475  0.00  0.00    +0.165 C 
ATOM     18  O   UNL A   1      40.325 -16.737 -37.677  0.00  0.00    -0.292 OA
ENDBRANCH   6  17
ENDBRANCH   2   6
ENDBRANCH   1   4
BRANCH   1  19
ATOM     19  C   UNL A   1      45.600 -15.358 -40.143  0.00  0.00    -0.022 C 
BRANCH  19  20
ATOM     20  C   UNL A   1      45.586 -16.743 -40.789  0.00  0.00    +0.011 C 
BRANCH  20  21
ATOM     21  N   UNL A   1      46.819 -17.492 -40.490  0.00  0.00    -0.343 N 
ATOM     22  H   UNL A   1      47.717 -17.184 -40.752  0.00  0.00    +0.000 HD
BRANCH  21  23
ATOM     23  C   UNL A   1      46.581 -18.712 -39.782  0.00  0.00    +0.041 A 
ATOM     24  C   UNL A   1      46.259 -19.904 -40.466  0.00  0.00    -0.005 A 
ATOM     25  C   UNL A   1      46.179 -21.078 -39.711  0.00  0.00    +0.047 A 
ATOM     26  N   UNL A   1      46.362 -21.114 -38.370  0.00  0.00    -0.251 NA
ATOM     27  C   UNL A   1      46.625 -19.975 -37.717  0.00  0.00    +0.073 A 
ATOM     28  C   UNL A   1      46.786 -20.029 -36.338  0.00  0.00    -0.036 A 
ATOM     29  C   UNL A   1      47.045 -18.886 -35.578  0.00  0.00    -0.060 A 
ATOM     30  C   UNL A   1      47.138 -17.654 -36.205  0.00  0.00    -0.061 A 
ATOM     31  C   UNL A   1      46.983 -17.578 -37.588  0.00  0.00    -0.051 A 
ATOM     32  C   UNL A   1      46.740 -18.734 -38.370  0.00  0.00    +0.021 A 
ATOM     33  C   UNL A   1      45.816 -22.404 -40.331  0.00  0.00    -0.010 C 
ATOM     34  C   UNL A   1      45.998 -22.441 -41.843  0.00  0.00    -0.047 C 
ATOM     35  C   UNL A   1      45.360 -21.209 -42.465  0.00  0.00    -0.049 C 
ATOM     36  C   UNL A   1      46.053 -19.943 -41.963  0.00  0.00    -0.024 C 
ENDBRANCH  21  23
ENDBRANCH  20  21
ENDBRANCH  19  20
ENDBRANCH   1  19
TORSDOF 9
ENDMDL
MODEL 11
REMARK VINA RESULT:    -5.835     20.160     23.174
REMARK INTER + INTRA:         -12.319
REMARK INTER:                  -8.845
REMARK INTRA:                  -3.475
REMARK UNBOUND:                -3.585
REMARK  Name = cpd334.pdb
REMARK  10 active torsions:
REMARK  status: ('A' for Active; 'I' for Inactive)
REMARK    1  A    between atoms: C_1  and  C_2
REMARK    2  A    between atoms: C_2  and  C_4
REMARK    3  A    between atoms: C_4  and  C_13
REMARK    4  A    between atoms: C_5  and  C_6
REMARK    5  A    between atoms: C_9  and  O_10
REMARK    6  A    between atoms: N_15  and  C_16
REMARK    7  A    between atoms: C_16  and  C_17
REMARK    8  A    between atoms: C_17  and  C_18
REMARK    9  A    between atoms: C_18  and  N_19
REMARK   10  A    between atoms: N_19  and  C_20
REMARK                            x       y       z     vdW  Elec       q    Type
REMARK                         _______ _______ _______ _____ _____    ______ ____
ROOT
ATOM      1  C   UNL A   1      42.196 -17.550 -39.470  0.00  0.00    +0.013 C 
ENDROOT
BRANCH   1   4
ATOM      2  C   UNL A   1      42.662 -19.939 -38.770  0.00  0.00    +0.247 C 
ATOM      3  O   UNL A   1      42.848 -21.104 -39.106  0.00  0.00    -0.270 OA
ATOM      4  N   UNL A   1      42.484 -18.958 -39.704  0.00  0.00    -0.311 N 
ATOM      5  H   UNL A   1      42.558 -19.235 -40.646  0.00  0.00    +0.000 HD
BRANCH   2   6
ATOM      6  C   UNL A   1      42.652 -19.550 -37.342  0.00  0.00    +0.079 C 
ATOM      7  C   UNL A   1      43.812 -19.087 -36.841  0.00  0.00    -0.039 C 
BRANCH   7   8
ATOM      8  C   UNL A   1      44.043 -18.586 -35.481  0.00  0.00    -0.024 A 
ATOM      9  C   UNL A   1      44.347 -19.453 -34.424  0.00  0.00    -0.051 A 
ATOM     10  C   UNL A   1      44.526 -18.955 -33.129  0.00  0.00    -0.020 A 
ATOM     11  C   UNL A   1      44.387 -17.591 -32.896  0.00  0.00    +0.117 A 
ATOM     12  C   UNL A   1      44.070 -16.720 -33.932  0.00  0.00    -0.020 A 
ATOM     13  C   UNL A   1      43.894 -17.218 -35.225  0.00  0.00    -0.051 A 
BRANCH  11  14
ATOM     14  O   UNL A   1      44.551 -17.062 -31.651  0.00  0.00    -0.507 OA
ATOM     15  H   UNL A   1      44.235 -17.525 -30.900  0.00  0.00    +0.000 HD
ENDBRANCH  11  14
ENDBRANCH   7   8
BRANCH   6  17
ATOM     16  C   UNL A   1      41.079 -20.936 -35.875  0.00  0.00    -0.001 C 
ATOM     17  C   UNL A   1      41.382 -19.637 -36.574  0.00  0.00    +0.165 C 
ATOM     18  O   UNL A   1      40.633 -18.667 -36.471  0.00  0.00    -0.292 OA
ENDBRANCH   6  17
ENDBRANCH   2   6
ENDBRANCH   1   4
BRANCH   1  19
ATOM     19  C   UNL A   1      43.444 -16.681 -39.569  0.00  0.00    -0.022 C 
BRANCH  19  20
ATOM     20  C   UNL A   1      44.241 -16.965 -40.842  0.00  0.00    +0.011 C 
BRANCH  20  21
ATOM     21  N   UNL A   1      45.687 -17.047 -40.569  0.00  0.00    -0.343 N 
ATOM     22  H   UNL A   1      46.336 -16.375 -40.881  0.00  0.00    +0.000 HD
BRANCH  21  23
ATOM     23  C   UNL A   1      46.053 -18.199 -39.806  0.00  0.00    +0.041 A 
ATOM     24  C   UNL A   1      45.938 -19.499 -40.343  0.00  0.00    -0.005 A 
ATOM     25  C   UNL A   1      46.446 -20.558 -39.584  0.00  0.00    +0.047 A 
ATOM     26  N   UNL A   1      47.005 -20.394 -38.361  0.00  0.00    -0.251 NA
ATOM     27  C   UNL A   1      47.073 -19.165 -37.834  0.00  0.00    +0.073 A 
ATOM     28  C   UNL A   1      47.628 -19.021 -36.568  0.00  0.00    -0.036 A 
ATOM     29  C   UNL A   1      47.723 -17.779 -35.939  0.00  0.00    -0.060 A 
ATOM     30  C   UNL A   1      47.245 -16.648 -36.582  0.00  0.00    -0.061 A 
ATOM     31  C   UNL A   1      46.688 -16.769 -37.853  0.00  0.00    -0.051 A 
ATOM     32  C   UNL A   1      46.606 -18.023 -38.509  0.00  0.00    +0.021 A 
ATOM     33  C   UNL A   1      46.354 -21.990 -40.046  0.00  0.00    -0.010 C 
ATOM     34  C   UNL A   1      46.101 -22.133 -41.541  0.00  0.00    -0.047 C 
ATOM     35  C   UNL A   1      44.962 -21.217 -41.957  0.00  0.00    -0.049 C 
ATOM     36  C   UNL A   1      45.338 -19.757 -41.706  0.00  0.00    -0.024 C 
ENDBRANCH  21  23
ENDBRANCH  20  21
ENDBRANCH  19  20
ENDBRANCH   1  19
TORSDOF 9
ENDMDL
MODEL 12
REMARK VINA RESULT:    -5.820     18.459     21.703
REMARK INTER + INTRA:         -12.296
REMARK INTER:                  -9.544
REMARK INTRA:                  -2.753
REMARK UNBOUND:                -3.585
REMARK  Name = cpd334.pdb
REMARK  10 active torsions:
REMARK  status: ('A' for Active; 'I' for Inactive)
REMARK    1  A    between atoms: C_1  and  C_2
REMARK    2  A    between atoms: C_2  and  C_4
REMARK    3  A    between atoms: C_4  and  C_13
REMARK    4  A    between atoms: C_5  and  C_6
REMARK    5  A    between atoms: C_9  and  O_10
REMARK    6  A    between atoms: N_15  and  C_16
REMARK    7  A    between atoms: C_16  and  C_17
REMARK    8  A    between atoms: C_17  and  C_18
REMARK    9  A    between atoms: C_18  and  N_19
REMARK   10  A    between atoms: N_19  and  C_20
REMARK                            x       y       z     vdW  Elec       q    Type
REMARK                         _______ _______ _______ _____ _____    ______ ____
ROOT
ATOM      1  C   UNL A   1      43.788 -17.185 -35.123  0.00  0.00    +0.013 C 
ENDROOT
BRANCH   1   4
ATOM      2  C   UNL A   1      45.074 -19.291 -34.556  0.00  0.00    +0.247 C 
ATOM      3  O   UNL A   1      45.325 -20.167 -33.736  0.00  0.00    -0.270 OA
ATOM      4  N   UNL A   1      44.154 -18.318 -34.286  0.00  0.00    -0.311 N 
ATOM      5  H   UNL A   1      43.683 -18.392 -33.424  0.00  0.00    +0.000 HD
BRANCH   2   6
ATOM      6  C   UNL A   1      45.738 -19.272 -35.879  0.00  0.00    +0.079 C 
ATOM      7  C   UNL A   1      45.043 -19.803 -36.904  0.00  0.00    -0.039 C 
BRANCH   7   8
ATOM      8  C   UNL A   1      45.455 -19.850 -38.311  0.00  0.00    -0.024 A 
ATOM      9  C   UNL A   1      45.158 -18.807 -39.196  0.00  0.00    -0.051 A 
ATOM     10  C   UNL A   1      45.529 -18.892 -40.542  0.00  0.00    -0.020 A 
ATOM     11  C   UNL A   1      46.187 -20.030 -40.998  0.00  0.00    +0.117 A 
ATOM     12  C   UNL A   1      46.474 -21.081 -40.136  0.00  0.00    -0.020 A 
ATOM     13  C   UNL A   1      46.105 -20.993 -38.792  0.00  0.00    -0.051 A 
BRANCH  11  14
ATOM     14  O   UNL A   1      46.565 -20.157 -42.301  0.00  0.00    -0.507 OA
ATOM     15  H   UNL A   1      46.351 -19.486 -42.920  0.00  0.00    +0.000 HD
ENDBRANCH  11  14
ENDBRANCH   7   8
BRANCH   6  17
ATOM     16  C   UNL A   1      47.127 -17.224 -36.530  0.00  0.00    -0.001 C 
ATOM     17  C   UNL A   1      47.075 -18.638 -36.012  0.00  0.00    +0.165 C 
ATOM     18  O   UNL A   1      48.096 -19.226 -35.661  0.00  0.00    -0.292 OA
ENDBRANCH   6  17
ENDBRANCH   2   6
ENDBRANCH   1   4
BRANCH   1  19
ATOM     19  C   UNL A   1      42.533 -17.455 -35.946  0.00  0.00    -0.022 C 
BRANCH  19  20
ATOM     20  C   UNL A   1      41.501 -18.271 -35.167  0.00  0.00    +0.011 C 
BRANCH  20  21
ATOM     21  N   UNL A   1      40.371 -18.672 -36.023  0.00  0.00    -0.343 N 
ATOM     22  H   UNL A   1      39.693 -18.041 -36.357  0.00  0.00    +0.000 HD
BRANCH  21  23
ATOM     23  C   UNL A   1      40.357 -20.070 -36.322  0.00  0.00    +0.041 A 
ATOM     24  C   UNL A   1      40.981 -20.577 -37.483  0.00  0.00    -0.005 A 
ATOM     25  C   UNL A   1      41.041 -21.966 -37.628  0.00  0.00    +0.047 A 
ATOM     26  N   UNL A   1      40.505 -22.831 -36.735  0.00  0.00    -0.251 NA
ATOM     27  C   UNL A   1      39.875 -22.348 -35.656  0.00  0.00    +0.073 A 
ATOM     28  C   UNL A   1      39.312 -23.251 -34.763  0.00  0.00    -0.036 A 
ATOM     29  C   UNL A   1      38.623 -22.832 -33.623  0.00  0.00    -0.060 A 
ATOM     30  C   UNL A   1      38.483 -21.477 -33.367  0.00  0.00    -0.061 A 
ATOM     31  C   UNL A   1      39.044 -20.555 -34.248  0.00  0.00    -0.051 A 
ATOM     32  C   UNL A   1      39.762 -20.970 -35.397  0.00  0.00    +0.021 A 
ATOM     33  C   UNL A   1      41.659 -22.618 -38.840  0.00  0.00    -0.010 C 
ATOM     34  C   UNL A   1      42.584 -21.695 -39.622  0.00  0.00    -0.047 C 
ATOM     35  C   UNL A   1      41.899 -20.358 -39.853  0.00  0.00    -0.049 C 
ATOM     36  C   UNL A   1      41.612 -19.673 -38.517  0.00  0.00    -0.024 C 
ENDBRANCH  21  23
ENDBRANCH  20  21
ENDBRANCH  19  20
ENDBRANCH   1  19
TORSDOF 9
ENDMDL
MODEL 13
REMARK VINA RESULT:    -5.810     19.944     22.936
REMARK INTER + INTRA:         -12.282
REMARK INTER:                  -8.566
REMARK INTRA:                  -3.716
REMARK UNBOUND:                -3.585
REMARK  Name = cpd334.pdb
REMARK  10 active torsions:
REMARK  status: ('A' for Active; 'I' for Inactive)
REMARK    1  A    between atoms: C_1  and  C_2
REMARK    2  A    between atoms: C_2  and  C_4
REMARK    3  A    between atoms: C_4  and  C_13
REMARK    4  A    between atoms: C_5  and  C_6
REMARK    5  A    between atoms: C_9  and  O_10
REMARK    6  A    between atoms: N_15  and  C_16
REMARK    7  A    between atoms: C_16  and  C_17
REMARK    8  A    between atoms: C_17  and  C_18
REMARK    9  A    between atoms: C_18  and  N_19
REMARK   10  A    between atoms: N_19  and  C_20
REMARK                            x       y       z     vdW  Elec       q    Type
REMARK                         _______ _______ _______ _____ _____    ______ ____
ROOT
ATOM      1  C   UNL A   1      40.631 -18.360 -36.950  0.00  0.00    +0.013 C 
ENDROOT
BRANCH   1   4
ATOM      2  C   UNL A   1      41.385 -20.721 -36.432  0.00  0.00    +0.247 C 
ATOM      3  O   UNL A   1      41.470 -21.630 -35.612  0.00  0.00    -0.270 OA
ATOM      4  N   UNL A   1      40.764 -19.546 -36.116  0.00  0.00    -0.311 N 
ATOM      5  H   UNL A   1      40.359 -19.495 -35.220  0.00  0.00    +0.000 HD
BRANCH   2   6
ATOM      6  C   UNL A   1      41.925 -20.877 -37.801  0.00  0.00    +0.079 C 
ATOM      7  C   UNL A   1      43.136 -20.336 -38.031  0.00  0.00    -0.039 C 
BRANCH   7   8
ATOM      8  C   UNL A   1      43.906 -20.406 -39.278  0.00  0.00    -0.024 A 
ATOM      9  C   UNL A   1      44.928 -21.347 -39.456  0.00  0.00    -0.051 A 
ATOM     10  C   UNL A   1      45.671 -21.370 -40.640  0.00  0.00    -0.020 A 
ATOM     11  C   UNL A   1      45.397 -20.440 -41.637  0.00  0.00    +0.117 A 
ATOM     12  C   UNL A   1      44.398 -19.489 -41.469  0.00  0.00    -0.020 A 
ATOM     13  C   UNL A   1      43.653 -19.469 -40.287  0.00  0.00    -0.051 A 
BRANCH  11  14
ATOM     14  O   UNL A   1      46.098 -20.423 -42.806  0.00  0.00    -0.507 OA
ATOM     15  H   UNL A   1      45.720 -20.783 -43.584  0.00  0.00    +0.000 HD
ENDBRANCH  11  14
ENDBRANCH   7   8
BRANCH   6  17
ATOM     16  C   UNL A   1      40.213 -20.880 -39.703  0.00  0.00    -0.001 C 
ATOM     17  C   UNL A   1      41.147 -21.649 -38.806  0.00  0.00    +0.165 C 
ATOM     18  O   UNL A   1      41.301 -22.862 -38.934  0.00  0.00    -0.292 OA
ENDBRANCH   6  17
ENDBRANCH   2   6
ENDBRANCH   1   4
BRANCH   1  19
ATOM     19  C   UNL A   1      41.460 -17.192 -36.429  0.00  0.00    -0.022 C 
BRANCH  19  20
ATOM     20  C   UNL A   1      42.377 -16.614 -37.506  0.00  0.00    +0.011 C 
BRANCH  20  21
ATOM     21  N   UNL A   1      43.695 -16.248 -36.957  0.00  0.00    -0.343 N 
ATOM     22  H   UNL A   1      43.824 -15.540 -36.285  0.00  0.00    +0.000 HD
BRANCH  21  23
ATOM     23  C   UNL A   1      44.767 -17.023 -37.497  0.00  0.00    +0.041 A 
ATOM     24  C   UNL A   1      45.340 -16.709 -38.748  0.00  0.00    -0.005 A 
ATOM     25  C   UNL A   1      46.473 -17.429 -39.139  0.00  0.00    +0.047 A 
ATOM     26  N   UNL A   1      47.014 -18.424 -38.395  0.00  0.00    -0.251 NA
ATOM     27  C   UNL A   1      46.443 -18.750 -37.229  0.00  0.00    +0.073 A 
ATOM     28  C   UNL A   1      46.999 -19.789 -36.491  0.00  0.00    -0.036 A 
ATOM     29  C   UNL A   1      46.457 -20.205 -35.274  0.00  0.00    -0.060 A 
ATOM     30  C   UNL A   1      45.325 -19.577 -34.779  0.00  0.00    -0.061 A 
ATOM     31  C   UNL A   1      44.754 -18.531 -35.501  0.00  0.00    -0.051 A 
ATOM     32  C   UNL A   1      45.308 -18.088 -36.727  0.00  0.00    +0.021 A 
ATOM     33  C   UNL A   1      47.152 -17.197 -40.465  0.00  0.00    -0.010 C 
ATOM     34  C   UNL A   1      46.802 -15.858 -41.102  0.00  0.00    -0.047 C 
ATOM     35  C   UNL A   1      45.297 -15.654 -41.071  0.00  0.00    -0.049 C 
ATOM     36  C   UNL A   1      44.799 -15.604 -39.627  0.00  0.00    -0.024 C 
ENDBRANCH  21  23
ENDBRANCH  20  21
ENDBRANCH  19  20
ENDBRANCH   1  19
TORSDOF 9
ENDMDL
MODEL 14
REMARK VINA RESULT:    -5.793     18.228     21.350
REMARK INTER + INTRA:         -12.257
REMARK INTER:                  -8.586
REMARK INTRA:                  -3.671
REMARK UNBOUND:                -3.585
REMARK  Name = cpd334.pdb
REMARK  10 active torsions:
REMARK  status: ('A' for Active; 'I' for Inactive)
REMARK    1  A    between atoms: C_1  and  C_2
REMARK    2  A    between atoms: C_2  and  C_4
REMARK    3  A    between atoms: C_4  and  C_13
REMARK    4  A    between atoms: C_5  and  C_6
REMARK    5  A    between atoms: C_9  and  O_10
REMARK    6  A    between atoms: N_15  and  C_16
REMARK    7  A    between atoms: C_16  and  C_17
REMARK    8  A    between atoms: C_17  and  C_18
REMARK    9  A    between atoms: C_18  and  N_19
REMARK   10  A    between atoms: N_19  and  C_20
REMARK                            x       y       z     vdW  Elec       q    Type
REMARK                         _______ _______ _______ _____ _____    ______ ____
ROOT
ATOM      1  C   UNL A   1      42.818 -21.733 -40.080  0.00  0.00    +0.013 C 
ENDROOT
BRANCH   1   4
ATOM      2  C   UNL A   1      44.176 -19.649 -40.552  0.00  0.00    +0.247 C 
ATOM      3  O   UNL A   1      44.542 -18.808 -41.366  0.00  0.00    -0.270 OA
ATOM      4  N   UNL A   1      43.300 -20.636 -40.906  0.00  0.00    -0.311 N 
ATOM      5  H   UNL A   1      42.955 -20.601 -41.828  0.00  0.00    +0.000 HD
BRANCH   2   6
ATOM      6  C   UNL A   1      44.647 -19.607 -39.149  0.00  0.00    +0.079 C 
ATOM      7  C   UNL A   1      43.755 -19.189 -38.231  0.00  0.00    -0.039 C 
BRANCH   7   8
ATOM      8  C   UNL A   1      43.959 -19.115 -36.780  0.00  0.00    -0.024 A 
ATOM      9  C   UNL A   1      44.397 -17.938 -36.161  0.00  0.00    -0.051 A 
ATOM     10  C   UNL A   1      44.620 -17.904 -34.781  0.00  0.00    -0.020 A 
ATOM     11  C   UNL A   1      44.414 -19.055 -34.027  0.00  0.00    +0.117 A 
ATOM     12  C   UNL A   1      43.995 -20.235 -34.629  0.00  0.00    -0.020 A 
ATOM     13  C   UNL A   1      43.771 -20.267 -36.007  0.00  0.00    -0.051 A 
BRANCH  11  14
ATOM     14  O   UNL A   1      44.620 -19.068 -32.680  0.00  0.00    -0.507 OA
ATOM     15  H   UNL A   1      44.421 -18.309 -32.168  0.00  0.00    +0.000 HD
ENDBRANCH  11  14
ENDBRANCH   7   8
BRANCH   6  17
ATOM     16  C   UNL A   1      47.085 -19.018 -38.643  0.00  0.00    -0.001 C 
ATOM     17  C   UNL A   1      46.024 -20.070 -38.832  0.00  0.00    +0.165 C 
ATOM     18  O   UNL A   1      46.274 -21.264 -38.677  0.00  0.00    -0.292 OA
ENDBRANCH   6  17
ENDBRANCH   2   6
ENDBRANCH   1   4
BRANCH   1  19
ATOM     19  C   UNL A   1      41.350 -21.570 -39.701  0.00  0.00    -0.022 C 
BRANCH  19  20
ATOM     20  C   UNL A   1      41.078 -22.003 -38.261  0.00  0.00    +0.011 C 
BRANCH  20  21
ATOM     21  N   UNL A   1      39.825 -21.421 -37.748  0.00  0.00    -0.343 N 
ATOM     22  H   UNL A   1      38.964 -21.488 -38.220  0.00  0.00    +0.000 HD
BRANCH  21  23
ATOM     23  C   UNL A   1      39.985 -20.751 -36.495  0.00  0.00    +0.041 A 
ATOM     24  C   UNL A   1      39.920 -21.457 -35.274  0.00  0.00    -0.005 A 
ATOM     25  C   UNL A   1      40.224 -20.752 -34.106  0.00  0.00    +0.047 A 
ATOM     26  N   UNL A   1      40.539 -19.435 -34.092  0.00  0.00    -0.251 NA
ATOM     27  C   UNL A   1      40.556 -18.757 -35.247  0.00  0.00    +0.073 A 
ATOM     28  C   UNL A   1      40.859 -17.401 -35.210  0.00  0.00    -0.036 A 
ATOM     29  C   UNL A   1      40.882 -16.616 -36.364  0.00  0.00    -0.060 A 
ATOM     30  C   UNL A   1      40.590 -17.193 -37.590  0.00  0.00    -0.061 A 
ATOM     31  C   UNL A   1      40.287 -18.552 -37.650  0.00  0.00    -0.051 A 
ATOM     32  C   UNL A   1      40.280 -19.361 -36.487  0.00  0.00    +0.021 A 
ATOM     33  C   UNL A   1      40.161 -21.396 -32.743  0.00  0.00    -0.010 C 
ATOM     34  C   UNL A   1      40.199 -22.918 -32.787  0.00  0.00    -0.047 C 
ATOM     35  C   UNL A   1      39.204 -23.426 -33.818  0.00  0.00    -0.049 C 
ATOM     36  C   UNL A   1      39.588 -22.930 -35.212  0.00  0.00    -0.024 C 
ENDBRANCH  21  23
ENDBRANCH  20  21
ENDBRANCH  19  20
ENDBRANCH   1  19
TORSDOF 9
ENDMDL
MODEL 15
REMARK VINA RESULT:    -5.746     21.531     24.883
REMARK INTER + INTRA:         -12.186
REMARK INTER:                  -8.594
REMARK INTRA:                  -3.592
REMARK UNBOUND:                -3.585
REMARK  Name = cpd334.pdb
REMARK  10 active torsions:
REMARK  status: ('A' for Active; 'I' for Inactive)
REMARK    1  A    between atoms: C_1  and  C_2
REMARK    2  A    between atoms: C_2  and  C_4
REMARK    3  A    between atoms: C_4  and  C_13
REMARK    4  A    between atoms: C_5  and  C_6
REMARK    5  A    between atoms: C_9  and  O_10
REMARK    6  A    between atoms: N_15  and  C_16
REMARK    7  A    between atoms: C_16  and  C_17
REMARK    8  A    between atoms: C_17  and  C_18
REMARK    9  A    between atoms: C_18  and  N_19
REMARK   10  A    between atoms: N_19  and  C_20
REMARK                            x       y       z     vdW  Elec       q    Type
REMARK                         _______ _______ _______ _____ _____    ______ ____
ROOT
ATOM      1  C   UNL A   1      43.333 -19.337 -35.865  0.00  0.00    +0.013 C 
ENDROOT
BRANCH   1   4
ATOM      2  C   UNL A   1      45.706 -19.999 -36.448  0.00  0.00    +0.247 C 
ATOM      3  O   UNL A   1      46.486 -20.882 -36.792  0.00  0.00    -0.270 OA
ATOM      4  N   UNL A   1      44.371 -20.253 -36.317  0.00  0.00    -0.311 N 
ATOM      5  H   UNL A   1      44.075 -21.162 -36.555  0.00  0.00    +0.000 HD
BRANCH   2   6
ATOM      6  C   UNL A   1      46.181 -18.620 -36.192  0.00  0.00    +0.079 C 
ATOM      7  C   UNL A   1      45.955 -17.719 -37.166  0.00  0.00    -0.039 C 
BRANCH   7   8
ATOM      8  C   UNL A   1      46.274 -16.288 -37.129  0.00  0.00    -0.024 A 
ATOM      9  C   UNL A   1      45.357 -15.346 -36.646  0.00  0.00    -0.051 A 
ATOM     10  C   UNL A   1      45.671 -13.983 -36.654  0.00  0.00    -0.020 A 
ATOM     11  C   UNL A   1      46.899 -13.568 -37.159  0.00  0.00    +0.117 A 
ATOM     12  C   UNL A   1      47.813 -14.489 -37.657  0.00  0.00    -0.020 A 
ATOM     13  C   UNL A   1      47.499 -15.850 -37.645  0.00  0.00    -0.051 A 
BRANCH  11  14
ATOM     14  O   UNL A   1      47.246 -12.250 -37.189  0.00  0.00    -0.507 OA
ATOM     15  H   UNL A   1      47.182 -11.731 -36.411  0.00  0.00    +0.000 HD
ENDBRANCH  11  14
ENDBRANCH   7   8
BRANCH   6  17
ATOM     16  C   UNL A   1      48.321 -18.290 -34.827  0.00  0.00    -0.001 C 
ATOM     17  C   UNL A   1      46.816 -18.302 -34.886  0.00  0.00    +0.165 C 
ATOM     18  O   UNL A   1      46.137 -18.007 -33.904  0.00  0.00    -0.292 OA
ENDBRANCH   6  17
ENDBRANCH   2   6
ENDBRANCH   1   4
BRANCH   1  19
ATOM     19  C   UNL A   1      42.407 -18.909 -36.998  0.00  0.00    -0.022 C 
BRANCH  19  20
ATOM     20  C   UNL A   1      42.392 -19.923 -38.142  0.00  0.00    +0.011 C 
BRANCH  20  21
ATOM     21  N   UNL A   1      42.375 -19.257 -39.456  0.00  0.00    -0.343 N 
ATOM     22  H   UNL A   1      41.555 -19.118 -39.982  0.00  0.00    +0.000 HD
BRANCH  21  23
ATOM     23  C   UNL A   1      43.669 -18.832 -39.891  0.00  0.00    +0.041 A 
ATOM     24  C   UNL A   1      44.668 -19.767 -40.238  0.00  0.00    -0.005 A 
ATOM     25  C   UNL A   1      45.855 -19.269 -40.784  0.00  0.00    +0.047 A 
ATOM     26  N   UNL A   1      46.097 -17.948 -40.959  0.00  0.00    -0.251 NA
ATOM     27  C   UNL A   1      45.165 -17.061 -40.588  0.00  0.00    +0.073 A 
ATOM     28  C   UNL A   1      45.441 -15.709 -40.754  0.00  0.00    -0.036 A 
ATOM     29  C   UNL A   1      44.533 -14.717 -40.378  0.00  0.00    -0.060 A 
ATOM     30  C   UNL A   1      43.320 -15.078 -39.814  0.00  0.00    -0.061 A 
ATOM     31  C   UNL A   1      43.022 -16.428 -39.642  0.00  0.00    -0.051 A 
ATOM     32  C   UNL A   1      43.928 -17.442 -40.038  0.00  0.00    +0.021 A 
ATOM     33  C   UNL A   1      47.001 -20.173 -41.167  0.00  0.00    -0.010 C 
ATOM     34  C   UNL A   1      46.595 -21.631 -41.340  0.00  0.00    -0.047 C 
ATOM     35  C   UNL A   1      45.756 -22.073 -40.153  0.00  0.00    -0.049 C 
ATOM     36  C   UNL A   1      44.466 -21.257 -40.082  0.00  0.00    -0.024 C 
ENDBRANCH  21  23
ENDBRANCH  20  21
ENDBRANCH  19  20
ENDBRANCH   1  19
TORSDOF 9
ENDMDL
MODEL 16
REMARK VINA RESULT:    -5.707     21.385     24.670
REMARK INTER + INTRA:         -12.127
REMARK INTER:                  -8.715
REMARK INTRA:                  -3.412
REMARK UNBOUND:                -3.585
REMARK  Name = cpd334.pdb
REMARK  10 active torsions:
REMARK  status: ('A' for Active; 'I' for Inactive)
REMARK    1  A    between atoms: C_1  and  C_2
REMARK    2  A    between atoms: C_2  and  C_4
REMARK    3  A    between atoms: C_4  and  C_13
REMARK    4  A    between atoms: C_5  and  C_6
REMARK    5  A    between atoms: C_9  and  O_10
REMARK    6  A    between atoms: N_15  and  C_16
REMARK    7  A    between atoms: C_16  and  C_17
REMARK    8  A    between atoms: C_17  and  C_18
REMARK    9  A    between atoms: C_18  and  N_19
REMARK   10  A    between atoms: N_19  and  C_20
REMARK                            x       y       z     vdW  Elec       q    Type
REMARK                         _______ _______ _______ _____ _____    ______ ____
ROOT
ATOM      1  C   UNL A   1      43.608 -18.654 -35.305  0.00  0.00    +0.013 C 
ENDROOT
BRANCH   1   4
ATOM      2  C   UNL A   1      42.739 -19.904 -37.328  0.00  0.00    +0.247 C 
ATOM      3  O   UNL A   1      42.493 -20.982 -37.858  0.00  0.00    -0.270 OA
ATOM      4  N   UNL A   1      43.214 -19.841 -36.049  0.00  0.00    -0.311 N 
ATOM      5  H   UNL A   1      43.302 -20.700 -35.575  0.00  0.00    +0.000 HD
BRANCH   2   6
ATOM      6  C   UNL A   1      42.504 -18.631 -38.046  0.00  0.00    +0.079 C 
ATOM      7  C   UNL A   1      43.549 -18.127 -38.729  0.00  0.00    -0.039 C 
BRANCH   7   8
ATOM      8  C   UNL A   1      43.553 -16.920 -39.562  0.00  0.00    -0.024 A 
ATOM      9  C   UNL A   1      43.456 -16.993 -40.957  0.00  0.00    -0.051 A 
ATOM     10  C   UNL A   1      43.499 -15.829 -41.732  0.00  0.00    -0.020 A 
ATOM     11  C   UNL A   1      43.651 -14.597 -41.106  0.00  0.00    +0.117 A 
ATOM     12  C   UNL A   1      43.766 -14.509 -39.724  0.00  0.00    -0.020 A 
ATOM     13  C   UNL A   1      43.720 -15.672 -38.951  0.00  0.00    -0.051 A 
BRANCH  11  14
ATOM     14  O   UNL A   1      43.700 -13.438 -41.821  0.00  0.00    -0.507 OA
ATOM     15  H   UNL A   1      43.613 -12.613 -41.384  0.00  0.00    +0.000 HD
ENDBRANCH  11  14
ENDBRANCH   7   8
BRANCH   6  17
ATOM     16  C   UNL A   1      40.134 -18.538 -39.007  0.00  0.00    -0.001 C 
ATOM     17  C   UNL A   1      41.147 -18.022 -38.019  0.00  0.00    +0.165 C 
ATOM     18  O   UNL A   1      40.849 -17.169 -37.186  0.00  0.00    -0.292 OA
ENDBRANCH   6  17
ENDBRANCH   2   6
ENDBRANCH   1   4
BRANCH   1  19
ATOM     19  C   UNL A   1      45.118 -18.444 -35.306  0.00  0.00    -0.022 C 
BRANCH  19  20
ATOM     20  C   UNL A   1      45.857 -19.601 -35.977  0.00  0.00    +0.011 C 
BRANCH  20  21
ATOM     21  N   UNL A   1      47.136 -19.160 -36.562  0.00  0.00    -0.343 N 
ATOM     22  H   UNL A   1      47.991 -19.183 -36.074  0.00  0.00    +0.000 HD
BRANCH  21  23
ATOM     23  C   UNL A   1      47.011 -18.696 -37.908  0.00  0.00    +0.041 A 
ATOM     24  C   UNL A   1      47.172 -17.330 -38.229  0.00  0.00    -0.005 A 
ATOM     25  C   UNL A   1      47.172 -16.982 -39.583  0.00  0.00    +0.047 A 
ATOM     26  N   UNL A   1      46.993 -17.879 -40.582  0.00  0.00    -0.251 NA
ATOM     27  C   UNL A   1      46.796 -19.167 -40.273  0.00  0.00    +0.073 A 
ATOM     28  C   UNL A   1      46.590 -20.069 -41.311  0.00  0.00    -0.036 A 
ATOM     29  C   UNL A   1      46.360 -21.426 -41.077  0.00  0.00    -0.060 A 
ATOM     30  C   UNL A   1      46.326 -21.900 -39.775  0.00  0.00    -0.061 A 
ATOM     31  C   UNL A   1      46.533 -21.014 -38.720  0.00  0.00    -0.051 A 
ATOM     32  C   UNL A   1      46.787 -19.639 -38.948  0.00  0.00    +0.021 A 
ATOM     33  C   UNL A   1      47.310 -15.552 -40.041  0.00  0.00    -0.010 C 
ATOM     34  C   UNL A   1      47.892 -14.626 -38.982  0.00  0.00    -0.047 C 
ATOM     35  C   UNL A   1      47.174 -14.843 -37.661  0.00  0.00    -0.049 C 
ATOM     36  C   UNL A   1      47.389 -16.274 -37.170  0.00  0.00    -0.024 C 
ENDBRANCH  21  23
ENDBRANCH  20  21
ENDBRANCH  19  20
ENDBRANCH   1  19
TORSDOF 9
ENDMDL
MODEL 17
REMARK VINA RESULT:    -5.600     18.957     22.158
REMARK INTER + INTRA:         -11.967
REMARK INTER:                  -8.330
REMARK INTRA:                  -3.636
REMARK UNBOUND:                -3.585
REMARK  Name = cpd334.pdb
REMARK  10 active torsions:
REMARK  status: ('A' for Active; 'I' for Inactive)
REMARK    1  A    between atoms: C_1  and  C_2
REMARK    2  A    between atoms: C_2  and  C_4
REMARK    3  A    between atoms: C_4  and  C_13
REMARK    4  A    between atoms: C_5  and  C_6
REMARK    5  A    between atoms: C_9  and  O_10
REMARK    6  A    between atoms: N_15  and  C_16
REMARK    7  A    between atoms: C_16  and  C_17
REMARK    8  A    between atoms: C_17  and  C_18
REMARK    9  A    between atoms: C_18  and  N_19
REMARK   10  A    between atoms: N_19  and  C_20
REMARK                            x       y       z     vdW  Elec       q    Type
REMARK                         _______ _______ _______ _____ _____    ______ ____
ROOT
ATOM      1  C   UNL A   1      44.247 -19.713 -33.895  0.00  0.00    +0.013 C 
ENDROOT
BRANCH   1   4
ATOM      2  C   UNL A   1      41.980 -18.586 -33.869  0.00  0.00    +0.247 C 
ATOM      3  O   UNL A   1      41.240 -17.750 -33.362  0.00  0.00    -0.270 OA
ATOM      4  N   UNL A   1      43.268 -18.736 -33.440  0.00  0.00    -0.311 N 
ATOM      5  H   UNL A   1      43.570 -18.112 -32.741  0.00  0.00    +0.000 HD
BRANCH   2   6
ATOM      6  C   UNL A   1      41.514 -19.440 -34.984  0.00  0.00    +0.079 C 
ATOM      7  C   UNL A   1      42.067 -19.206 -36.189  0.00  0.00    -0.039 C 
BRANCH   7   8
ATOM      8  C   UNL A   1      41.818 -19.950 -37.429  0.00  0.00    -0.024 A 
ATOM      9  C   UNL A   1      40.803 -19.574 -38.317  0.00  0.00    -0.051 A 
ATOM     10  C   UNL A   1      40.561 -20.321 -39.473  0.00  0.00    -0.020 A 
ATOM     11  C   UNL A   1      41.330 -21.451 -39.731  0.00  0.00    +0.117 A 
ATOM     12  C   UNL A   1      42.331 -21.847 -38.851  0.00  0.00    -0.020 A 
ATOM     13  C   UNL A   1      42.573 -21.098 -37.697  0.00  0.00    -0.051 A 
BRANCH  11  14
ATOM     14  O   UNL A   1      41.128 -22.210 -40.844  0.00  0.00    -0.507 OA
ATOM     15  H   UNL A   1      41.717 -22.911 -41.046  0.00  0.00    +0.000 HD
ENDBRANCH  11  14
ENDBRANCH   7   8
BRANCH   6  17
ATOM     16  C   UNL A   1      41.056 -21.829 -34.189  0.00  0.00    -0.001 C 
ATOM     17  C   UNL A   1      40.528 -20.518 -34.710  0.00  0.00    +0.165 C 
ATOM     18  O   UNL A   1      39.321 -20.328 -34.852  0.00  0.00    -0.292 OA
ENDBRANCH   6  17
ENDBRANCH   2   6
ENDBRANCH   1   4
BRANCH   1  19
ATOM     19  C   UNL A   1      45.320 -19.087 -34.778  0.00  0.00    -0.022 C 
BRANCH  19  20
ATOM     20  C   UNL A   1      45.615 -19.939 -36.013  0.00  0.00    +0.011 C 
BRANCH  20  21
ATOM     21  N   UNL A   1      46.334 -19.169 -37.043  0.00  0.00    -0.343 N 
ATOM     22  H   UNL A   1      47.160 -18.662 -36.863  0.00  0.00    +0.000 HD
BRANCH  21  23
ATOM     23  C   UNL A   1      45.714 -19.230 -38.330  0.00  0.00    +0.041 A 
ATOM     24  C   UNL A   1      45.994 -20.282 -39.228  0.00  0.00    -0.005 A 
ATOM     25  C   UNL A   1      45.243 -20.341 -40.406  0.00  0.00    +0.047 A 
ATOM     26  N   UNL A   1      44.298 -19.428 -40.732  0.00  0.00    -0.251 NA
ATOM     27  C   UNL A   1      44.065 -18.405 -39.899  0.00  0.00    +0.073 A 
ATOM     28  C   UNL A   1      43.108 -17.465 -40.262  0.00  0.00    -0.036 A 
ATOM     29  C   UNL A   1      42.815 -16.360 -39.461  0.00  0.00    -0.060 A 
ATOM     30  C   UNL A   1      43.498 -16.179 -38.269  0.00  0.00    -0.061 A 
ATOM     31  C   UNL A   1      44.459 -17.111 -37.884  0.00  0.00    -0.051 A 
ATOM     32  C   UNL A   1      44.749 -18.247 -38.680  0.00  0.00    +0.021 A 
ATOM     33  C   UNL A   1      45.474 -21.406 -41.449  0.00  0.00    -0.010 C 
ATOM     34  C   UNL A   1      46.227 -22.621 -40.923  0.00  0.00    -0.047 C 
ATOM     35  C   UNL A   1      47.449 -22.167 -40.143  0.00  0.00    -0.049 C 
ATOM     36  C   UNL A   1      47.025 -21.345 -38.926  0.00  0.00    -0.024 C 
ENDBRANCH  21  23
ENDBRANCH  20  21
ENDBRANCH  19  20
ENDBRANCH   1  19
TORSDOF 9
ENDMDL
MODEL 18
REMARK VINA RESULT:    -5.580     17.892     20.807
REMARK INTER + INTRA:         -11.937
REMARK INTER:                  -8.246
REMARK INTRA:                  -3.691
REMARK UNBOUND:                -3.585
REMARK  Name = cpd334.pdb
REMARK  10 active torsions:
REMARK  status: ('A' for Active; 'I' for Inactive)
REMARK    1  A    between atoms: C_1  and  C_2
REMARK    2  A    between atoms: C_2  and  C_4
REMARK    3  A    between atoms: C_4  and  C_13
REMARK    4  A    between atoms: C_5  and  C_6
REMARK    5  A    between atoms: C_9  and  O_10
REMARK    6  A    between atoms: N_15  and  C_16
REMARK    7  A    between atoms: C_16  and  C_17
REMARK    8  A    between atoms: C_17  and  C_18
REMARK    9  A    between atoms: C_18  and  N_19
REMARK   10  A    between atoms: N_19  and  C_20
REMARK                            x       y       z     vdW  Elec       q    Type
REMARK                         _______ _______ _______ _____ _____    ______ ____
ROOT
ATOM      1  C   UNL A   1      39.384 -19.795 -38.414  0.00  0.00    +0.013 C 
ENDROOT
BRANCH   1   4
ATOM      2  C   UNL A   1      40.808 -21.769 -37.717  0.00  0.00    +0.247 C 
ATOM      3  O   UNL A   1      40.862 -22.953 -37.403  0.00  0.00    -0.270 OA
ATOM      4  N   UNL A   1      39.624 -21.190 -38.075  0.00  0.00    -0.311 N 
ATOM      5  H   UNL A   1      38.840 -21.785 -38.107  0.00  0.00    +0.000 HD
BRANCH   2   6
ATOM      6  C   UNL A   1      42.029 -20.931 -37.746  0.00  0.00    +0.079 C 
ATOM      7  C   UNL A   1      42.373 -20.337 -36.588  0.00  0.00    -0.039 C 
BRANCH   7   8
ATOM      8  C   UNL A   1      43.562 -19.512 -36.345  0.00  0.00    -0.024 A 
ATOM      9  C   UNL A   1      43.574 -18.142 -36.633  0.00  0.00    -0.051 A 
ATOM     10  C   UNL A   1      44.731 -17.385 -36.428  0.00  0.00    -0.020 A 
ATOM     11  C   UNL A   1      45.878 -18.007 -35.945  0.00  0.00    +0.117 A 
ATOM     12  C   UNL A   1      45.888 -19.369 -35.670  0.00  0.00    -0.020 A 
ATOM     13  C   UNL A   1      44.730 -20.123 -35.873  0.00  0.00    -0.051 A 
BRANCH  11  14
ATOM     14  O   UNL A   1      47.028 -17.309 -35.732  0.00  0.00    -0.507 OA
ATOM     15  H   UNL A   1      47.125 -16.788 -34.958  0.00  0.00    +0.000 HD
ENDBRANCH  11  14
ENDBRANCH   7   8
BRANCH   6  17
ATOM     16  C   UNL A   1      42.776 -19.536 -39.756  0.00  0.00    -0.001 C 
ATOM     17  C   UNL A   1      42.817 -20.840 -39.003  0.00  0.00    +0.165 C 
ATOM     18  O   UNL A   1      43.517 -21.776 -39.384  0.00  0.00    -0.292 OA
ENDBRANCH   6  17
ENDBRANCH   2   6
ENDBRANCH   1   4
BRANCH   1  19
ATOM     19  C   UNL A   1      38.520 -19.087 -37.375  0.00  0.00    -0.022 C 
BRANCH  19  20
ATOM     20  C   UNL A   1      39.346 -18.178 -36.465  0.00  0.00    +0.011 C 
BRANCH  20  21
ATOM     21  N   UNL A   1      38.938 -18.308 -35.056  0.00  0.00    -0.343 N 
ATOM     22  H   UNL A   1      38.118 -17.903 -34.689  0.00  0.00    +0.000 HD
BRANCH  21  23
ATOM     23  C   UNL A   1      39.850 -19.081 -34.272  0.00  0.00    +0.041 A 
ATOM     24  C   UNL A   1      39.623 -20.452 -34.024  0.00  0.00    -0.005 A 
ATOM     25  C   UNL A   1      40.631 -21.165 -33.368  0.00  0.00    +0.047 A 
ATOM     26  N   UNL A   1      41.783 -20.597 -32.937  0.00  0.00    -0.251 NA
ATOM     27  C   UNL A   1      41.977 -19.287 -33.134  0.00  0.00    +0.073 A 
ATOM     28  C   UNL A   1      43.155 -18.719 -32.664  0.00  0.00    -0.036 A 
ATOM     29  C   UNL A   1      43.430 -17.358 -32.811  0.00  0.00    -0.060 A 
ATOM     30  C   UNL A   1      42.506 -16.537 -33.437  0.00  0.00    -0.061 A 
ATOM     31  C   UNL A   1      41.320 -17.087 -33.919  0.00  0.00    -0.051 A 
ATOM     32  C   UNL A   1      41.040 -18.470 -33.792  0.00  0.00    +0.021 A 
ATOM     33  C   UNL A   1      40.485 -22.627 -33.028  0.00  0.00    -0.010 C 
ATOM     34  C   UNL A   1      39.406 -23.336 -33.836  0.00  0.00    -0.047 C 
ATOM     35  C   UNL A   1      38.130 -22.511 -33.820  0.00  0.00    -0.049 C 
ATOM     36  C   UNL A   1      38.367 -21.156 -34.486  0.00  0.00    -0.024 C 
ENDBRANCH  21  23
ENDBRANCH  20  21
ENDBRANCH  19  20
ENDBRANCH   1  19
TORSDOF 9
ENDMDL
MODEL 19
REMARK VINA RESULT:    -5.570     18.460     21.852
REMARK INTER + INTRA:         -11.923
REMARK INTER:                  -8.868
REMARK INTRA:                  -3.055
REMARK UNBOUND:                -3.585
REMARK  Name = cpd334.pdb
REMARK  10 active torsions:
REMARK  status: ('A' for Active; 'I' for Inactive)
REMARK    1  A    between atoms: C_1  and  C_2
REMARK    2  A    between atoms: C_2  and  C_4
REMARK    3  A    between atoms: C_4  and  C_13
REMARK    4  A    between atoms: C_5  and  C_6
REMARK    5  A    between atoms: C_9  and  O_10
REMARK    6  A    between atoms: N_15  and  C_16
REMARK    7  A    between atoms: C_16  and  C_17
REMARK    8  A    between atoms: C_17  and  C_18
REMARK    9  A    between atoms: C_18  and  N_19
REMARK   10  A    between atoms: N_19  and  C_20
REMARK                            x       y       z     vdW  Elec       q    Type
REMARK                         _______ _______ _______ _____ _____    ______ ____
ROOT
ATOM      1  C   UNL A   1      43.355 -17.131 -35.153  0.00  0.00    +0.013 C 
ENDROOT
BRANCH   1   4
ATOM      2  C   UNL A   1      44.155 -19.428 -34.450  0.00  0.00    +0.247 C 
ATOM      3  O   UNL A   1      44.060 -20.369 -33.668  0.00  0.00    -0.270 OA
ATOM      4  N   UNL A   1      43.331 -18.343 -34.347  0.00  0.00    -0.311 N 
ATOM      5  H   UNL A   1      42.641 -18.386 -33.647  0.00  0.00    +0.000 HD
BRANCH   2   6
ATOM      6  C   UNL A   1      45.147 -19.447 -35.549  0.00  0.00    +0.079 C 
ATOM      7  C   UNL A   1      44.682 -19.781 -36.767  0.00  0.00    -0.039 C 
BRANCH   7   8
ATOM      8  C   UNL A   1      45.447 -19.815 -38.019  0.00  0.00    -0.024 A 
ATOM      9  C   UNL A   1      45.542 -18.692 -38.850  0.00  0.00    -0.051 A 
ATOM     10  C   UNL A   1      46.246 -18.760 -40.055  0.00  0.00    -0.020 A 
ATOM     11  C   UNL A   1      46.843 -19.959 -40.431  0.00  0.00    +0.117 A 
ATOM     12  C   UNL A   1      46.744 -21.088 -39.626  0.00  0.00    -0.020 A 
ATOM     13  C   UNL A   1      46.042 -21.017 -38.420  0.00  0.00    -0.051 A 
BRANCH  11  14
ATOM     14  O   UNL A   1      47.537 -20.072 -41.599  0.00  0.00    -0.507 OA
ATOM     15  H   UNL A   1      48.342 -19.606 -41.712  0.00  0.00    +0.000 HD
ENDBRANCH  11  14
ENDBRANCH   7   8
BRANCH   6  17
ATOM     16  C   UNL A   1      46.956 -17.638 -35.581  0.00  0.00    -0.001 C 
ATOM     17  C   UNL A   1      46.553 -19.054 -35.266  0.00  0.00    +0.165 C 
ATOM     18  O   UNL A   1      47.340 -19.841 -34.744  0.00  0.00    -0.292 OA
ENDBRANCH   6  17
ENDBRANCH   2   6
ENDBRANCH   1   4
BRANCH   1  19
ATOM     19  C   UNL A   1      42.103 -16.981 -36.009  0.00  0.00    -0.022 C 
BRANCH  19  20
ATOM     20  C   UNL A   1      40.860 -17.529 -35.309  0.00  0.00    +0.011 C 
BRANCH  20  21
ATOM     21  N   UNL A   1      40.068 -18.390 -36.205  0.00  0.00    -0.343 N 
ATOM     22  H   UNL A   1      39.313 -18.062 -36.745  0.00  0.00    +0.000 HD
BRANCH  21  23
ATOM     23  C   UNL A   1      40.507 -19.751 -36.215  0.00  0.00    +0.041 A 
ATOM     24  C   UNL A   1      40.268 -20.605 -35.117  0.00  0.00    -0.005 A 
ATOM     25  C   UNL A   1      40.606 -21.953 -35.263  0.00  0.00    +0.047 A 
ATOM     26  N   UNL A   1      41.175 -22.460 -36.383  0.00  0.00    -0.251 NA
ATOM     27  C   UNL A   1      41.442 -21.640 -37.407  0.00  0.00    +0.073 A 
ATOM     28  C   UNL A   1      42.047 -22.174 -38.538  0.00  0.00    -0.036 A 
ATOM     29  C   UNL A   1      42.376 -21.386 -39.643  0.00  0.00    -0.060 A 
ATOM     30  C   UNL A   1      42.101 -20.028 -39.622  0.00  0.00    -0.061 A 
ATOM     31  C   UNL A   1      41.491 -19.473 -38.499  0.00  0.00    -0.051 A 
ATOM     32  C   UNL A   1      41.136 -20.267 -37.381  0.00  0.00    +0.021 A 
ATOM     33  C   UNL A   1      40.420 -22.951 -34.147  0.00  0.00    -0.010 C 
ATOM     34  C   UNL A   1      39.446 -22.487 -33.072  0.00  0.00    -0.047 C 
ATOM     35  C   UNL A   1      39.784 -21.065 -32.655  0.00  0.00    -0.049 C 
ATOM     36  C   UNL A   1      39.625 -20.113 -33.840  0.00  0.00    -0.024 C 
ENDBRANCH  21  23
ENDBRANCH  20  21
ENDBRANCH  19  20
ENDBRANCH   1  19
TORSDOF 9
ENDMDL
MODEL 20
REMARK VINA RESULT:    -5.430     17.989     20.771
REMARK INTER + INTRA:         -11.713
REMARK INTER:                  -8.177
REMARK INTRA:                  -3.536
REMARK UNBOUND:                -3.585
REMARK  Name = cpd334.pdb
REMARK  10 active torsions:
REMARK  status: ('A' for Active; 'I' for Inactive)
REMARK    1  A    between atoms: C_1  and  C_2
REMARK    2  A    between atoms: C_2  and  C_4
REMARK    3  A    between atoms: C_4  and  C_13
REMARK    4  A    between atoms: C_5  and  C_6
REMARK    5  A    between atoms: C_9  and  O_10
REMARK    6  A    between atoms: N_15  and  C_16
REMARK    7  A    between atoms: C_16  and  C_17
REMARK    8  A    between atoms: C_17  and  C_18
REMARK    9  A    between atoms: C_18  and  N_19
REMARK   10  A    between atoms: N_19  and  C_20
REMARK                            x       y       z     vdW  Elec       q    Type
REMARK                         _______ _______ _______ _____ _____    ______ ____
ROOT
ATOM      1  C   UNL A   1      39.300 -19.782 -38.478  0.00  0.00    +0.013 C 
ENDROOT
BRANCH   1   4
ATOM      2  C   UNL A   1      40.762 -21.778 -37.943  0.00  0.00    +0.247 C 
ATOM      3  O   UNL A   1      40.841 -22.985 -37.735  0.00  0.00    -0.270 OA
ATOM      4  N   UNL A   1      39.568 -21.196 -38.261  0.00  0.00    -0.311 N 
ATOM      5  H   UNL A   1      38.799 -21.804 -38.354  0.00  0.00    +0.000 HD
BRANCH   2   6
ATOM      6  C   UNL A   1      41.964 -20.916 -37.885  0.00  0.00    +0.079 C 
ATOM      7  C   UNL A   1      42.376 -20.547 -36.657  0.00  0.00    -0.039 C 
BRANCH   7   8
ATOM      8  C   UNL A   1      43.564 -19.750 -36.334  0.00  0.00    -0.024 A 
ATOM      9  C   UNL A   1      44.642 -20.296 -35.625  0.00  0.00    -0.051 A 
ATOM     10  C   UNL A   1      45.747 -19.505 -35.296  0.00  0.00    -0.020 A 
ATOM     11  C   UNL A   1      45.764 -18.165 -35.669  0.00  0.00    +0.117 A 
ATOM     12  C   UNL A   1      44.696 -17.604 -36.359  0.00  0.00    -0.020 A 
ATOM     13  C   UNL A   1      43.593 -18.396 -36.688  0.00  0.00    -0.051 A 
BRANCH  11  14
ATOM     14  O   UNL A   1      46.819 -17.357 -35.369  0.00  0.00    -0.507 OA
ATOM     15  H   UNL A   1      47.401 -17.073 -36.047  0.00  0.00    +0.000 HD
ENDBRANCH  11  14
ENDBRANCH   7   8
BRANCH   6  17
ATOM     16  C   UNL A   1      43.523 -21.616 -39.789  0.00  0.00    -0.001 C 
ATOM     17  C   UNL A   1      42.663 -20.559 -39.147  0.00  0.00    +0.165 C 
ATOM     18  O   UNL A   1      42.502 -19.460 -39.674  0.00  0.00    -0.292 OA
ENDBRANCH   6  17
ENDBRANCH   2   6
ENDBRANCH   1   4
BRANCH   1  19
ATOM     19  C   UNL A   1      38.445 -19.179 -37.369  0.00  0.00    -0.022 C 
BRANCH  19  20
ATOM     20  C   UNL A   1      39.246 -18.225 -36.482  0.00  0.00    +0.011 C 
BRANCH  20  21
ATOM     21  N   UNL A   1      38.980 -18.464 -35.053  0.00  0.00    -0.343 N 
ATOM     22  H   UNL A   1      38.121 -18.254 -34.619  0.00  0.00    +0.000 HD
BRANCH  21  23
ATOM     23  C   UNL A   1      40.093 -19.032 -34.358  0.00  0.00    +0.041 A 
ATOM     24  C   UNL A   1      41.168 -18.230 -33.920  0.00  0.00    -0.005 A 
ATOM     25  C   UNL A   1      42.147 -18.840 -33.129  0.00  0.00    +0.047 A 
ATOM     26  N   UNL A   1      42.125 -20.154 -32.800  0.00  0.00    -0.251 NA
ATOM     27  C   UNL A   1      41.127 -20.922 -33.254  0.00  0.00    +0.073 A 
ATOM     28  C   UNL A   1      41.134 -22.273 -32.925  0.00  0.00    -0.036 A 
ATOM     29  C   UNL A   1      40.142 -23.148 -33.371  0.00  0.00    -0.060 A 
ATOM     30  C   UNL A   1      39.117 -22.670 -34.172  0.00  0.00    -0.061 A 
ATOM     31  C   UNL A   1      39.089 -21.319 -34.510  0.00  0.00    -0.051 A 
ATOM     32  C   UNL A   1      40.080 -20.419 -34.047  0.00  0.00    +0.021 A 
ATOM     33  C   UNL A   1      43.354 -18.087 -32.627  0.00  0.00    -0.010 C 
ATOM     34  C   UNL A   1      43.183 -16.574 -32.656  0.00  0.00    -0.047 C 
ATOM     35  C   UNL A   1      42.637 -16.146 -34.008  0.00  0.00    -0.049 C 
ATOM     36  C   UNL A   1      41.254 -16.755 -34.237  0.00  0.00    -0.024 C 
ENDBRANCH  21  23
ENDBRANCH  20  21
ENDBRANCH  19  20
ENDBRANCH   1  19
TORSDOF 9
ENDMDL
