REMARK  Name = cpd334.pdb
REMARK  10 active torsions:
REMARK  status: ('A' for Active; 'I' for Inactive)
REMARK    1  A    between atoms: C_1  and  C_2
REMARK    2  A    between atoms: C_2  and  C_4
REMARK    3  A    between atoms: C_4  and  C_13
REMARK    4  A    between atoms: C_5  and  C_6
REMARK    5  A    between atoms: C_9  and  O_10
REMARK    6  A    between atoms: N_15  and  C_16
REMARK    7  A    between atoms: C_16  and  C_17
REMARK    8  A    between atoms: C_17  and  C_18
REMARK    9  A    between atoms: C_18  and  N_19
REMARK   10  A    between atoms: N_19  and  C_20
REMARK                            x       y       z     vdW  Elec       q    Type
REMARK                         _______ _______ _______ _____ _____    ______ ____
ROOT
ATOM      1  C   UNL A   1      -2.210  -3.681  -0.071  0.00  0.00    +0.013 C 
ENDROOT
BRANCH   1   4
ATOM      2  C   UNL A   1      -3.806  -2.729   1.648  0.00  0.00    +0.247 C 
ATOM      3  O   UNL A   1      -3.959  -2.100   2.690  0.00  0.00    -0.270 OA
ATOM      4  N   UNL A   1      -2.562  -2.916   1.116  0.00  0.00    -0.311 N 
ATOM      5  H   UNL A   1      -1.816  -2.483   1.591  0.00  0.00    +0.000 HD
BRANCH   2   6
ATOM      6  C   UNL A   1      -4.967  -3.283   0.915  0.00  0.00    +0.079 C 
ATOM      7  C   UNL A   1      -5.190  -4.603   1.059  0.00  0.00    -0.039 C 
BRANCH   7   8
ATOM      8  C   UNL A   1      -6.301  -5.372   0.488  0.00  0.00    -0.024 A 
ATOM      9  C   UNL A   1      -7.634  -5.071   0.795  0.00  0.00    -0.051 A 
ATOM     10  C   UNL A   1      -8.674  -5.842   0.267  0.00  0.00    -0.020 A 
ATOM     11  C   UNL A   1      -8.374  -6.921  -0.558  0.00  0.00    +0.117 A 
ATOM     12  C   UNL A   1      -7.056  -7.243  -0.859  0.00  0.00    -0.020 A 
ATOM     13  C   UNL A   1      -6.018  -6.470  -0.333  0.00  0.00    -0.051 A 
BRANCH  11  14
ATOM     14  O   UNL A   1      -9.355  -7.701  -1.093  0.00  0.00    -0.507 OA
ATOM     15  H   UNL A   1     -10.255  -7.513  -0.911  0.00  0.00    +0.000 HD
ENDBRANCH  11  14
ENDBRANCH   7   8
BRANCH   6  17
ATOM     16  C   UNL A   1      -6.194  -1.044   0.748  0.00  0.00    -0.001 C 
ATOM     17  C   UNL A   1      -5.832  -2.367   0.126  0.00  0.00    +0.165 C 
ATOM     18  O   UNL A   1      -6.193  -2.657  -1.013  0.00  0.00    -0.292 OA
ENDBRANCH   6  17
ENDBRANCH   2   6
ENDBRANCH   1   4
BRANCH   1  19
ATOM     19  C   UNL A   1      -0.834  -3.309  -0.612  0.00  0.00    -0.022 C 
BRANCH  19  20
ATOM     20  C   UNL A   1      -0.812  -1.900  -1.204  0.00  0.00    +0.011 C 
BRANCH  20  21
ATOM     21  N   UNL A   1       0.473  -1.610  -1.864  0.00  0.00    -0.343 N 
ATOM     22  H   UNL A   1       0.638  -1.768  -2.822  0.00  0.00    +0.000 HD
BRANCH  21  23
ATOM     23  C   UNL A   1       1.457  -1.076  -0.975  0.00  0.00    +0.041 A 
ATOM     24  C   UNL A   1       1.426   0.278  -0.577  0.00  0.00    -0.005 A 
ATOM     25  C   UNL A   1       2.340   0.684   0.400  0.00  0.00    +0.047 A 
ATOM     26  N   UNL A   1       3.261  -0.145   0.947  0.00  0.00    -0.251 NA
ATOM     27  C   UNL A   1       3.318  -1.418   0.536  0.00  0.00    +0.073 A 
ATOM     28  C   UNL A   1       4.285  -2.247   1.092  0.00  0.00    -0.036 A 
ATOM     29  C   UNL A   1       4.425  -3.582   0.708  0.00  0.00    -0.060 A 
ATOM     30  C   UNL A   1       3.585  -4.107  -0.261  0.00  0.00    -0.061 A 
ATOM     31  C   UNL A   1       2.606  -3.294  -0.829  0.00  0.00    -0.051 A 
ATOM     32  C   UNL A   1       2.443  -1.944  -0.432  0.00  0.00    +0.021 A 
ATOM     33  C   UNL A   1       2.415   2.111   0.882  0.00  0.00    -0.010 C 
ATOM     34  C   UNL A   1       1.164   2.924   0.576  0.00  0.00    -0.047 C 
ATOM     35  C   UNL A   1       0.766   2.724  -0.877  0.00  0.00    -0.049 C 
ATOM     36  C   UNL A   1       0.419   1.258  -1.134  0.00  0.00    -0.024 C 
ENDBRANCH  21  23
ENDBRANCH  20  21
ENDBRANCH  19  20
ENDBRANCH   1  19
TORSDOF 9
