REMARK  Name = cpd299.pdb
REMARK  21 active torsions:
REMARK  status: ('A' for Active; 'I' for Inactive)
REMARK    1  A    between atoms: C_1  and  C_2
REMARK    2  A    between atoms: C_2  and  N_3
REMARK    3  A    between atoms: N_3  and  C_4
REMARK    4  A    between atoms: N_3  and  C_6
REMARK    5  A    between atoms: C_4  and  C_5
REMARK    6  A    between atoms: C_6  and  C_7
REMARK    7  A    between atoms: C_7  and  C_8
REMARK    8  A    between atoms: C_8  and  C_9
REMARK    9  A    between atoms: C_9  and  O_10
REMARK   10  A    between atoms: O_10  and  C_11
REMARK   11  A    between atoms: C_11  and  C_13
REMARK   12  A    between atoms: C_13  and  C_14
REMARK   13  A    between atoms: C_14  and  C_15
REMARK   14  A    between atoms: C_14  and  C_16
REMARK   15  A    between atoms: C_16  and  C_17
REMARK   16  A    between atoms: C_17  and  C_18
REMARK   17  A    between atoms: C_19  and  C_20
REMARK   18  A    between atoms: C_20  and  O_21
REMARK   19  A    between atoms: C_25  and  C_26
REMARK   20  A    between atoms: C_25  and  C_27
REMARK   21  A    between atoms: C_31  and  C_32
REMARK                            x       y       z     vdW  Elec       q    Type
REMARK                         _______ _______ _______ _____ _____    ______ ____
ROOT
ATOM      1  C   UNL     1      -2.865  -2.478   0.962  0.00  0.00    -0.049 C 
ENDROOT
BRANCH   1   2
ATOM      2  C   UNL     1      -3.074  -3.857   0.294  0.00  0.00    -0.034 C 
ATOM      3  C   UNL     1      -1.806  -4.316  -0.436  0.00  0.00    -0.062 C 
BRANCH   2   4
ATOM      4  C   UNL     1      -4.308  -3.868  -0.619  0.00  0.00    +0.048 C 
BRANCH   4   5
ATOM      5  C   UNL     1      -4.526  -5.163  -1.367  0.00  0.00    +0.307 C 
ATOM      6  O   UNL     1      -4.240  -5.250  -2.560  0.00  0.00    -0.251 OA
BRANCH   5   7
ATOM      7  O   UNL     1      -5.037  -6.226  -0.713  0.00  0.00    -0.465 OA
BRANCH   7   8
ATOM      8  C   UNL     1      -5.365  -6.262   0.687  0.00  0.00    +0.092 C 
BRANCH   8   9
ATOM      9  C   UNL     1      -6.444  -7.323   0.908  0.00  0.00    -0.017 C 
BRANCH   9  10
ATOM     10  C   UNL     1      -6.000  -8.723   0.465  0.00  0.00    -0.037 C 
BRANCH  10  11
ATOM     11  C   UNL     1      -7.125  -9.749   0.678  0.00  0.00    -0.001 C 
BRANCH  11  12
ATOM     12  N   UNL     1      -6.787 -11.075   0.136  0.00  0.00    -0.303 N 
ATOM     13  H   UNL     1      -6.451 -10.909  -0.813  0.00  0.00    +0.000 HD
BRANCH  12  15
ATOM     14  C   UNL     1      -8.975 -11.525  -1.003  0.00  0.00    -0.052 C 
ATOM     15  C   UNL     1      -7.960 -11.962   0.049  0.00  0.00    -0.004 C 
ENDBRANCH  12  15
BRANCH  12  16
ATOM     16  C   UNL     1      -5.704 -11.728   0.893  0.00  0.00    -0.004 C 
ATOM     17  C   UNL     1      -4.509 -11.945  -0.024  0.00  0.00    -0.052 C 
ENDBRANCH  12  16
ENDBRANCH  11  12
ENDBRANCH  10  11
ENDBRANCH   9  10
ENDBRANCH   8   9
ENDBRANCH   7   8
ENDBRANCH   5   7
ENDBRANCH   4   5
ENDBRANCH   2   4
ENDBRANCH   1   2
BRANCH   1  18
ATOM     18  C   UNL     1      -2.677  -1.297  -0.014  0.00  0.00    -0.046 C 
BRANCH  18  19
ATOM     19  C   UNL     1      -1.804  -0.107   0.590  0.00  0.00    -0.012 C 
ATOM     20  C   UNL     1      -2.676   1.142   0.415  0.00  0.00    -0.045 C 
ATOM     21  C   UNL     1      -2.278   1.975  -0.547  0.00  0.00    -0.082 C 
ATOM     22  C   UNL     1      -0.943   1.682  -1.129  0.00  0.00    -0.031 C 
ATOM     23  C   UNL     1       0.000   1.000   0.000  0.00  0.00    -0.027 C 
ATOM     24  C   UNL     1       1.519   1.583  -0.479  0.00  0.00    -0.031 C 
ATOM     25  C   UNL     1       1.650   3.099  -0.159  0.00  0.00    -0.060 C 
ATOM     26  C   UNL     1       1.817   1.372  -1.986  0.00  0.00    -0.060 C 
ATOM     27  C   UNL     1       2.652   0.857   0.290  0.00  0.00    -0.048 C 
ATOM     28  C   UNL     1       2.194   0.598   1.698  0.00  0.00    -0.052 C 
ATOM     29  C   UNL     1       0.814  -0.053   1.648  0.00  0.00    -0.047 C 
ATOM     30  C   UNL     1       0.000   0.000   0.000  0.00  0.00    -0.022 C 
ATOM     31  C   UNL     1       0.000  -1.000   0.000  0.00  0.00    -0.059 C 
BRANCH  20  32
ATOM     32  C   UNL     1      -3.893   1.302   1.284  0.00  0.00    +0.066 C 
BRANCH  32  33
ATOM     33  O   UNL     1      -4.458   2.599   1.155  0.00  0.00    -0.391 OA
ATOM     34  H   UNL     1      -3.808   3.264   1.433  0.00  0.00    +0.000 HD
ENDBRANCH  32  33
ENDBRANCH  20  32
ENDBRANCH  18  19
ENDBRANCH   1  18
TORSDOF 15
