MODEL 1
REMARK VINA RESULT:    -6.707      0.000      0.000
REMARK INTER + INTRA:         -14.736
REMARK INTER:                 -12.392
REMARK INTRA:                  -2.344
REMARK UNBOUND:                -2.344
REMARK  Name = cpd299.pdb
REMARK  21 active torsions:
REMARK  status: ('A' for Active; 'I' for Inactive)
REMARK    1  A    between atoms: C_1  and  C_2
REMARK    2  A    between atoms: C_2  and  N_3
REMARK    3  A    between atoms: N_3  and  C_4
REMARK    4  A    between atoms: N_3  and  C_6
REMARK    5  A    between atoms: C_4  and  C_5
REMARK    6  A    between atoms: C_6  and  C_7
REMARK    7  A    between atoms: C_7  and  C_8
REMARK    8  A    between atoms: C_8  and  C_9
REMARK    9  A    between atoms: C_9  and  O_10
REMARK   10  A    between atoms: O_10  and  C_11
REMARK   11  A    between atoms: C_11  and  C_13
REMARK   12  A    between atoms: C_13  and  C_14
REMARK   13  A    between atoms: C_14  and  C_15
REMARK   14  A    between atoms: C_14  and  C_16
REMARK   15  A    between atoms: C_16  and  C_17
REMARK   16  A    between atoms: C_17  and  C_18
REMARK   17  A    between atoms: C_19  and  C_20
REMARK   18  A    between atoms: C_20  and  O_21
REMARK   19  A    between atoms: C_25  and  C_26
REMARK   20  A    between atoms: C_25  and  C_27
REMARK   21  A    between atoms: C_31  and  C_32
REMARK                            x       y       z     vdW  Elec       q    Type
REMARK                         _______ _______ _______ _____ _____    ______ ____
ROOT
ATOM      1  C   UNL     1      34.995 -35.423 -30.936  0.00  0.00    -0.049 C 
ENDROOT
BRANCH   1   2
ATOM      2  C   UNL     1      34.348 -34.033 -30.732  0.00  0.00    -0.034 C 
ATOM      3  C   UNL     1      35.391 -32.915 -30.850  0.00  0.00    -0.062 C 
BRANCH   2   4
ATOM      4  C   UNL     1      33.559 -33.957 -29.417  0.00  0.00    +0.048 C 
BRANCH   4   5
ATOM      5  C   UNL     1      32.411 -34.934 -29.316  0.00  0.00    +0.307 C 
ATOM      6  O   UNL     1      31.498 -34.912 -30.140  0.00  0.00    -0.251 OA
BRANCH   5   7
ATOM      7  O   UNL     1      32.396 -35.834 -28.311  0.00  0.00    -0.465 OA
BRANCH   7   8
ATOM      8  C   UNL     1      33.191 -37.031 -28.255  0.00  0.00    +0.092 C 
BRANCH   8   9
ATOM      9  C   UNL     1      34.249 -36.863 -27.163  0.00  0.00    -0.017 C 
BRANCH   9  10
ATOM     10  C   UNL     1      35.052 -38.146 -26.912  0.00  0.00    -0.037 C 
BRANCH  10  11
ATOM     11  C   UNL     1      34.169 -39.391 -27.092  0.00  0.00    -0.001 C 
BRANCH  11  12
ATOM     12  N   UNL     1      33.946 -40.110 -25.826  0.00  0.00    -0.303 N 
ATOM     13  H   UNL     1      34.723 -39.848 -25.218  0.00  0.00    +0.000 HD
BRANCH  12  15
ATOM     14  C   UNL     1      32.606 -42.195 -26.201  0.00  0.00    -0.052 C 
ATOM     15  C   UNL     1      33.983 -41.573 -25.997  0.00  0.00    -0.004 C 
ENDBRANCH  12  15
BRANCH  12  16
ATOM     16  C   UNL     1      32.694 -39.701 -25.165  0.00  0.00    -0.004 C 
ATOM     17  C   UNL     1      33.024 -38.965 -23.875  0.00  0.00    -0.052 C 
ENDBRANCH  12  16
ENDBRANCH  11  12
ENDBRANCH  10  11
ENDBRANCH   9  10
ENDBRANCH   8   9
ENDBRANCH   7   8
ENDBRANCH   5   7
ENDBRANCH   4   5
ENDBRANCH   2   4
ENDBRANCH   1   2
BRANCH   1  18
ATOM     18  C   UNL     1      36.294 -35.666 -30.139  0.00  0.00    -0.046 C 
BRANCH  18  19
ATOM     19  C   UNL     1      37.346 -36.588 -30.905  0.00  0.00    -0.012 C 
ATOM     20  C   UNL     1      37.290 -37.933 -30.170  0.00  0.00    -0.045 C 
ATOM     21  C   UNL     1      38.345 -38.195 -29.397  0.00  0.00    -0.082 C 
ATOM     22  C   UNL     1      39.492 -37.264 -29.550  0.00  0.00    -0.031 C 
ATOM     23  C   UNL     1      39.533 -36.705 -31.072  0.00  0.00    -0.027 C 
ATOM     24  C   UNL     1      41.205 -36.505 -31.277  0.00  0.00    -0.031 C 
ATOM     25  C   UNL     1      41.911 -37.884 -31.404  0.00  0.00    -0.060 C 
ATOM     26  C   UNL     1      41.880 -35.712 -30.129  0.00  0.00    -0.060 C 
ATOM     27  C   UNL     1      41.507 -35.719 -32.579  0.00  0.00    -0.048 C 
ATOM     28  C   UNL     1      40.516 -36.127 -33.633  0.00  0.00    -0.052 C 
ATOM     29  C   UNL     1      39.112 -36.042 -33.039  0.00  0.00    -0.047 C 
ATOM     30  C   UNL     1      39.063 -35.834 -31.213  0.00  0.00    -0.022 C 
ATOM     31  C   UNL     1      38.593 -34.963 -31.354  0.00  0.00    -0.059 C 
BRANCH  20  32
ATOM     32  C   UNL     1      36.074 -38.801 -30.341  0.00  0.00    +0.066 C 
BRANCH  32  33
ATOM     33  O   UNL     1      36.338 -40.146 -29.969  0.00  0.00    -0.391 OA
ATOM     34  H   UNL     1      35.552 -40.525 -29.545  0.00  0.00    +0.000 HD
ENDBRANCH  32  33
ENDBRANCH  20  32
ENDBRANCH  18  19
ENDBRANCH   1  18
TORSDOF 15
ENDMDL
MODEL 2
REMARK VINA RESULT:    -6.703      3.440      5.624
REMARK INTER + INTRA:         -14.730
REMARK INTER:                 -12.986
REMARK INTRA:                  -1.744
REMARK UNBOUND:                -2.344
REMARK  Name = cpd299.pdb
REMARK  21 active torsions:
REMARK  status: ('A' for Active; 'I' for Inactive)
REMARK    1  A    between atoms: C_1  and  C_2
REMARK    2  A    between atoms: C_2  and  N_3
REMARK    3  A    between atoms: N_3  and  C_4
REMARK    4  A    between atoms: N_3  and  C_6
REMARK    5  A    between atoms: C_4  and  C_5
REMARK    6  A    between atoms: C_6  and  C_7
REMARK    7  A    between atoms: C_7  and  C_8
REMARK    8  A    between atoms: C_8  and  C_9
REMARK    9  A    between atoms: C_9  and  O_10
REMARK   10  A    between atoms: O_10  and  C_11
REMARK   11  A    between atoms: C_11  and  C_13
REMARK   12  A    between atoms: C_13  and  C_14
REMARK   13  A    between atoms: C_14  and  C_15
REMARK   14  A    between atoms: C_14  and  C_16
REMARK   15  A    between atoms: C_16  and  C_17
REMARK   16  A    between atoms: C_17  and  C_18
REMARK   17  A    between atoms: C_19  and  C_20
REMARK   18  A    between atoms: C_20  and  O_21
REMARK   19  A    between atoms: C_25  and  C_26
REMARK   20  A    between atoms: C_25  and  C_27
REMARK   21  A    between atoms: C_31  and  C_32
REMARK                            x       y       z     vdW  Elec       q    Type
REMARK                         _______ _______ _______ _____ _____    ______ ____
ROOT
ATOM      1  C   UNL     1      35.452 -34.915 -30.757  0.00  0.00    -0.049 C 
ENDROOT
BRANCH   1   2
ATOM      2  C   UNL     1      34.978 -33.573 -30.152  0.00  0.00    -0.034 C 
ATOM      3  C   UNL     1      33.741 -33.772 -29.267  0.00  0.00    -0.062 C 
BRANCH   2   4
ATOM      4  C   UNL     1      34.756 -32.506 -31.233  0.00  0.00    +0.048 C 
BRANCH   4   5
ATOM      5  C   UNL     1      33.375 -31.892 -31.237  0.00  0.00    +0.307 C 
ATOM      6  O   UNL     1      33.076 -31.023 -30.419  0.00  0.00    -0.251 OA
BRANCH   5   7
ATOM      7  O   UNL     1      32.471 -32.305 -32.148  0.00  0.00    -0.465 OA
BRANCH   7   8
ATOM      8  C   UNL     1      32.228 -33.674 -32.518  0.00  0.00    +0.092 C 
BRANCH   8   9
ATOM      9  C   UNL     1      30.756 -33.995 -32.260  0.00  0.00    -0.017 C 
BRANCH   9  10
ATOM     10  C   UNL     1      30.326 -33.695 -30.818  0.00  0.00    -0.037 C 
BRANCH  10  11
ATOM     11  C   UNL     1      29.311 -32.541 -30.777  0.00  0.00    -0.001 C 
BRANCH  11  12
ATOM     12  N   UNL     1      29.937 -31.254 -30.435  0.00  0.00    -0.303 N 
ATOM     13  H   UNL     1      30.936 -31.378 -30.604  0.00  0.00    +0.000 HD
BRANCH  12  15
ATOM     14  C   UNL     1      28.320 -30.570 -28.646  0.00  0.00    -0.052 C 
ATOM     15  C   UNL     1      29.762 -30.903 -29.015  0.00  0.00    -0.004 C 
ENDBRANCH  12  15
BRANCH  12  16
ATOM     16  C   UNL     1      29.464 -30.156 -31.298  0.00  0.00    -0.004 C 
ATOM     17  C   UNL     1      28.694 -30.738 -32.474  0.00  0.00    -0.052 C 
ENDBRANCH  12  16
ENDBRANCH  11  12
ENDBRANCH  10  11
ENDBRANCH   9  10
ENDBRANCH   8   9
ENDBRANCH   7   8
ENDBRANCH   5   7
ENDBRANCH   4   5
ENDBRANCH   2   4
ENDBRANCH   1   2
BRANCH   1  18
ATOM     18  C   UNL     1      36.456 -35.707 -29.892  0.00  0.00    -0.046 C 
BRANCH  18  19
ATOM     19  C   UNL     1      37.479 -36.582 -30.748  0.00  0.00    -0.012 C 
ATOM     20  C   UNL     1      37.492 -37.951 -30.058  0.00  0.00    -0.045 C 
ATOM     21  C   UNL     1      38.594 -38.215 -29.355  0.00  0.00    -0.082 C 
ATOM     22  C   UNL     1      39.712 -37.256 -29.542  0.00  0.00    -0.031 C 
ATOM     23  C   UNL     1      39.655 -36.646 -31.043  0.00  0.00    -0.027 C 
ATOM     24  C   UNL     1      41.308 -36.404 -31.336  0.00  0.00    -0.031 C 
ATOM     25  C   UNL     1      42.032 -37.764 -31.550  0.00  0.00    -0.060 C 
ATOM     26  C   UNL     1      42.033 -35.636 -30.201  0.00  0.00    -0.060 C 
ATOM     27  C   UNL     1      41.520 -35.570 -32.625  0.00  0.00    -0.048 C 
ATOM     28  C   UNL     1      40.478 -35.964 -33.634  0.00  0.00    -0.052 C 
ATOM     29  C   UNL     1      39.109 -35.928 -32.959  0.00  0.00    -0.047 C 
ATOM     30  C   UNL     1      39.161 -35.781 -31.127  0.00  0.00    -0.022 C 
ATOM     31  C   UNL     1      38.667 -34.916 -31.211  0.00  0.00    -0.059 C 
BRANCH  20  32
ATOM     32  C   UNL     1      36.285 -38.838 -30.189  0.00  0.00    +0.066 C 
BRANCH  32  33
ATOM     33  O   UNL     1      35.678 -38.707 -31.467  0.00  0.00    -0.391 OA
ATOM     34  H   UNL     1      34.786 -39.087 -31.442  0.00  0.00    +0.000 HD
ENDBRANCH  32  33
ENDBRANCH  20  32
ENDBRANCH  18  19
ENDBRANCH   1  18
TORSDOF 15
ENDMDL
MODEL 3
REMARK VINA RESULT:    -5.660     18.415     21.317
REMARK INTER + INTRA:         -12.801
REMARK INTER:                 -10.628
REMARK INTRA:                  -2.173
REMARK UNBOUND:                -2.344
REMARK  Name = cpd299.pdb
REMARK  21 active torsions:
REMARK  status: ('A' for Active; 'I' for Inactive)
REMARK    1  A    between atoms: C_1  and  C_2
REMARK    2  A    between atoms: C_2  and  N_3
REMARK    3  A    between atoms: N_3  and  C_4
REMARK    4  A    between atoms: N_3  and  C_6
REMARK    5  A    between atoms: C_4  and  C_5
REMARK    6  A    between atoms: C_6  and  C_7
REMARK    7  A    between atoms: C_7  and  C_8
REMARK    8  A    between atoms: C_8  and  C_9
REMARK    9  A    between atoms: C_9  and  O_10
REMARK   10  A    between atoms: O_10  and  C_11
REMARK   11  A    between atoms: C_11  and  C_13
REMARK   12  A    between atoms: C_13  and  C_14
REMARK   13  A    between atoms: C_14  and  C_15
REMARK   14  A    between atoms: C_14  and  C_16
REMARK   15  A    between atoms: C_16  and  C_17
REMARK   16  A    between atoms: C_17  and  C_18
REMARK   17  A    between atoms: C_19  and  C_20
REMARK   18  A    between atoms: C_20  and  O_21
REMARK   19  A    between atoms: C_25  and  C_26
REMARK   20  A    between atoms: C_25  and  C_27
REMARK   21  A    between atoms: C_31  and  C_32
REMARK                            x       y       z     vdW  Elec       q    Type
REMARK                         _______ _______ _______ _____ _____    ______ ____
ROOT
ATOM      1  C   UNL     1      41.904 -19.980 -35.970  0.00  0.00    -0.049 C 
ENDROOT
BRANCH   1   2
ATOM      2  C   UNL     1      41.237 -20.744 -34.803  0.00  0.00    -0.034 C 
ATOM      3  C   UNL     1      39.728 -20.478 -34.757  0.00  0.00    -0.062 C 
BRANCH   2   4
ATOM      4  C   UNL     1      41.922 -20.447 -33.461  0.00  0.00    +0.048 C 
BRANCH   4   5
ATOM      5  C   UNL     1      41.624 -19.079 -32.892  0.00  0.00    +0.307 C 
ATOM      6  O   UNL     1      40.883 -18.956 -31.918  0.00  0.00    -0.251 OA
BRANCH   5   7
ATOM      7  O   UNL     1      42.181 -17.991 -33.462  0.00  0.00    -0.465 OA
BRANCH   7   8
ATOM      8  C   UNL     1      43.203 -17.172 -32.867  0.00  0.00    +0.092 C 
BRANCH   8   9
ATOM      9  C   UNL     1      44.520 -17.950 -32.878  0.00  0.00    -0.017 C 
BRANCH   9  10
ATOM     10  C   UNL     1      45.355 -17.685 -34.138  0.00  0.00    -0.037 C 
BRANCH  10  11
ATOM     11  C   UNL     1      45.574 -18.982 -34.934  0.00  0.00    -0.001 C 
BRANCH  11  12
ATOM     12  N   UNL     1      46.793 -18.937 -35.757  0.00  0.00    -0.303 N 
ATOM     13  H   UNL     1      46.577 -19.465 -36.603  0.00  0.00    +0.000 HD
BRANCH  12  15
ATOM     14  C   UNL     1      49.143 -18.668 -34.925  0.00  0.00    -0.052 C 
ATOM     15  C   UNL     1      47.940 -19.589 -35.101  0.00  0.00    -0.004 C 
ENDBRANCH  12  15
BRANCH  12  16
ATOM     16  C   UNL     1      47.145 -17.563 -36.159  0.00  0.00    -0.004 C 
ATOM     17  C   UNL     1      46.977 -17.420 -37.665  0.00  0.00    -0.052 C 
ENDBRANCH  12  16
ENDBRANCH  11  12
ENDBRANCH  10  11
ENDBRANCH   9  10
ENDBRANCH   8   9
ENDBRANCH   7   8
ENDBRANCH   5   7
ENDBRANCH   4   5
ENDBRANCH   2   4
ENDBRANCH   1   2
BRANCH   1  18
ATOM     18  C   UNL     1      42.372 -20.859 -37.149  0.00  0.00    -0.046 C 
BRANCH  18  19
ATOM     19  C   UNL     1      42.296 -20.122 -38.561  0.00  0.00    -0.012 C 
ATOM     20  C   UNL     1      41.244 -20.907 -39.353  0.00  0.00    -0.045 C 
ATOM     21  C   UNL     1      41.733 -21.683 -40.321  0.00  0.00    -0.082 C 
ATOM     22  C   UNL     1      43.173 -21.486 -40.626  0.00  0.00    -0.031 C 
ATOM     23  C   UNL     1      43.581 -19.945 -40.334  0.00  0.00    -0.027 C 
ATOM     24  C   UNL     1      44.785 -19.720 -41.508  0.00  0.00    -0.031 C 
ATOM     25  C   UNL     1      44.158 -19.641 -42.928  0.00  0.00    -0.060 C 
ATOM     26  C   UNL     1      45.865 -20.834 -41.509  0.00  0.00    -0.060 C 
ATOM     27  C   UNL     1      45.541 -18.388 -41.270  0.00  0.00    -0.048 C 
ATOM     28  C   UNL     1      44.563 -17.357 -40.780  0.00  0.00    -0.052 C 
ATOM     29  C   UNL     1      43.763 -17.956 -39.626  0.00  0.00    -0.047 C 
ATOM     30  C   UNL     1      43.954 -19.774 -39.422  0.00  0.00    -0.022 C 
ATOM     31  C   UNL     1      44.327 -19.603 -38.510  0.00  0.00    -0.059 C 
BRANCH  20  32
ATOM     32  C   UNL     1      39.798 -20.778 -38.962  0.00  0.00    +0.066 C 
BRANCH  32  33
ATOM     33  O   UNL     1      39.272 -22.012 -38.495  0.00  0.00    -0.391 OA
ATOM     34  H   UNL     1      39.396 -22.694 -39.175  0.00  0.00    +0.000 HD
ENDBRANCH  32  33
ENDBRANCH  20  32
ENDBRANCH  18  19
ENDBRANCH   1  18
TORSDOF 15
ENDMDL
MODEL 4
REMARK VINA RESULT:    -5.637     18.192     21.503
REMARK INTER + INTRA:         -12.759
REMARK INTER:                 -10.158
REMARK INTRA:                  -2.601
REMARK UNBOUND:                -2.344
REMARK  Name = cpd299.pdb
REMARK  21 active torsions:
REMARK  status: ('A' for Active; 'I' for Inactive)
REMARK    1  A    between atoms: C_1  and  C_2
REMARK    2  A    between atoms: C_2  and  N_3
REMARK    3  A    between atoms: N_3  and  C_4
REMARK    4  A    between atoms: N_3  and  C_6
REMARK    5  A    between atoms: C_4  and  C_5
REMARK    6  A    between atoms: C_6  and  C_7
REMARK    7  A    between atoms: C_7  and  C_8
REMARK    8  A    between atoms: C_8  and  C_9
REMARK    9  A    between atoms: C_9  and  O_10
REMARK   10  A    between atoms: O_10  and  C_11
REMARK   11  A    between atoms: C_11  and  C_13
REMARK   12  A    between atoms: C_13  and  C_14
REMARK   13  A    between atoms: C_14  and  C_15
REMARK   14  A    between atoms: C_14  and  C_16
REMARK   15  A    between atoms: C_16  and  C_17
REMARK   16  A    between atoms: C_17  and  C_18
REMARK   17  A    between atoms: C_19  and  C_20
REMARK   18  A    between atoms: C_20  and  O_21
REMARK   19  A    between atoms: C_25  and  C_26
REMARK   20  A    between atoms: C_25  and  C_27
REMARK   21  A    between atoms: C_31  and  C_32
REMARK                            x       y       z     vdW  Elec       q    Type
REMARK                         _______ _______ _______ _____ _____    ______ ____
ROOT
ATOM      1  C   UNL     1      47.304 -17.421 -36.491  0.00  0.00    -0.049 C 
ENDROOT
BRANCH   1   2
ATOM      2  C   UNL     1      47.479 -18.127 -35.126  0.00  0.00    -0.034 C 
ATOM      3  C   UNL     1      48.909 -18.653 -34.955  0.00  0.00    -0.062 C 
BRANCH   2   4
ATOM      4  C   UNL     1      46.425 -19.222 -34.910  0.00  0.00    +0.048 C 
BRANCH   4   5
ATOM      5  C   UNL     1      45.299 -18.836 -33.979  0.00  0.00    +0.307 C 
ATOM      6  O   UNL     1      45.513 -18.118 -33.004  0.00  0.00    -0.251 OA
BRANCH   5   7
ATOM      7  O   UNL     1      44.052 -19.287 -34.228  0.00  0.00    -0.465 OA
BRANCH   7   8
ATOM      8  C   UNL     1      43.703 -20.252 -35.235  0.00  0.00    +0.092 C 
BRANCH   8   9
ATOM      9  C   UNL     1      42.825 -19.567 -36.284  0.00  0.00    -0.017 C 
BRANCH   9  10
ATOM     10  C   UNL     1      41.859 -20.537 -36.976  0.00  0.00    -0.037 C 
BRANCH  10  11
ATOM     11  C   UNL     1      41.391 -21.632 -36.004  0.00  0.00    -0.001 C 
BRANCH  11  12
ATOM     12  N   UNL     1      40.269 -21.192 -35.159  0.00  0.00    -0.303 N 
ATOM     13  H   UNL     1      40.234 -20.177 -35.251  0.00  0.00    +0.000 HD
BRANCH  12  15
ATOM     14  C   UNL     1      40.707 -20.276 -32.867  0.00  0.00    -0.052 C 
ATOM     15  C   UNL     1      40.479 -21.509 -33.736  0.00  0.00    -0.004 C 
ENDBRANCH  12  15
BRANCH  12  16
ATOM     16  C   UNL     1      38.977 -21.733 -35.620  0.00  0.00    -0.004 C 
ATOM     17  C   UNL     1      39.199 -23.106 -36.240  0.00  0.00    -0.052 C 
ENDBRANCH  12  16
ENDBRANCH  11  12
ENDBRANCH  10  11
ENDBRANCH   9  10
ENDBRANCH   8   9
ENDBRANCH   7   8
ENDBRANCH   5   7
ENDBRANCH   4   5
ENDBRANCH   2   4
ENDBRANCH   1   2
BRANCH   1  18
ATOM     18  C   UNL     1      45.980 -17.728 -37.224  0.00  0.00    -0.046 C 
BRANCH  18  19
ATOM     19  C   UNL     1      46.179 -18.109 -38.760  0.00  0.00    -0.012 C 
ATOM     20  C   UNL     1      45.715 -16.867 -39.531  0.00  0.00    -0.045 C 
ATOM     21  C   UNL     1      44.538 -16.994 -40.145  0.00  0.00    -0.082 C 
ATOM     22  C   UNL     1      43.984 -18.372 -40.178  0.00  0.00    -0.031 C 
ATOM     23  C   UNL     1      45.202 -19.442 -40.207  0.00  0.00    -0.027 C 
ATOM     24  C   UNL     1      44.493 -20.685 -41.118  0.00  0.00    -0.031 C 
ATOM     25  C   UNL     1      44.371 -20.270 -42.611  0.00  0.00    -0.060 C 
ATOM     26  C   UNL     1      43.089 -21.104 -40.609  0.00  0.00    -0.060 C 
ATOM     27  C   UNL     1      45.366 -21.965 -41.072  0.00  0.00    -0.048 C 
ATOM     28  C   UNL     1      46.815 -21.563 -41.077  0.00  0.00    -0.052 C 
ATOM     29  C   UNL     1      47.027 -20.497 -40.005  0.00  0.00    -0.047 C 
ATOM     30  C   UNL     1      45.479 -19.788 -39.311  0.00  0.00    -0.022 C 
ATOM     31  C   UNL     1      45.757 -20.134 -38.415  0.00  0.00    -0.059 C 
BRANCH  20  32
ATOM     32  C   UNL     1      46.574 -15.633 -39.499  0.00  0.00    +0.066 C 
BRANCH  32  33
ATOM     33  O   UNL     1      47.872 -15.890 -40.014  0.00  0.00    -0.391 OA
ATOM     34  H   UNL     1      47.908 -16.794 -40.365  0.00  0.00    +0.000 HD
ENDBRANCH  32  33
ENDBRANCH  20  32
ENDBRANCH  18  19
ENDBRANCH   1  18
TORSDOF 15
ENDMDL
MODEL 5
REMARK VINA RESULT:    -5.598     16.287     19.635
REMARK INTER + INTRA:         -12.687
REMARK INTER:                 -10.096
REMARK INTRA:                  -2.590
REMARK UNBOUND:                -2.344
REMARK  Name = cpd299.pdb
REMARK  21 active torsions:
REMARK  status: ('A' for Active; 'I' for Inactive)
REMARK    1  A    between atoms: C_1  and  C_2
REMARK    2  A    between atoms: C_2  and  N_3
REMARK    3  A    between atoms: N_3  and  C_4
REMARK    4  A    between atoms: N_3  and  C_6
REMARK    5  A    between atoms: C_4  and  C_5
REMARK    6  A    between atoms: C_6  and  C_7
REMARK    7  A    between atoms: C_7  and  C_8
REMARK    8  A    between atoms: C_8  and  C_9
REMARK    9  A    between atoms: C_9  and  O_10
REMARK   10  A    between atoms: O_10  and  C_11
REMARK   11  A    between atoms: C_11  and  C_13
REMARK   12  A    between atoms: C_13  and  C_14
REMARK   13  A    between atoms: C_14  and  C_15
REMARK   14  A    between atoms: C_14  and  C_16
REMARK   15  A    between atoms: C_16  and  C_17
REMARK   16  A    between atoms: C_17  and  C_18
REMARK   17  A    between atoms: C_19  and  C_20
REMARK   18  A    between atoms: C_20  and  O_21
REMARK   19  A    between atoms: C_25  and  C_26
REMARK   20  A    between atoms: C_25  and  C_27
REMARK   21  A    between atoms: C_31  and  C_32
REMARK                            x       y       z     vdW  Elec       q    Type
REMARK                         _______ _______ _______ _____ _____    ______ ____
ROOT
ATOM      1  C   UNL     1      42.010 -20.290 -35.886  0.00  0.00    -0.049 C 
ENDROOT
BRANCH   1   2
ATOM      2  C   UNL     1      40.984 -21.033 -34.999  0.00  0.00    -0.034 C 
ATOM      3  C   UNL     1      41.495 -21.171 -33.559  0.00  0.00    -0.062 C 
BRANCH   2   4
ATOM      4  C   UNL     1      40.578 -22.384 -35.604  0.00  0.00    +0.048 C 
BRANCH   4   5
ATOM      5  C   UNL     1      39.192 -22.852 -35.225  0.00  0.00    +0.307 C 
ATOM      6  O   UNL     1      38.893 -24.043 -35.300  0.00  0.00    -0.251 OA
BRANCH   5   7
ATOM      7  O   UNL     1      38.282 -21.950 -34.802  0.00  0.00    -0.465 OA
BRANCH   7   8
ATOM      8  C   UNL     1      37.513 -22.051 -33.591  0.00  0.00    +0.092 C 
BRANCH   8   9
ATOM      9  C   UNL     1      37.727 -20.778 -32.770  0.00  0.00    -0.017 C 
BRANCH   9  10
ATOM     10  C   UNL     1      36.531 -19.821 -32.836  0.00  0.00    -0.037 C 
BRANCH  10  11
ATOM     11  C   UNL     1      36.915 -18.509 -33.539  0.00  0.00    -0.001 C 
BRANCH  11  12
ATOM     12  N   UNL     1      37.881 -18.717 -34.629  0.00  0.00    -0.303 N 
ATOM     13  H   UNL     1      38.369 -19.585 -34.405  0.00  0.00    +0.000 HD
BRANCH  12  15
ATOM     14  C   UNL     1      39.970 -17.750 -33.635  0.00  0.00    -0.052 C 
ATOM     15  C   UNL     1      38.886 -17.642 -34.703  0.00  0.00    -0.004 C 
ENDBRANCH  12  15
BRANCH  12  16
ATOM     16  C   UNL     1      37.221 -18.894 -35.935  0.00  0.00    -0.004 C 
ATOM     17  C   UNL     1      37.769 -17.870 -36.919  0.00  0.00    -0.052 C 
ENDBRANCH  12  16
ENDBRANCH  11  12
ENDBRANCH  10  11
ENDBRANCH   9  10
ENDBRANCH   8   9
ENDBRANCH   7   8
ENDBRANCH   5   7
ENDBRANCH   4   5
ENDBRANCH   2   4
ENDBRANCH   1   2
BRANCH   1  18
ATOM     18  C   UNL     1      42.472 -21.060 -37.142  0.00  0.00    -0.046 C 
BRANCH  18  19
ATOM     19  C   UNL     1      42.368 -20.206 -38.484  0.00  0.00    -0.012 C 
ATOM     20  C   UNL     1      41.179 -20.814 -39.240  0.00  0.00    -0.045 C 
ATOM     21  C   UNL     1      41.506 -21.553 -40.300  0.00  0.00    -0.082 C 
ATOM     22  C   UNL     1      42.932 -21.481 -40.710  0.00  0.00    -0.031 C 
ATOM     23  C   UNL     1      43.525 -20.017 -40.342  0.00  0.00    -0.027 C 
ATOM     24  C   UNL     1      44.653 -19.822 -41.594  0.00  0.00    -0.031 C 
ATOM     25  C   UNL     1      43.930 -19.564 -42.947  0.00  0.00    -0.060 C 
ATOM     26  C   UNL     1      45.602 -21.035 -41.769  0.00  0.00    -0.060 C 
ATOM     27  C   UNL     1      45.564 -18.597 -41.325  0.00  0.00    -0.048 C 
ATOM     28  C   UNL     1      44.744 -17.515 -40.680  0.00  0.00    -0.052 C 
ATOM     29  C   UNL     1      43.974 -18.122 -39.509  0.00  0.00    -0.047 C 
ATOM     30  C   UNL     1      43.983 -19.960 -39.455  0.00  0.00    -0.022 C 
ATOM     31  C   UNL     1      44.441 -19.903 -38.568  0.00  0.00    -0.059 C 
BRANCH  20  32
ATOM     32  C   UNL     1      39.790 -20.570 -38.718  0.00  0.00    +0.066 C 
BRANCH  32  33
ATOM     33  O   UNL     1      38.974 -21.725 -38.851  0.00  0.00    -0.391 OA
ATOM     34  H   UNL     1      38.325 -21.747 -38.129  0.00  0.00    +0.000 HD
ENDBRANCH  32  33
ENDBRANCH  20  32
ENDBRANCH  18  19
ENDBRANCH   1  18
TORSDOF 15
ENDMDL
MODEL 6
REMARK VINA RESULT:    -5.590     17.420     20.599
REMARK INTER + INTRA:         -12.673
REMARK INTER:                  -9.764
REMARK INTRA:                  -2.908
REMARK UNBOUND:                -2.344
REMARK  Name = cpd299.pdb
REMARK  21 active torsions:
REMARK  status: ('A' for Active; 'I' for Inactive)
REMARK    1  A    between atoms: C_1  and  C_2
REMARK    2  A    between atoms: C_2  and  N_3
REMARK    3  A    between atoms: N_3  and  C_4
REMARK    4  A    between atoms: N_3  and  C_6
REMARK    5  A    between atoms: C_4  and  C_5
REMARK    6  A    between atoms: C_6  and  C_7
REMARK    7  A    between atoms: C_7  and  C_8
REMARK    8  A    between atoms: C_8  and  C_9
REMARK    9  A    between atoms: C_9  and  O_10
REMARK   10  A    between atoms: O_10  and  C_11
REMARK   11  A    between atoms: C_11  and  C_13
REMARK   12  A    between atoms: C_13  and  C_14
REMARK   13  A    between atoms: C_14  and  C_15
REMARK   14  A    between atoms: C_14  and  C_16
REMARK   15  A    between atoms: C_16  and  C_17
REMARK   16  A    between atoms: C_17  and  C_18
REMARK   17  A    between atoms: C_19  and  C_20
REMARK   18  A    between atoms: C_20  and  O_21
REMARK   19  A    between atoms: C_25  and  C_26
REMARK   20  A    between atoms: C_25  and  C_27
REMARK   21  A    between atoms: C_31  and  C_32
REMARK                            x       y       z     vdW  Elec       q    Type
REMARK                         _______ _______ _______ _____ _____    ______ ____
ROOT
ATOM      1  C   UNL     1      42.618 -18.536 -36.551  0.00  0.00    -0.049 C 
ENDROOT
BRANCH   1   2
ATOM      2  C   UNL     1      43.981 -18.686 -35.836  0.00  0.00    -0.034 C 
ATOM      3  C   UNL     1      44.229 -20.140 -35.417  0.00  0.00    -0.062 C 
BRANCH   2   4
ATOM      4  C   UNL     1      44.118 -17.709 -34.659  0.00  0.00    +0.048 C 
BRANCH   4   5
ATOM      5  C   UNL     1      44.211 -18.368 -33.302  0.00  0.00    +0.307 C 
ATOM      6  O   UNL     1      45.277 -18.383 -32.688  0.00  0.00    -0.251 OA
BRANCH   5   7
ATOM      7  O   UNL     1      43.113 -18.939 -32.768  0.00  0.00    -0.465 OA
BRANCH   7   8
ATOM      8  C   UNL     1      41.775 -18.418 -32.862  0.00  0.00    +0.092 C 
BRANCH   8   9
ATOM      9  C   UNL     1      40.854 -19.528 -33.371  0.00  0.00    -0.017 C 
BRANCH   9  10
ATOM     10  C   UNL     1      41.425 -20.931 -33.128  0.00  0.00    -0.037 C 
BRANCH  10  11
ATOM     11  C   UNL     1      40.828 -21.946 -34.118  0.00  0.00    -0.001 C 
BRANCH  11  12
ATOM     12  N   UNL     1      39.782 -21.354 -34.968  0.00  0.00    -0.303 N 
ATOM     13  H   UNL     1      39.715 -20.376 -34.684  0.00  0.00    +0.000 HD
BRANCH  12  15
ATOM     14  C   UNL     1      38.546 -23.387 -34.177  0.00  0.00    -0.052 C 
ATOM     15  C   UNL     1      38.465 -21.976 -34.752  0.00  0.00    -0.004 C 
ENDBRANCH  12  15
BRANCH  12  16
ATOM     16  C   UNL     1      40.139 -21.388 -36.397  0.00  0.00    -0.004 C 
ATOM     17  C   UNL     1      41.345 -22.295 -36.593  0.00  0.00    -0.052 C 
ENDBRANCH  12  16
ENDBRANCH  11  12
ENDBRANCH  10  11
ENDBRANCH   9  10
ENDBRANCH   8   9
ENDBRANCH   7   8
ENDBRANCH   5   7
ENDBRANCH   4   5
ENDBRANCH   2   4
ENDBRANCH   1   2
BRANCH   1  18
ATOM     18  C   UNL     1      42.636 -18.827 -38.067  0.00  0.00    -0.046 C 
BRANCH  18  19
ATOM     19  C   UNL     1      44.105 -18.890 -38.683  0.00  0.00    -0.012 C 
ATOM     20  C   UNL     1      44.270 -17.563 -39.432  0.00  0.00    -0.045 C 
ATOM     21  C   UNL     1      44.224 -17.658 -40.762  0.00  0.00    -0.082 C 
ATOM     22  C   UNL     1      44.254 -19.042 -41.301  0.00  0.00    -0.031 C 
ATOM     23  C   UNL     1      45.105 -19.993 -40.300  0.00  0.00    -0.027 C 
ATOM     24  C   UNL     1      45.769 -21.088 -41.412  0.00  0.00    -0.031 C 
ATOM     25  C   UNL     1      46.881 -20.405 -42.257  0.00  0.00    -0.060 C 
ATOM     26  C   UNL     1      44.723 -21.700 -42.379  0.00  0.00    -0.060 C 
ATOM     27  C   UNL     1      46.427 -22.284 -40.677  0.00  0.00    -0.048 C 
ATOM     28  C   UNL     1      47.074 -21.781 -39.417  0.00  0.00    -0.052 C 
ATOM     29  C   UNL     1      46.062 -20.927 -38.658  0.00  0.00    -0.047 C 
ATOM     30  C   UNL     1      44.560 -20.482 -39.620  0.00  0.00    -0.022 C 
ATOM     31  C   UNL     1      44.014 -20.970 -38.939  0.00  0.00    -0.059 C 
BRANCH  20  32
ATOM     32  C   UNL     1      44.423 -16.297 -38.635  0.00  0.00    +0.066 C 
BRANCH  32  33
ATOM     33  O   UNL     1      45.649 -16.279 -37.917  0.00  0.00    -0.391 OA
ATOM     34  H   UNL     1      45.639 -16.977 -37.243  0.00  0.00    +0.000 HD
ENDBRANCH  32  33
ENDBRANCH  20  32
ENDBRANCH  18  19
ENDBRANCH   1  18
TORSDOF 15
ENDMDL
MODEL 7
REMARK VINA RESULT:    -5.541     18.424     21.644
REMARK INTER + INTRA:         -12.582
REMARK INTER:                  -9.973
REMARK INTRA:                  -2.609
REMARK UNBOUND:                -2.344
REMARK  Name = cpd299.pdb
REMARK  21 active torsions:
REMARK  status: ('A' for Active; 'I' for Inactive)
REMARK    1  A    between atoms: C_1  and  C_2
REMARK    2  A    between atoms: C_2  and  N_3
REMARK    3  A    between atoms: N_3  and  C_4
REMARK    4  A    between atoms: N_3  and  C_6
REMARK    5  A    between atoms: C_4  and  C_5
REMARK    6  A    between atoms: C_6  and  C_7
REMARK    7  A    between atoms: C_7  and  C_8
REMARK    8  A    between atoms: C_8  and  C_9
REMARK    9  A    between atoms: C_9  and  O_10
REMARK   10  A    between atoms: O_10  and  C_11
REMARK   11  A    between atoms: C_11  and  C_13
REMARK   12  A    between atoms: C_13  and  C_14
REMARK   13  A    between atoms: C_14  and  C_15
REMARK   14  A    between atoms: C_14  and  C_16
REMARK   15  A    between atoms: C_16  and  C_17
REMARK   16  A    between atoms: C_17  and  C_18
REMARK   17  A    between atoms: C_19  and  C_20
REMARK   18  A    between atoms: C_20  and  O_21
REMARK   19  A    between atoms: C_25  and  C_26
REMARK   20  A    between atoms: C_25  and  C_27
REMARK   21  A    between atoms: C_31  and  C_32
REMARK                            x       y       z     vdW  Elec       q    Type
REMARK                         _______ _______ _______ _____ _____    ______ ____
ROOT
ATOM      1  C   UNL     1      42.440 -21.612 -40.210  0.00  0.00    -0.049 C 
ENDROOT
BRANCH   1   2
ATOM      2  C   UNL     1      41.493 -21.595 -38.988  0.00  0.00    -0.034 C 
ATOM      3  C   UNL     1      40.571 -20.371 -39.019  0.00  0.00    -0.062 C 
BRANCH   2   4
ATOM      4  C   UNL     1      42.266 -21.710 -37.666  0.00  0.00    +0.048 C 
BRANCH   4   5
ATOM      5  C   UNL     1      41.416 -22.073 -36.470  0.00  0.00    +0.307 C 
ATOM      6  O   UNL     1      40.870 -23.173 -36.403  0.00  0.00    -0.251 OA
BRANCH   5   7
ATOM      7  O   UNL     1      41.262 -21.178 -35.473  0.00  0.00    -0.465 OA
BRANCH   7   8
ATOM      8  C   UNL     1      40.070 -20.414 -35.218  0.00  0.00    +0.092 C 
BRANCH   8   9
ATOM      9  C   UNL     1      40.468 -18.961 -34.958  0.00  0.00    -0.017 C 
BRANCH   9  10
ATOM     10  C   UNL     1      41.867 -18.624 -35.489  0.00  0.00    -0.037 C 
BRANCH  10  11
ATOM     11  C   UNL     1      42.644 -17.761 -34.482  0.00  0.00    -0.001 C 
BRANCH  11  12
ATOM     12  N   UNL     1      43.986 -18.296 -34.201  0.00  0.00    -0.303 N 
ATOM     13  H   UNL     1      44.642 -17.593 -34.544  0.00  0.00    +0.000 HD
BRANCH  12  15
ATOM     14  C   UNL     1      45.471 -19.475 -35.842  0.00  0.00    -0.052 C 
ATOM     15  C   UNL     1      44.254 -19.551 -34.926  0.00  0.00    -0.004 C 
ENDBRANCH  12  15
BRANCH  12  16
ATOM     16  C   UNL     1      44.226 -18.475 -32.758  0.00  0.00    -0.004 C 
ATOM     17  C   UNL     1      44.955 -17.255 -32.214  0.00  0.00    -0.052 C 
ENDBRANCH  12  16
ENDBRANCH  11  12
ENDBRANCH  10  11
ENDBRANCH   9  10
ENDBRANCH   8   9
ENDBRANCH   7   8
ENDBRANCH   5   7
ENDBRANCH   4   5
ENDBRANCH   2   4
ENDBRANCH   1   2
BRANCH   1  18
ATOM     18  C   UNL     1      43.893 -21.175 -39.922  0.00  0.00    -0.046 C 
BRANCH  18  19
ATOM     19  C   UNL     1      44.368 -19.934 -40.803  0.00  0.00    -0.012 C 
ATOM     20  C   UNL     1      45.465 -20.501 -41.713  0.00  0.00    -0.045 C 
ATOM     21  C   UNL     1      46.706 -20.137 -41.390  0.00  0.00    -0.082 C 
ATOM     22  C   UNL     1      46.809 -19.071 -40.360  0.00  0.00    -0.031 C 
ATOM     23  C   UNL     1      45.520 -18.093 -40.465  0.00  0.00    -0.027 C 
ATOM     24  C   UNL     1      46.214 -16.623 -39.983  0.00  0.00    -0.031 C 
ATOM     25  C   UNL     1      47.151 -16.068 -41.092  0.00  0.00    -0.060 C 
ATOM     26  C   UNL     1      47.021 -16.722 -38.663  0.00  0.00    -0.060 C 
ATOM     27  C   UNL     1      45.118 -15.554 -39.738  0.00  0.00    -0.048 C 
ATOM     28  C   UNL     1      44.024 -15.740 -40.753  0.00  0.00    -0.052 C 
ATOM     29  C   UNL     1      43.618 -17.211 -40.765  0.00  0.00    -0.047 C 
ATOM     30  C   UNL     1      44.761 -18.331 -39.859  0.00  0.00    -0.022 C 
ATOM     31  C   UNL     1      44.002 -18.569 -39.253  0.00  0.00    -0.059 C 
BRANCH  20  32
ATOM     32  C   UNL     1      45.070 -21.423 -42.833  0.00  0.00    +0.066 C 
BRANCH  32  33
ATOM     33  O   UNL     1      46.003 -22.483 -42.988  0.00  0.00    -0.391 OA
ATOM     34  H   UNL     1      46.894 -22.164 -42.770  0.00  0.00    +0.000 HD
ENDBRANCH  32  33
ENDBRANCH  20  32
ENDBRANCH  18  19
ENDBRANCH   1  18
TORSDOF 15
ENDMDL
MODEL 8
REMARK VINA RESULT:    -5.464     17.433     20.562
REMARK INTER + INTRA:         -12.440
REMARK INTER:                 -10.798
REMARK INTRA:                  -1.642
REMARK UNBOUND:                -2.344
REMARK  Name = cpd299.pdb
REMARK  21 active torsions:
REMARK  status: ('A' for Active; 'I' for Inactive)
REMARK    1  A    between atoms: C_1  and  C_2
REMARK    2  A    between atoms: C_2  and  N_3
REMARK    3  A    between atoms: N_3  and  C_4
REMARK    4  A    between atoms: N_3  and  C_6
REMARK    5  A    between atoms: C_4  and  C_5
REMARK    6  A    between atoms: C_6  and  C_7
REMARK    7  A    between atoms: C_7  and  C_8
REMARK    8  A    between atoms: C_8  and  C_9
REMARK    9  A    between atoms: C_9  and  O_10
REMARK   10  A    between atoms: O_10  and  C_11
REMARK   11  A    between atoms: C_11  and  C_13
REMARK   12  A    between atoms: C_13  and  C_14
REMARK   13  A    between atoms: C_14  and  C_15
REMARK   14  A    between atoms: C_14  and  C_16
REMARK   15  A    between atoms: C_16  and  C_17
REMARK   16  A    between atoms: C_17  and  C_18
REMARK   17  A    between atoms: C_19  and  C_20
REMARK   18  A    between atoms: C_20  and  O_21
REMARK   19  A    between atoms: C_25  and  C_26
REMARK   20  A    between atoms: C_25  and  C_27
REMARK   21  A    between atoms: C_31  and  C_32
REMARK                            x       y       z     vdW  Elec       q    Type
REMARK                         _______ _______ _______ _____ _____    ______ ____
ROOT
ATOM      1  C   UNL     1      44.576 -20.804 -41.488  0.00  0.00    -0.049 C 
ENDROOT
BRANCH   1   2
ATOM      2  C   UNL     1      43.333 -21.295 -40.710  0.00  0.00    -0.034 C 
ATOM      3  C   UNL     1      42.264 -21.843 -41.663  0.00  0.00    -0.062 C 
BRANCH   2   4
ATOM      4  C   UNL     1      42.779 -20.210 -39.775  0.00  0.00    +0.048 C 
BRANCH   4   5
ATOM      5  C   UNL     1      42.155 -20.735 -38.503  0.00  0.00    +0.307 C 
ATOM      6  O   UNL     1      42.861 -21.068 -37.552  0.00  0.00    -0.251 OA
BRANCH   5   7
ATOM      7  O   UNL     1      40.812 -20.833 -38.417  0.00  0.00    -0.465 OA
BRANCH   7   8
ATOM      8  C   UNL     1      40.087 -22.021 -38.054  0.00  0.00    +0.092 C 
BRANCH   8   9
ATOM      9  C   UNL     1      39.530 -21.840 -36.642  0.00  0.00    -0.017 C 
BRANCH   9  10
ATOM     10  C   UNL     1      40.220 -22.742 -35.610  0.00  0.00    -0.037 C 
BRANCH  10  11
ATOM     11  C   UNL     1      39.281 -23.046 -34.431  0.00  0.00    -0.001 C 
BRANCH  11  12
ATOM     12  N   UNL     1      39.704 -22.381 -33.189  0.00  0.00    -0.303 N 
ATOM     13  H   UNL     1      39.700 -23.106 -32.471  0.00  0.00    +0.000 HD
BRANCH  12  15
ATOM     14  C   UNL     1      37.313 -21.627 -33.127  0.00  0.00    -0.052 C 
ATOM     15  C   UNL     1      38.765 -21.326 -32.767  0.00  0.00    -0.004 C 
ENDBRANCH  12  15
BRANCH  12  16
ATOM     16  C   UNL     1      41.073 -21.842 -33.282  0.00  0.00    -0.004 C 
ATOM     17  C   UNL     1      41.126 -20.481 -32.603  0.00  0.00    -0.052 C 
ENDBRANCH  12  16
ENDBRANCH  11  12
ENDBRANCH  10  11
ENDBRANCH   9  10
ENDBRANCH   8   9
ENDBRANCH   7   8
ENDBRANCH   5   7
ENDBRANCH   4   5
ENDBRANCH   2   4
ENDBRANCH   1   2
BRANCH   1  18
ATOM     18  C   UNL     1      44.901 -19.304 -41.327  0.00  0.00    -0.046 C 
BRANCH  18  19
ATOM     19  C   UNL     1      46.193 -19.026 -40.434  0.00  0.00    -0.012 C 
ATOM     20  C   UNL     1      47.041 -20.296 -40.574  0.00  0.00    -0.045 C 
ATOM     21  C   UNL     1      47.054 -21.085 -39.499  0.00  0.00    -0.082 C 
ATOM     22  C   UNL     1      46.444 -20.502 -38.276  0.00  0.00    -0.031 C 
ATOM     23  C   UNL     1      46.644 -18.893 -38.288  0.00  0.00    -0.027 C 
ATOM     24  C   UNL     1      46.769 -18.589 -36.624  0.00  0.00    -0.031 C 
ATOM     25  C   UNL     1      48.132 -19.096 -36.075  0.00  0.00    -0.060 C 
ATOM     26  C   UNL     1      45.633 -19.235 -35.789  0.00  0.00    -0.060 C 
ATOM     27  C   UNL     1      46.701 -17.067 -36.338  0.00  0.00    -0.048 C 
ATOM     28  C   UNL     1      47.415 -16.335 -37.439  0.00  0.00    -0.052 C 
ATOM     29  C   UNL     1      46.896 -16.848 -38.780  0.00  0.00    -0.047 C 
ATOM     30  C   UNL     1      45.880 -18.377 -38.675  0.00  0.00    -0.022 C 
ATOM     31  C   UNL     1      45.116 -17.861 -39.063  0.00  0.00    -0.059 C 
BRANCH  20  32
ATOM     32  C   UNL     1      47.734 -20.563 -41.882  0.00  0.00    +0.066 C 
BRANCH  32  33
ATOM     33  O   UNL     1      49.038 -21.088 -41.683  0.00  0.00    -0.391 OA
ATOM     34  H   UNL     1      49.187 -21.235 -40.735  0.00  0.00    +0.000 HD
ENDBRANCH  32  33
ENDBRANCH  20  32
ENDBRANCH  18  19
ENDBRANCH   1  18
TORSDOF 15
ENDMDL
MODEL 9
REMARK VINA RESULT:    -5.463     18.074     21.423
REMARK INTER + INTRA:         -12.437
REMARK INTER:                  -9.463
REMARK INTRA:                  -2.974
REMARK UNBOUND:                -2.344
REMARK  Name = cpd299.pdb
REMARK  21 active torsions:
REMARK  status: ('A' for Active; 'I' for Inactive)
REMARK    1  A    between atoms: C_1  and  C_2
REMARK    2  A    between atoms: C_2  and  N_3
REMARK    3  A    between atoms: N_3  and  C_4
REMARK    4  A    between atoms: N_3  and  C_6
REMARK    5  A    between atoms: C_4  and  C_5
REMARK    6  A    between atoms: C_6  and  C_7
REMARK    7  A    between atoms: C_7  and  C_8
REMARK    8  A    between atoms: C_8  and  C_9
REMARK    9  A    between atoms: C_9  and  O_10
REMARK   10  A    between atoms: O_10  and  C_11
REMARK   11  A    between atoms: C_11  and  C_13
REMARK   12  A    between atoms: C_13  and  C_14
REMARK   13  A    between atoms: C_14  and  C_15
REMARK   14  A    between atoms: C_14  and  C_16
REMARK   15  A    between atoms: C_16  and  C_17
REMARK   16  A    between atoms: C_17  and  C_18
REMARK   17  A    between atoms: C_19  and  C_20
REMARK   18  A    between atoms: C_20  and  O_21
REMARK   19  A    between atoms: C_25  and  C_26
REMARK   20  A    between atoms: C_25  and  C_27
REMARK   21  A    between atoms: C_31  and  C_32
REMARK                            x       y       z     vdW  Elec       q    Type
REMARK                         _______ _______ _______ _____ _____    ______ ____
ROOT
ATOM      1  C   UNL     1      41.373 -18.887 -38.136  0.00  0.00    -0.049 C 
ENDROOT
BRANCH   1   2
ATOM      2  C   UNL     1      39.853 -19.090 -37.933  0.00  0.00    -0.034 C 
ATOM      3  C   UNL     1      39.351 -18.319 -36.706  0.00  0.00    -0.062 C 
BRANCH   2   4
ATOM      4  C   UNL     1      39.478 -20.577 -37.880  0.00  0.00    +0.048 C 
BRANCH   4   5
ATOM      5  C   UNL     1      40.372 -21.421 -37.001  0.00  0.00    +0.307 C 
ATOM      6  O   UNL     1      41.104 -22.278 -37.496  0.00  0.00    -0.251 OA
BRANCH   5   7
ATOM      7  O   UNL     1      40.362 -21.226 -35.667  0.00  0.00    -0.465 OA
BRANCH   7   8
ATOM      8  C   UNL     1      41.494 -21.391 -34.794  0.00  0.00    +0.092 C 
BRANCH   8   9
ATOM      9  C   UNL     1      42.327 -20.109 -34.828  0.00  0.00    -0.017 C 
BRANCH   9  10
ATOM     10  C   UNL     1      43.692 -20.305 -35.500  0.00  0.00    -0.037 C 
BRANCH  10  11
ATOM     11  C   UNL     1      44.331 -18.951 -35.849  0.00  0.00    -0.001 C 
BRANCH  11  12
ATOM     12  N   UNL     1      45.659 -18.781 -35.236  0.00  0.00    -0.303 N 
ATOM     13  H   UNL     1      45.800 -19.604 -34.649  0.00  0.00    +0.000 HD
BRANCH  12  15
ATOM     14  C   UNL     1      44.870 -17.706 -33.112  0.00  0.00    -0.052 C 
ATOM     15  C   UNL     1      45.729 -17.593 -34.368  0.00  0.00    -0.004 C 
ENDBRANCH  12  15
BRANCH  12  16
ATOM     16  C   UNL     1      46.737 -18.750 -36.240  0.00  0.00    -0.004 C 
ATOM     17  C   UNL     1      46.396 -17.726 -37.313  0.00  0.00    -0.052 C 
ENDBRANCH  12  16
ENDBRANCH  11  12
ENDBRANCH  10  11
ENDBRANCH   9  10
ENDBRANCH   8   9
ENDBRANCH   7   8
ENDBRANCH   5   7
ENDBRANCH   4   5
ENDBRANCH   2   4
ENDBRANCH   1   2
BRANCH   1  18
ATOM     18  C   UNL     1      41.879 -19.115 -39.576  0.00  0.00    -0.046 C 
BRANCH  18  19
ATOM     19  C   UNL     1      43.469 -19.100 -39.700  0.00  0.00    -0.012 C 
ATOM     20  C   UNL     1      43.785 -17.823 -40.487  0.00  0.00    -0.045 C 
ATOM     21  C   UNL     1      44.165 -18.020 -41.749  0.00  0.00    -0.082 C 
ATOM     22  C   UNL     1      44.442 -19.432 -42.117  0.00  0.00    -0.031 C 
ATOM     23  C   UNL     1      44.987 -20.231 -40.815  0.00  0.00    -0.027 C 
ATOM     24  C   UNL     1      46.028 -21.347 -41.557  0.00  0.00    -0.031 C 
ATOM     25  C   UNL     1      47.309 -20.637 -42.079  0.00  0.00    -0.060 C 
ATOM     26  C   UNL     1      45.376 -22.114 -42.736  0.00  0.00    -0.060 C 
ATOM     27  C   UNL     1      46.488 -22.425 -40.542  0.00  0.00    -0.048 C 
ATOM     28  C   UNL     1      46.676 -21.778 -39.199  0.00  0.00    -0.052 C 
ATOM     29  C   UNL     1      45.430 -20.958 -38.875  0.00  0.00    -0.047 C 
ATOM     30  C   UNL     1      44.284 -20.713 -40.292  0.00  0.00    -0.022 C 
ATOM     31  C   UNL     1      43.581 -21.194 -39.769  0.00  0.00    -0.059 C 
BRANCH  20  32
ATOM     32  C   UNL     1      43.608 -16.493 -39.807  0.00  0.00    +0.066 C 
BRANCH  32  33
ATOM     33  O   UNL     1      42.598 -15.717 -40.437  0.00  0.00    -0.391 OA
ATOM     34  H   UNL     1      41.790 -16.249 -40.525  0.00  0.00    +0.000 HD
ENDBRANCH  32  33
ENDBRANCH  20  32
ENDBRANCH  18  19
ENDBRANCH   1  18
TORSDOF 15
ENDMDL
MODEL 10
REMARK VINA RESULT:    -5.442     17.285     20.455
REMARK INTER + INTRA:         -12.399
REMARK INTER:                  -9.766
REMARK INTRA:                  -2.633
REMARK UNBOUND:                -2.344
REMARK  Name = cpd299.pdb
REMARK  21 active torsions:
REMARK  status: ('A' for Active; 'I' for Inactive)
REMARK    1  A    between atoms: C_1  and  C_2
REMARK    2  A    between atoms: C_2  and  N_3
REMARK    3  A    between atoms: N_3  and  C_4
REMARK    4  A    between atoms: N_3  and  C_6
REMARK    5  A    between atoms: C_4  and  C_5
REMARK    6  A    between atoms: C_6  and  C_7
REMARK    7  A    between atoms: C_7  and  C_8
REMARK    8  A    between atoms: C_8  and  C_9
REMARK    9  A    between atoms: C_9  and  O_10
REMARK   10  A    between atoms: O_10  and  C_11
REMARK   11  A    between atoms: C_11  and  C_13
REMARK   12  A    between atoms: C_13  and  C_14
REMARK   13  A    between atoms: C_14  and  C_15
REMARK   14  A    between atoms: C_14  and  C_16
REMARK   15  A    between atoms: C_16  and  C_17
REMARK   16  A    between atoms: C_17  and  C_18
REMARK   17  A    between atoms: C_19  and  C_20
REMARK   18  A    between atoms: C_20  and  O_21
REMARK   19  A    between atoms: C_25  and  C_26
REMARK   20  A    between atoms: C_25  and  C_27
REMARK   21  A    between atoms: C_31  and  C_32
REMARK                            x       y       z     vdW  Elec       q    Type
REMARK                         _______ _______ _______ _____ _____    ______ ____
ROOT
ATOM      1  C   UNL     1      44.911 -19.745 -35.313  0.00  0.00    -0.049 C 
ENDROOT
BRANCH   1   2
ATOM      2  C   UNL     1      45.583 -18.393 -35.644  0.00  0.00    -0.034 C 
ATOM      3  C   UNL     1      47.075 -18.576 -35.949  0.00  0.00    -0.062 C 
BRANCH   2   4
ATOM      4  C   UNL     1      45.338 -17.349 -34.546  0.00  0.00    +0.048 C 
BRANCH   4   5
ATOM      5  C   UNL     1      43.897 -16.917 -34.399  0.00  0.00    +0.307 C 
ATOM      6  O   UNL     1      43.403 -16.112 -35.187  0.00  0.00    -0.251 OA
BRANCH   5   7
ATOM      7  O   UNL     1      43.154 -17.425 -33.395  0.00  0.00    -0.465 OA
BRANCH   7   8
ATOM      8  C   UNL     1      41.752 -17.739 -33.474  0.00  0.00    +0.092 C 
BRANCH   8   9
ATOM      9  C   UNL     1      41.513 -19.078 -32.774  0.00  0.00    -0.017 C 
BRANCH   9  10
ATOM     10  C   UNL     1      41.084 -20.186 -33.744  0.00  0.00    -0.037 C 
BRANCH  10  11
ATOM     11  C   UNL     1      41.485 -21.570 -33.208  0.00  0.00    -0.001 C 
BRANCH  11  12
ATOM     12  N   UNL     1      40.898 -22.669 -33.992  0.00  0.00    -0.303 N 
ATOM     13  H   UNL     1      41.675 -23.288 -34.226  0.00  0.00    +0.000 HD
BRANCH  12  15
ATOM     14  C   UNL     1      41.162 -22.490 -36.479  0.00  0.00    -0.052 C 
ATOM     15  C   UNL     1      40.300 -22.201 -35.254  0.00  0.00    -0.004 C 
ENDBRANCH  12  15
BRANCH  12  16
ATOM     16  C   UNL     1      39.917 -23.447 -33.215  0.00  0.00    -0.004 C 
ATOM     17  C   UNL     1      38.735 -23.801 -34.107  0.00  0.00    -0.052 C 
ENDBRANCH  12  16
ENDBRANCH  11  12
ENDBRANCH  10  11
ENDBRANCH   9  10
ENDBRANCH   8   9
ENDBRANCH   7   8
ENDBRANCH   5   7
ENDBRANCH   4   5
ENDBRANCH   2   4
ENDBRANCH   1   2
BRANCH   1  18
ATOM     18  C   UNL     1      44.226 -20.448 -36.505  0.00  0.00    -0.046 C 
BRANCH  18  19
ATOM     19  C   UNL     1      44.233 -19.580 -37.843  0.00  0.00    -0.012 C 
ATOM     20  C   UNL     1      42.753 -19.304 -38.135  0.00  0.00    -0.045 C 
ATOM     21  C   UNL     1      42.243 -19.997 -39.153  0.00  0.00    -0.082 C 
ATOM     22  C   UNL     1      43.232 -20.738 -39.977  0.00  0.00    -0.031 C 
ATOM     23  C   UNL     1      44.644 -19.941 -39.971  0.00  0.00    -0.027 C 
ATOM     24  C   UNL     1      45.222 -20.334 -41.516  0.00  0.00    -0.031 C 
ATOM     25  C   UNL     1      44.414 -19.582 -42.611  0.00  0.00    -0.060 C 
ATOM     26  C   UNL     1      45.177 -21.852 -41.828  0.00  0.00    -0.060 C 
ATOM     27  C   UNL     1      46.704 -19.906 -41.672  0.00  0.00    -0.048 C 
ATOM     28  C   UNL     1      46.915 -18.612 -40.938  0.00  0.00    -0.052 C 
ATOM     29  C   UNL     1      46.342 -18.753 -39.530  0.00  0.00    -0.047 C 
ATOM     30  C   UNL     1      45.295 -20.243 -39.274  0.00  0.00    -0.022 C 
ATOM     31  C   UNL     1      45.945 -20.544 -38.577  0.00  0.00    -0.059 C 
BRANCH  20  32
ATOM     32  C   UNL     1      42.010 -18.339 -37.253  0.00  0.00    +0.066 C 
BRANCH  32  33
ATOM     33  O   UNL     1      40.674 -18.765 -37.026  0.00  0.00    -0.391 OA
ATOM     34  H   UNL     1      40.667 -19.461 -36.349  0.00  0.00    +0.000 HD
ENDBRANCH  32  33
ENDBRANCH  20  32
ENDBRANCH  18  19
ENDBRANCH   1  18
TORSDOF 15
ENDMDL
MODEL 11
REMARK VINA RESULT:    -5.409     18.084     21.251
REMARK INTER + INTRA:         -12.337
REMARK INTER:                 -10.565
REMARK INTRA:                  -1.773
REMARK UNBOUND:                -2.344
REMARK  Name = cpd299.pdb
REMARK  21 active torsions:
REMARK  status: ('A' for Active; 'I' for Inactive)
REMARK    1  A    between atoms: C_1  and  C_2
REMARK    2  A    between atoms: C_2  and  N_3
REMARK    3  A    between atoms: N_3  and  C_4
REMARK    4  A    between atoms: N_3  and  C_6
REMARK    5  A    between atoms: C_4  and  C_5
REMARK    6  A    between atoms: C_6  and  C_7
REMARK    7  A    between atoms: C_7  and  C_8
REMARK    8  A    between atoms: C_8  and  C_9
REMARK    9  A    between atoms: C_9  and  O_10
REMARK   10  A    between atoms: O_10  and  C_11
REMARK   11  A    between atoms: C_11  and  C_13
REMARK   12  A    between atoms: C_13  and  C_14
REMARK   13  A    between atoms: C_14  and  C_15
REMARK   14  A    between atoms: C_14  and  C_16
REMARK   15  A    between atoms: C_16  and  C_17
REMARK   16  A    between atoms: C_17  and  C_18
REMARK   17  A    between atoms: C_19  and  C_20
REMARK   18  A    between atoms: C_20  and  O_21
REMARK   19  A    between atoms: C_25  and  C_26
REMARK   20  A    between atoms: C_25  and  C_27
REMARK   21  A    between atoms: C_31  and  C_32
REMARK                            x       y       z     vdW  Elec       q    Type
REMARK                         _______ _______ _______ _____ _____    ______ ____
ROOT
ATOM      1  C   UNL     1      45.827 -17.527 -37.028  0.00  0.00    -0.049 C 
ENDROOT
BRANCH   1   2
ATOM      2  C   UNL     1      45.045 -18.323 -35.958  0.00  0.00    -0.034 C 
ATOM      3  C   UNL     1      43.865 -19.077 -36.582  0.00  0.00    -0.062 C 
BRANCH   2   4
ATOM      4  C   UNL     1      44.612 -17.430 -34.786  0.00  0.00    +0.048 C 
BRANCH   4   5
ATOM      5  C   UNL     1      44.723 -18.080 -33.426  0.00  0.00    +0.307 C 
ATOM      6  O   UNL     1      45.664 -17.810 -32.681  0.00  0.00    -0.251 OA
BRANCH   5   7
ATOM      7  O   UNL     1      43.779 -18.960 -33.034  0.00  0.00    -0.465 OA
BRANCH   7   8
ATOM      8  C   UNL     1      42.359 -18.755 -33.135  0.00  0.00    +0.092 C 
BRANCH   8   9
ATOM      9  C   UNL     1      41.648 -19.955 -32.508  0.00  0.00    -0.017 C 
BRANCH   9  10
ATOM     10  C   UNL     1      40.124 -19.785 -32.463  0.00  0.00    -0.037 C 
BRANCH  10  11
ATOM     11  C   UNL     1      39.425 -20.868 -33.301  0.00  0.00    -0.001 C 
BRANCH  11  12
ATOM     12  N   UNL     1      40.380 -21.705 -34.045  0.00  0.00    -0.303 N 
ATOM     13  H   UNL     1      41.304 -21.450 -33.696  0.00  0.00    +0.000 HD
BRANCH  12  15
ATOM     14  C   UNL     1      39.114 -20.671 -35.946  0.00  0.00    -0.052 C 
ATOM     15  C   UNL     1      40.355 -21.434 -35.493  0.00  0.00    -0.004 C 
ENDBRANCH  12  15
BRANCH  12  16
ATOM     16  C   UNL     1      40.180 -23.143 -33.789  0.00  0.00    -0.004 C 
ATOM     17  C   UNL     1      40.868 -23.522 -32.486  0.00  0.00    -0.052 C 
ENDBRANCH  12  16
ENDBRANCH  11  12
ENDBRANCH  10  11
ENDBRANCH   9  10
ENDBRANCH   8   9
ENDBRANCH   7   8
ENDBRANCH   5   7
ENDBRANCH   4   5
ENDBRANCH   2   4
ENDBRANCH   1   2
BRANCH   1  18
ATOM     18  C   UNL     1      47.052 -18.254 -37.623  0.00  0.00    -0.046 C 
BRANCH  18  19
ATOM     19  C   UNL     1      46.954 -18.479 -39.198  0.00  0.00    -0.012 C 
ATOM     20  C   UNL     1      46.494 -17.127 -39.756  0.00  0.00    -0.045 C 
ATOM     21  C   UNL     1      45.225 -17.089 -40.163  0.00  0.00    -0.082 C 
ATOM     22  C   UNL     1      44.538 -18.405 -40.227  0.00  0.00    -0.031 C 
ATOM     23  C   UNL     1      45.621 -19.563 -40.569  0.00  0.00    -0.027 C 
ATOM     24  C   UNL     1      44.650 -20.637 -41.453  0.00  0.00    -0.031 C 
ATOM     25  C   UNL     1      44.324 -20.052 -42.856  0.00  0.00    -0.060 C 
ATOM     26  C   UNL     1      43.316 -20.991 -40.747  0.00  0.00    -0.060 C 
ATOM     27  C   UNL     1      45.387 -21.981 -41.681  0.00  0.00    -0.048 C 
ATOM     28  C   UNL     1      46.848 -21.702 -41.902  0.00  0.00    -0.052 C 
ATOM     29  C   UNL     1      47.341 -20.780 -40.790  0.00  0.00    -0.047 C 
ATOM     30  C   UNL     1      46.008 -20.026 -39.772  0.00  0.00    -0.022 C 
ATOM     31  C   UNL     1      46.395 -20.489 -38.974  0.00  0.00    -0.059 C 
BRANCH  20  32
ATOM     32  C   UNL     1      47.465 -15.979 -39.761  0.00  0.00    +0.066 C 
BRANCH  32  33
ATOM     33  O   UNL     1      48.265 -15.979 -40.935  0.00  0.00    -0.391 OA
ATOM     34  H   UNL     1      49.145 -16.329 -40.727  0.00  0.00    +0.000 HD
ENDBRANCH  32  33
ENDBRANCH  20  32
ENDBRANCH  18  19
ENDBRANCH   1  18
TORSDOF 15
ENDMDL
MODEL 12
REMARK VINA RESULT:    -5.372     16.237     20.538
REMARK INTER + INTRA:         -12.270
REMARK INTER:                 -10.295
REMARK INTRA:                  -1.975
REMARK UNBOUND:                -2.344
REMARK  Name = cpd299.pdb
REMARK  21 active torsions:
REMARK  status: ('A' for Active; 'I' for Inactive)
REMARK    1  A    between atoms: C_1  and  C_2
REMARK    2  A    between atoms: C_2  and  N_3
REMARK    3  A    between atoms: N_3  and  C_4
REMARK    4  A    between atoms: N_3  and  C_6
REMARK    5  A    between atoms: C_4  and  C_5
REMARK    6  A    between atoms: C_6  and  C_7
REMARK    7  A    between atoms: C_7  and  C_8
REMARK    8  A    between atoms: C_8  and  C_9
REMARK    9  A    between atoms: C_9  and  O_10
REMARK   10  A    between atoms: O_10  and  C_11
REMARK   11  A    between atoms: C_11  and  C_13
REMARK   12  A    between atoms: C_13  and  C_14
REMARK   13  A    between atoms: C_14  and  C_15
REMARK   14  A    between atoms: C_14  and  C_16
REMARK   15  A    between atoms: C_16  and  C_17
REMARK   16  A    between atoms: C_17  and  C_18
REMARK   17  A    between atoms: C_19  and  C_20
REMARK   18  A    between atoms: C_20  and  O_21
REMARK   19  A    between atoms: C_25  and  C_26
REMARK   20  A    between atoms: C_25  and  C_27
REMARK   21  A    between atoms: C_31  and  C_32
REMARK                            x       y       z     vdW  Elec       q    Type
REMARK                         _______ _______ _______ _____ _____    ______ ____
ROOT
ATOM      1  C   UNL     1      42.660 -20.623 -36.150  0.00  0.00    -0.049 C 
ENDROOT
BRANCH   1   2
ATOM      2  C   UNL     1      43.400 -20.289 -34.834  0.00  0.00    -0.034 C 
ATOM      3  C   UNL     1      42.918 -18.956 -34.251  0.00  0.00    -0.062 C 
BRANCH   2   4
ATOM      4  C   UNL     1      44.925 -20.331 -35.010  0.00  0.00    +0.048 C 
BRANCH   4   5
ATOM      5  C   UNL     1      45.595 -18.977 -35.014  0.00  0.00    +0.307 C 
ATOM      6  O   UNL     1      46.271 -18.612 -34.054  0.00  0.00    -0.251 OA
BRANCH   5   7
ATOM      7  O   UNL     1      45.446 -18.169 -36.084  0.00  0.00    -0.465 OA
BRANCH   7   8
ATOM      8  C   UNL     1      45.710 -18.539 -37.449  0.00  0.00    +0.092 C 
BRANCH   8   9
ATOM      9  C   UNL     1      44.484 -18.193 -38.294  0.00  0.00    -0.017 C 
BRANCH   9  10
ATOM     10  C   UNL     1      44.089 -19.320 -39.257  0.00  0.00    -0.037 C 
BRANCH  10  11
ATOM     11  C   UNL     1      45.322 -20.129 -39.691  0.00  0.00    -0.001 C 
BRANCH  11  12
ATOM     12  N   UNL     1      44.967 -21.297 -40.514  0.00  0.00    -0.303 N 
ATOM     13  H   UNL     1      44.108 -21.670 -40.110  0.00  0.00    +0.000 HD
BRANCH  12  15
ATOM     14  C   UNL     1      47.289 -21.911 -39.793  0.00  0.00    -0.052 C 
ATOM     15  C   UNL     1      45.989 -22.356 -40.457  0.00  0.00    -0.004 C 
ENDBRANCH  12  15
BRANCH  12  16
ATOM     16  C   UNL     1      44.687 -20.929 -41.914  0.00  0.00    -0.004 C 
ATOM     17  C   UNL     1      45.146 -22.052 -42.831  0.00  0.00    -0.052 C 
ENDBRANCH  12  16
ENDBRANCH  11  12
ENDBRANCH  10  11
ENDBRANCH   9  10
ENDBRANCH   8   9
ENDBRANCH   7   8
ENDBRANCH   5   7
ENDBRANCH   4   5
ENDBRANCH   2   4
ENDBRANCH   1   2
BRANCH   1  18
ATOM     18  C   UNL     1      41.936 -21.987 -36.169  0.00  0.00    -0.046 C 
BRANCH  18  19
ATOM     19  C   UNL     1      40.348 -21.864 -36.091  0.00  0.00    -0.012 C 
ATOM     20  C   UNL     1      39.962 -21.034 -37.321  0.00  0.00    -0.045 C 
ATOM     21  C   UNL     1      39.595 -19.779 -37.059  0.00  0.00    -0.082 C 
ATOM     22  C   UNL     1      39.397 -19.462 -35.621  0.00  0.00    -0.031 C 
ATOM     23  C   UNL     1      38.896 -20.791 -34.839  0.00  0.00    -0.027 C 
ATOM     24  C   UNL     1      37.919 -20.090 -33.643  0.00  0.00    -0.031 C 
ATOM     25  C   UNL     1      36.601 -19.544 -34.262  0.00  0.00    -0.060 C 
ATOM     26  C   UNL     1      38.613 -18.938 -32.872  0.00  0.00    -0.060 C 
ATOM     27  C   UNL     1      37.518 -21.142 -32.577  0.00  0.00    -0.048 C 
ATOM     28  C   UNL     1      37.293 -22.463 -33.260  0.00  0.00    -0.052 C 
ATOM     29  C   UNL     1      38.492 -22.756 -34.158  0.00  0.00    -0.047 C 
ATOM     30  C   UNL     1      39.624 -21.330 -34.416  0.00  0.00    -0.022 C 
ATOM     31  C   UNL     1      40.353 -21.869 -33.993  0.00  0.00    -0.059 C 
BRANCH  20  32
ATOM     32  C   UNL     1      40.065 -21.665 -38.682  0.00  0.00    +0.066 C 
BRANCH  32  33
ATOM     33  O   UNL     1      39.772 -23.055 -38.634  0.00  0.00    -0.391 OA
ATOM     34  H   UNL     1      39.502 -23.359 -39.515  0.00  0.00    +0.000 HD
ENDBRANCH  32  33
ENDBRANCH  20  32
ENDBRANCH  18  19
ENDBRANCH   1  18
TORSDOF 15
ENDMDL
MODEL 13
REMARK VINA RESULT:    -5.345     16.713     19.838
REMARK INTER + INTRA:         -12.219
REMARK INTER:                  -9.823
REMARK INTRA:                  -2.396
REMARK UNBOUND:                -2.344
REMARK  Name = cpd299.pdb
REMARK  21 active torsions:
REMARK  status: ('A' for Active; 'I' for Inactive)
REMARK    1  A    between atoms: C_1  and  C_2
REMARK    2  A    between atoms: C_2  and  N_3
REMARK    3  A    between atoms: N_3  and  C_4
REMARK    4  A    between atoms: N_3  and  C_6
REMARK    5  A    between atoms: C_4  and  C_5
REMARK    6  A    between atoms: C_6  and  C_7
REMARK    7  A    between atoms: C_7  and  C_8
REMARK    8  A    between atoms: C_8  and  C_9
REMARK    9  A    between atoms: C_9  and  O_10
REMARK   10  A    between atoms: O_10  and  C_11
REMARK   11  A    between atoms: C_11  and  C_13
REMARK   12  A    between atoms: C_13  and  C_14
REMARK   13  A    between atoms: C_14  and  C_15
REMARK   14  A    between atoms: C_14  and  C_16
REMARK   15  A    between atoms: C_16  and  C_17
REMARK   16  A    between atoms: C_17  and  C_18
REMARK   17  A    between atoms: C_19  and  C_20
REMARK   18  A    between atoms: C_20  and  O_21
REMARK   19  A    between atoms: C_25  and  C_26
REMARK   20  A    between atoms: C_25  and  C_27
REMARK   21  A    between atoms: C_31  and  C_32
REMARK                            x       y       z     vdW  Elec       q    Type
REMARK                         _______ _______ _______ _____ _____    ______ ____
ROOT
ATOM      1  C   UNL     1      42.920 -17.313 -37.642  0.00  0.00    -0.049 C 
ENDROOT
BRANCH   1   2
ATOM      2  C   UNL     1      41.714 -18.073 -38.241  0.00  0.00    -0.034 C 
ATOM      3  C   UNL     1      41.015 -17.238 -39.321  0.00  0.00    -0.062 C 
BRANCH   2   4
ATOM      4  C   UNL     1      40.741 -18.549 -37.152  0.00  0.00    +0.048 C 
BRANCH   4   5
ATOM      5  C   UNL     1      39.453 -19.141 -37.675  0.00  0.00    +0.307 C 
ATOM      6  O   UNL     1      38.371 -18.630 -37.390  0.00  0.00    -0.251 OA
BRANCH   5   7
ATOM      7  O   UNL     1      39.499 -20.237 -38.459  0.00  0.00    -0.465 OA
BRANCH   7   8
ATOM      8  C   UNL     1      39.107 -21.562 -38.061  0.00  0.00    +0.092 C 
BRANCH   8   9
ATOM      9  C   UNL     1      40.319 -22.266 -37.448  0.00  0.00    -0.017 C 
BRANCH   9  10
ATOM     10  C   UNL     1      40.006 -22.918 -36.095  0.00  0.00    -0.037 C 
BRANCH  10  11
ATOM     11  C   UNL     1      39.134 -21.995 -35.229  0.00  0.00    -0.001 C 
BRANCH  11  12
ATOM     12  N   UNL     1      39.245 -22.300 -33.793  0.00  0.00    -0.303 N 
ATOM     13  H   UNL     1      38.750 -23.182 -33.659  0.00  0.00    +0.000 HD
BRANCH  12  15
ATOM     14  C   UNL     1      37.067 -21.345 -32.999  0.00  0.00    -0.052 C 
ATOM     15  C   UNL     1      38.591 -21.284 -32.951  0.00  0.00    -0.004 C 
ENDBRANCH  12  15
BRANCH  12  16
ATOM     16  C   UNL     1      40.644 -22.495 -33.371  0.00  0.00    -0.004 C 
ATOM     17  C   UNL     1      41.222 -21.163 -32.915  0.00  0.00    -0.052 C 
ENDBRANCH  12  16
ENDBRANCH  11  12
ENDBRANCH  10  11
ENDBRANCH   9  10
ENDBRANCH   8   9
ENDBRANCH   7   8
ENDBRANCH   5   7
ENDBRANCH   4   5
ENDBRANCH   2   4
ENDBRANCH   1   2
BRANCH   1  18
ATOM     18  C   UNL     1      44.305 -17.803 -38.116  0.00  0.00    -0.046 C 
BRANCH  18  19
ATOM     19  C   UNL     1      44.321 -19.335 -38.557  0.00  0.00    -0.012 C 
ATOM     20  C   UNL     1      45.042 -20.061 -37.414  0.00  0.00    -0.045 C 
ATOM     21  C   UNL     1      46.282 -20.461 -37.697  0.00  0.00    -0.082 C 
ATOM     22  C   UNL     1      46.675 -20.350 -39.126  0.00  0.00    -0.031 C 
ATOM     23  C   UNL     1      45.366 -20.546 -40.063  0.00  0.00    -0.027 C 
ATOM     24  C   UNL     1      46.071 -21.278 -41.421  0.00  0.00    -0.031 C 
ATOM     25  C   UNL     1      46.482 -22.743 -41.103  0.00  0.00    -0.060 C 
ATOM     26  C   UNL     1      47.316 -20.524 -41.955  0.00  0.00    -0.060 C 
ATOM     27  C   UNL     1      45.063 -21.334 -42.597  0.00  0.00    -0.048 C 
ATOM     28  C   UNL     1      43.689 -21.599 -42.047  0.00  0.00    -0.052 C 
ATOM     29  C   UNL     1      43.425 -20.618 -40.908  0.00  0.00    -0.047 C 
ATOM     30  C   UNL     1      44.908 -19.698 -40.328  0.00  0.00    -0.022 C 
ATOM     31  C   UNL     1      44.450 -18.850 -40.593  0.00  0.00    -0.059 C 
BRANCH  20  32
ATOM     32  C   UNL     1      44.334 -20.220 -36.097  0.00  0.00    +0.066 C 
BRANCH  32  33
ATOM     33  O   UNL     1      43.231 -21.109 -36.204  0.00  0.00    -0.391 OA
ATOM     34  H   UNL     1      42.578 -20.742 -36.821  0.00  0.00    +0.000 HD
ENDBRANCH  32  33
ENDBRANCH  20  32
ENDBRANCH  18  19
ENDBRANCH   1  18
TORSDOF 15
ENDMDL
MODEL 14
REMARK VINA RESULT:    -5.298     19.429     22.745
REMARK INTER + INTRA:         -12.132
REMARK INTER:                  -9.151
REMARK INTRA:                  -2.981
REMARK UNBOUND:                -2.344
REMARK  Name = cpd299.pdb
REMARK  21 active torsions:
REMARK  status: ('A' for Active; 'I' for Inactive)
REMARK    1  A    between atoms: C_1  and  C_2
REMARK    2  A    between atoms: C_2  and  N_3
REMARK    3  A    between atoms: N_3  and  C_4
REMARK    4  A    between atoms: N_3  and  C_6
REMARK    5  A    between atoms: C_4  and  C_5
REMARK    6  A    between atoms: C_6  and  C_7
REMARK    7  A    between atoms: C_7  and  C_8
REMARK    8  A    between atoms: C_8  and  C_9
REMARK    9  A    between atoms: C_9  and  O_10
REMARK   10  A    between atoms: O_10  and  C_11
REMARK   11  A    between atoms: C_11  and  C_13
REMARK   12  A    between atoms: C_13  and  C_14
REMARK   13  A    between atoms: C_14  and  C_15
REMARK   14  A    between atoms: C_14  and  C_16
REMARK   15  A    between atoms: C_16  and  C_17
REMARK   16  A    between atoms: C_17  and  C_18
REMARK   17  A    between atoms: C_19  and  C_20
REMARK   18  A    between atoms: C_20  and  O_21
REMARK   19  A    between atoms: C_25  and  C_26
REMARK   20  A    between atoms: C_25  and  C_27
REMARK   21  A    between atoms: C_31  and  C_32
REMARK                            x       y       z     vdW  Elec       q    Type
REMARK                         _______ _______ _______ _____ _____    ______ ____
ROOT
ATOM      1  C   UNL     1      41.769 -20.123 -35.903  0.00  0.00    -0.049 C 
ENDROOT
BRANCH   1   2
ATOM      2  C   UNL     1      42.800 -19.950 -34.763  0.00  0.00    -0.034 C 
ATOM      3  C   UNL     1      42.111 -19.566 -33.447  0.00  0.00    -0.062 C 
BRANCH   2   4
ATOM      4  C   UNL     1      43.914 -18.966 -35.145  0.00  0.00    +0.048 C 
BRANCH   4   5
ATOM      5  C   UNL     1      45.310 -19.427 -34.791  0.00  0.00    +0.307 C 
ATOM      6  O   UNL     1      45.479 -20.445 -34.121  0.00  0.00    -0.251 OA
BRANCH   5   7
ATOM      7  O   UNL     1      46.370 -18.712 -35.218  0.00  0.00    -0.465 OA
BRANCH   7   8
ATOM      8  C   UNL     1      46.299 -17.483 -35.963  0.00  0.00    +0.092 C 
BRANCH   8   9
ATOM      9  C   UNL     1      46.972 -17.696 -37.320  0.00  0.00    -0.017 C 
BRANCH   9  10
ATOM     10  C   UNL     1      47.197 -16.384 -38.083  0.00  0.00    -0.037 C 
BRANCH  10  11
ATOM     11  C   UNL     1      46.324 -15.257 -37.507  0.00  0.00    -0.001 C 
BRANCH  11  12
ATOM     12  N   UNL     1      45.783 -14.374 -38.553  0.00  0.00    -0.303 N 
ATOM     13  H   UNL     1      45.930 -13.422 -38.216  0.00  0.00    +0.000 HD
BRANCH  12  15
ATOM     14  C   UNL     1      43.599 -14.994 -37.489  0.00  0.00    -0.052 C 
ATOM     15  C   UNL     1      44.336 -14.561 -38.753  0.00  0.00    -0.004 C 
ENDBRANCH  12  15
BRANCH  12  16
ATOM     16  C   UNL     1      46.502 -14.519 -39.832  0.00  0.00    -0.004 C 
ATOM     17  C   UNL     1      45.656 -13.932 -40.953  0.00  0.00    -0.052 C 
ENDBRANCH  12  16
ENDBRANCH  11  12
ENDBRANCH  10  11
ENDBRANCH   9  10
ENDBRANCH   8   9
ENDBRANCH   7   8
ENDBRANCH   5   7
ENDBRANCH   4   5
ENDBRANCH   2   4
ENDBRANCH   1   2
BRANCH   1  18
ATOM     18  C   UNL     1      42.255 -20.959 -37.106  0.00  0.00    -0.046 C 
BRANCH  18  19
ATOM     19  C   UNL     1      42.239 -20.158 -38.484  0.00  0.00    -0.012 C 
ATOM     20  C   UNL     1      41.034 -20.722 -39.248  0.00  0.00    -0.045 C 
ATOM     21  C   UNL     1      41.341 -21.524 -40.267  0.00  0.00    -0.082 C 
ATOM     22  C   UNL     1      42.779 -21.557 -40.640  0.00  0.00    -0.031 C 
ATOM     23  C   UNL     1      43.453 -20.118 -40.315  0.00  0.00    -0.027 C 
ATOM     24  C   UNL     1      44.622 -20.045 -41.541  0.00  0.00    -0.031 C 
ATOM     25  C   UNL     1      43.952 -19.801 -42.923  0.00  0.00    -0.060 C 
ATOM     26  C   UNL     1      45.498 -21.321 -41.640  0.00  0.00    -0.060 C 
ATOM     27  C   UNL     1      45.601 -18.869 -41.296  0.00  0.00    -0.048 C 
ATOM     28  C   UNL     1      44.834 -17.712 -40.718  0.00  0.00    -0.052 C 
ATOM     29  C   UNL     1      43.998 -18.221 -39.547  0.00  0.00    -0.047 C 
ATOM     30  C   UNL     1      43.891 -20.052 -39.418  0.00  0.00    -0.022 C 
ATOM     31  C   UNL     1      44.329 -19.986 -38.522  0.00  0.00    -0.059 C 
BRANCH  20  32
ATOM     32  C   UNL     1      39.650 -20.371 -38.776  0.00  0.00    +0.066 C 
BRANCH  32  33
ATOM     33  O   UNL     1      38.928 -21.527 -38.375  0.00  0.00    -0.391 OA
ATOM     34  H   UNL     1      38.757 -21.487 -37.420  0.00  0.00    +0.000 HD
ENDBRANCH  32  33
ENDBRANCH  20  32
ENDBRANCH  18  19
ENDBRANCH   1  18
TORSDOF 15
ENDMDL
MODEL 15
REMARK VINA RESULT:    -5.240     17.773     20.986
REMARK INTER + INTRA:         -12.026
REMARK INTER:                  -9.075
REMARK INTRA:                  -2.951
REMARK UNBOUND:                -2.344
REMARK  Name = cpd299.pdb
REMARK  21 active torsions:
REMARK  status: ('A' for Active; 'I' for Inactive)
REMARK    1  A    between atoms: C_1  and  C_2
REMARK    2  A    between atoms: C_2  and  N_3
REMARK    3  A    between atoms: N_3  and  C_4
REMARK    4  A    between atoms: N_3  and  C_6
REMARK    5  A    between atoms: C_4  and  C_5
REMARK    6  A    between atoms: C_6  and  C_7
REMARK    7  A    between atoms: C_7  and  C_8
REMARK    8  A    between atoms: C_8  and  C_9
REMARK    9  A    between atoms: C_9  and  O_10
REMARK   10  A    between atoms: O_10  and  C_11
REMARK   11  A    between atoms: C_11  and  C_13
REMARK   12  A    between atoms: C_13  and  C_14
REMARK   13  A    between atoms: C_14  and  C_15
REMARK   14  A    between atoms: C_14  and  C_16
REMARK   15  A    between atoms: C_16  and  C_17
REMARK   16  A    between atoms: C_17  and  C_18
REMARK   17  A    between atoms: C_19  and  C_20
REMARK   18  A    between atoms: C_20  and  O_21
REMARK   19  A    between atoms: C_25  and  C_26
REMARK   20  A    between atoms: C_25  and  C_27
REMARK   21  A    between atoms: C_31  and  C_32
REMARK                            x       y       z     vdW  Elec       q    Type
REMARK                         _______ _______ _______ _____ _____    ______ ____
ROOT
ATOM      1  C   UNL     1      43.032 -20.641 -39.567  0.00  0.00    -0.049 C 
ENDROOT
BRANCH   1   2
ATOM      2  C   UNL     1      41.813 -20.837 -38.636  0.00  0.00    -0.034 C 
ATOM      3  C   UNL     1      40.985 -19.551 -38.529  0.00  0.00    -0.062 C 
BRANCH   2   4
ATOM      4  C   UNL     1      42.226 -21.380 -37.261  0.00  0.00    +0.048 C 
BRANCH   4   5
ATOM      5  C   UNL     1      41.205 -22.283 -36.608  0.00  0.00    +0.307 C 
ATOM      6  O   UNL     1      40.614 -23.136 -37.268  0.00  0.00    -0.251 OA
BRANCH   5   7
ATOM      7  O   UNL     1      40.948 -22.146 -35.291  0.00  0.00    -0.465 OA
BRANCH   7   8
ATOM      8  C   UNL     1      40.403 -20.970 -34.668  0.00  0.00    +0.092 C 
BRANCH   8   9
ATOM      9  C   UNL     1      41.272 -20.610 -33.463  0.00  0.00    -0.017 C 
BRANCH   9  10
ATOM     10  C   UNL     1      42.605 -19.964 -33.864  0.00  0.00    -0.037 C 
BRANCH  10  11
ATOM     11  C   UNL     1      42.388 -18.534 -34.386  0.00  0.00    -0.001 C 
BRANCH  11  12
ATOM     12  N   UNL     1      43.209 -17.543 -33.671  0.00  0.00    -0.303 N 
ATOM     13  H   UNL     1      43.940 -17.265 -34.326  0.00  0.00    +0.000 HD
BRANCH  12  15
ATOM     14  C   UNL     1      44.992 -17.240 -31.935  0.00  0.00    -0.052 C 
ATOM     15  C   UNL     1      43.864 -18.111 -32.480  0.00  0.00    -0.004 C 
ENDBRANCH  12  15
BRANCH  12  16
ATOM     16  C   UNL     1      42.441 -16.338 -33.310  0.00  0.00    -0.004 C 
ATOM     17  C   UNL     1      41.023 -16.740 -32.932  0.00  0.00    -0.052 C 
ENDBRANCH  12  16
ENDBRANCH  11  12
ENDBRANCH  10  11
ENDBRANCH   9  10
ENDBRANCH   8   9
ENDBRANCH   7   8
ENDBRANCH   5   7
ENDBRANCH   4   5
ENDBRANCH   2   4
ENDBRANCH   1   2
BRANCH   1  18
ATOM     18  C   UNL     1      43.432 -19.172 -39.823  0.00  0.00    -0.046 C 
BRANCH  18  19
ATOM     19  C   UNL     1      44.910 -18.823 -39.337  0.00  0.00    -0.012 C 
ATOM     20  C   UNL     1      45.796 -19.894 -39.985  0.00  0.00    -0.045 C 
ATOM     21  C   UNL     1      46.253 -20.826 -39.148  0.00  0.00    -0.082 C 
ATOM     22  C   UNL     1      46.028 -20.551 -37.706  0.00  0.00    -0.031 C 
ATOM     23  C   UNL     1      46.036 -18.949 -37.454  0.00  0.00    -0.027 C 
ATOM     24  C   UNL     1      46.677 -18.891 -35.885  0.00  0.00    -0.031 C 
ATOM     25  C   UNL     1      48.192 -19.239 -35.898  0.00  0.00    -0.060 C 
ATOM     26  C   UNL     1      45.963 -19.840 -34.888  0.00  0.00    -0.060 C 
ATOM     27  C   UNL     1      46.544 -17.465 -35.292  0.00  0.00    -0.048 C 
ATOM     28  C   UNL     1      46.764 -16.461 -36.389  0.00  0.00    -0.052 C 
ATOM     29  C   UNL     1      45.885 -16.840 -37.578  0.00  0.00    -0.047 C 
ATOM     30  C   UNL     1      45.135 -18.516 -37.474  0.00  0.00    -0.022 C 
ATOM     31  C   UNL     1      44.235 -18.082 -37.494  0.00  0.00    -0.059 C 
BRANCH  20  32
ATOM     32  C   UNL     1      46.035 -19.835 -41.468  0.00  0.00    +0.066 C 
BRANCH  32  33
ATOM     33  O   UNL     1      45.786 -21.089 -42.086  0.00  0.00    -0.391 OA
ATOM     34  H   UNL     1      46.428 -21.742 -41.765  0.00  0.00    +0.000 HD
ENDBRANCH  32  33
ENDBRANCH  20  32
ENDBRANCH  18  19
ENDBRANCH   1  18
TORSDOF 15
ENDMDL
MODEL 16
REMARK VINA RESULT:    -5.169     16.290     19.471
REMARK INTER + INTRA:         -11.895
REMARK INTER:                  -9.181
REMARK INTRA:                  -2.713
REMARK UNBOUND:                -2.344
REMARK  Name = cpd299.pdb
REMARK  21 active torsions:
REMARK  status: ('A' for Active; 'I' for Inactive)
REMARK    1  A    between atoms: C_1  and  C_2
REMARK    2  A    between atoms: C_2  and  N_3
REMARK    3  A    between atoms: N_3  and  C_4
REMARK    4  A    between atoms: N_3  and  C_6
REMARK    5  A    between atoms: C_4  and  C_5
REMARK    6  A    between atoms: C_6  and  C_7
REMARK    7  A    between atoms: C_7  and  C_8
REMARK    8  A    between atoms: C_8  and  C_9
REMARK    9  A    between atoms: C_9  and  O_10
REMARK   10  A    between atoms: O_10  and  C_11
REMARK   11  A    between atoms: C_11  and  C_13
REMARK   12  A    between atoms: C_13  and  C_14
REMARK   13  A    between atoms: C_14  and  C_15
REMARK   14  A    between atoms: C_14  and  C_16
REMARK   15  A    between atoms: C_16  and  C_17
REMARK   16  A    between atoms: C_17  and  C_18
REMARK   17  A    between atoms: C_19  and  C_20
REMARK   18  A    between atoms: C_20  and  O_21
REMARK   19  A    between atoms: C_25  and  C_26
REMARK   20  A    between atoms: C_25  and  C_27
REMARK   21  A    between atoms: C_31  and  C_32
REMARK                            x       y       z     vdW  Elec       q    Type
REMARK                         _______ _______ _______ _____ _____    ______ ____
ROOT
ATOM      1  C   UNL     1      40.480 -19.033 -37.200  0.00  0.00    -0.049 C 
ENDROOT
BRANCH   1   2
ATOM      2  C   UNL     1      40.079 -20.362 -37.882  0.00  0.00    -0.034 C 
ATOM      3  C   UNL     1      39.346 -20.106 -39.205  0.00  0.00    -0.062 C 
BRANCH   2   4
ATOM      4  C   UNL     1      39.277 -21.269 -36.939  0.00  0.00    +0.048 C 
BRANCH   4   5
ATOM      5  C   UNL     1      39.960 -22.571 -36.587  0.00  0.00    +0.307 C 
ATOM      6  O   UNL     1      40.834 -23.034 -37.318  0.00  0.00    -0.251 OA
BRANCH   5   7
ATOM      7  O   UNL     1      39.602 -23.222 -35.461  0.00  0.00    -0.465 OA
BRANCH   7   8
ATOM      8  C   UNL     1      40.361 -23.251 -34.240  0.00  0.00    +0.092 C 
BRANCH   8   9
ATOM      9  C   UNL     1      40.065 -21.975 -33.451  0.00  0.00    -0.017 C 
BRANCH   9  10
ATOM     10  C   UNL     1      38.567 -21.778 -33.182  0.00  0.00    -0.037 C 
BRANCH  10  11
ATOM     11  C   UNL     1      38.283 -20.354 -32.676  0.00  0.00    -0.001 C 
BRANCH  11  12
ATOM     12  N   UNL     1      38.140 -19.385 -33.775  0.00  0.00    -0.303 N 
ATOM     13  H   UNL     1      38.536 -19.840 -34.598  0.00  0.00    +0.000 HD
BRANCH  12  15
ATOM     14  C   UNL     1      39.389 -18.004 -32.096  0.00  0.00    -0.052 C 
ATOM     15  C   UNL     1      38.902 -18.147 -33.535  0.00  0.00    -0.004 C 
ENDBRANCH  12  15
BRANCH  12  16
ATOM     16  C   UNL     1      36.729 -19.072 -34.064  0.00  0.00    -0.004 C 
ATOM     17  C   UNL     1      36.479 -19.213 -35.559  0.00  0.00    -0.052 C 
ENDBRANCH  12  16
ENDBRANCH  11  12
ENDBRANCH  10  11
ENDBRANCH   9  10
ENDBRANCH   8   9
ENDBRANCH   7   8
ENDBRANCH   5   7
ENDBRANCH   4   5
ENDBRANCH   2   4
ENDBRANCH   1   2
BRANCH   1  18
ATOM     18  C   UNL     1      41.965 -18.640 -37.349  0.00  0.00    -0.046 C 
BRANCH  18  19
ATOM     19  C   UNL     1      42.879 -19.815 -37.920  0.00  0.00    -0.012 C 
ATOM     20  C   UNL     1      43.738 -20.254 -36.729  0.00  0.00    -0.045 C 
ATOM     21  C   UNL     1      45.016 -19.876 -36.788  0.00  0.00    -0.082 C 
ATOM     22  C   UNL     1      45.449 -19.303 -38.088  0.00  0.00    -0.031 C 
ATOM     23  C   UNL     1      44.591 -19.977 -39.288  0.00  0.00    -0.027 C 
ATOM     24  C   UNL     1      45.739 -19.950 -40.536  0.00  0.00    -0.031 C 
ATOM     25  C   UNL     1      46.851 -21.006 -40.281  0.00  0.00    -0.060 C 
ATOM     26  C   UNL     1      46.411 -18.566 -40.730  0.00  0.00    -0.060 C 
ATOM     27  C   UNL     1      45.080 -20.303 -41.894  0.00  0.00    -0.048 C 
ATOM     28  C   UNL     1      44.029 -21.353 -41.665  0.00  0.00    -0.052 C 
ATOM     29  C   UNL     1      43.132 -20.899 -40.516  0.00  0.00    -0.047 C 
ATOM     30  C   UNL     1      43.775 -19.466 -39.560  0.00  0.00    -0.022 C 
ATOM     31  C   UNL     1      42.960 -18.956 -39.832  0.00  0.00    -0.059 C 
BRANCH  20  32
ATOM     32  C   UNL     1      43.085 -21.012 -35.606  0.00  0.00    +0.066 C 
BRANCH  32  33
ATOM     33  O   UNL     1      43.723 -20.753 -34.363  0.00  0.00    -0.391 OA
ATOM     34  H   UNL     1      43.374 -21.358 -33.689  0.00  0.00    +0.000 HD
ENDBRANCH  32  33
ENDBRANCH  20  32
ENDBRANCH  18  19
ENDBRANCH   1  18
TORSDOF 15
ENDMDL
MODEL 17
REMARK VINA RESULT:    -5.168     18.261     21.625
REMARK INTER + INTRA:         -11.894
REMARK INTER:                  -9.404
REMARK INTRA:                  -2.490
REMARK UNBOUND:                -2.344
REMARK  Name = cpd299.pdb
REMARK  21 active torsions:
REMARK  status: ('A' for Active; 'I' for Inactive)
REMARK    1  A    between atoms: C_1  and  C_2
REMARK    2  A    between atoms: C_2  and  N_3
REMARK    3  A    between atoms: N_3  and  C_4
REMARK    4  A    between atoms: N_3  and  C_6
REMARK    5  A    between atoms: C_4  and  C_5
REMARK    6  A    between atoms: C_6  and  C_7
REMARK    7  A    between atoms: C_7  and  C_8
REMARK    8  A    between atoms: C_8  and  C_9
REMARK    9  A    between atoms: C_9  and  O_10
REMARK   10  A    between atoms: O_10  and  C_11
REMARK   11  A    between atoms: C_11  and  C_13
REMARK   12  A    between atoms: C_13  and  C_14
REMARK   13  A    between atoms: C_14  and  C_15
REMARK   14  A    between atoms: C_14  and  C_16
REMARK   15  A    between atoms: C_16  and  C_17
REMARK   16  A    between atoms: C_17  and  C_18
REMARK   17  A    between atoms: C_19  and  C_20
REMARK   18  A    between atoms: C_20  and  O_21
REMARK   19  A    between atoms: C_25  and  C_26
REMARK   20  A    between atoms: C_25  and  C_27
REMARK   21  A    between atoms: C_31  and  C_32
REMARK                            x       y       z     vdW  Elec       q    Type
REMARK                         _______ _______ _______ _____ _____    ______ ____
ROOT
ATOM      1  C   UNL     1      45.599 -17.649 -37.111  0.00  0.00    -0.049 C 
ENDROOT
BRANCH   1   2
ATOM      2  C   UNL     1      45.312 -18.291 -35.733  0.00  0.00    -0.034 C 
ATOM      3  C   UNL     1      46.379 -17.897 -34.706  0.00  0.00    -0.062 C 
BRANCH   2   4
ATOM      4  C   UNL     1      45.138 -19.813 -35.838  0.00  0.00    +0.048 C 
BRANCH   4   5
ATOM      5  C   UNL     1      43.734 -20.264 -36.171  0.00  0.00    +0.307 C 
ATOM      6  O   UNL     1      43.300 -20.156 -37.317  0.00  0.00    -0.251 OA
BRANCH   5   7
ATOM      7  O   UNL     1      42.961 -20.790 -35.199  0.00  0.00    -0.465 OA
BRANCH   7   8
ATOM      8  C   UNL     1      42.589 -20.123 -33.980  0.00  0.00    +0.092 C 
BRANCH   8   9
ATOM      9  C   UNL     1      41.141 -20.486 -33.647  0.00  0.00    -0.017 C 
BRANCH   9  10
ATOM     10  C   UNL     1      40.123 -19.631 -34.412  0.00  0.00    -0.037 C 
BRANCH  10  11
ATOM     11  C   UNL     1      39.401 -20.464 -35.483  0.00  0.00    -0.001 C 
BRANCH  11  12
ATOM     12  N   UNL     1      40.126 -20.486 -36.764  0.00  0.00    -0.303 N 
ATOM     13  H   UNL     1      41.091 -20.242 -36.539  0.00  0.00    +0.000 HD
BRANCH  12  15
ATOM     14  C   UNL     1      40.516 -18.256 -37.841  0.00  0.00    -0.052 C 
ATOM     15  C   UNL     1      39.618 -19.482 -37.715  0.00  0.00    -0.004 C 
ENDBRANCH  12  15
BRANCH  12  16
ATOM     16  C   UNL     1      40.129 -21.824 -37.381  0.00  0.00    -0.004 C 
ATOM     17  C   UNL     1      39.700 -22.856 -36.348  0.00  0.00    -0.052 C 
ENDBRANCH  12  16
ENDBRANCH  11  12
ENDBRANCH  10  11
ENDBRANCH   9  10
ENDBRANCH   8   9
ENDBRANCH   7   8
ENDBRANCH   5   7
ENDBRANCH   4   5
ENDBRANCH   2   4
ENDBRANCH   1   2
BRANCH   1  18
ATOM     18  C   UNL     1      46.942 -18.052 -37.756  0.00  0.00    -0.046 C 
BRANCH  18  19
ATOM     19  C   UNL     1      46.845 -18.285 -39.331  0.00  0.00    -0.012 C 
ATOM     20  C   UNL     1      46.282 -16.970 -39.884  0.00  0.00    -0.045 C 
ATOM     21  C   UNL     1      45.010 -17.025 -40.279  0.00  0.00    -0.082 C 
ATOM     22  C   UNL     1      44.421 -18.388 -40.336  0.00  0.00    -0.031 C 
ATOM     23  C   UNL     1      45.582 -19.463 -40.689  0.00  0.00    -0.027 C 
ATOM     24  C   UNL     1      44.684 -20.605 -41.564  0.00  0.00    -0.031 C 
ATOM     25  C   UNL     1      44.302 -20.047 -42.964  0.00  0.00    -0.060 C 
ATOM     26  C   UNL     1      43.386 -21.056 -40.845  0.00  0.00    -0.060 C 
ATOM     27  C   UNL     1      45.514 -21.892 -41.799  0.00  0.00    -0.048 C 
ATOM     28  C   UNL     1      46.948 -21.508 -42.034  0.00  0.00    -0.052 C 
ATOM     29  C   UNL     1      47.383 -20.552 -40.926  0.00  0.00    -0.047 C 
ATOM     30  C   UNL     1      46.009 -19.896 -39.895  0.00  0.00    -0.022 C 
ATOM     31  C   UNL     1      46.436 -20.330 -39.102  0.00  0.00    -0.059 C 
BRANCH  20  32
ATOM     32  C   UNL     1      47.167 -15.754 -39.898  0.00  0.00    +0.066 C 
BRANCH  32  33
ATOM     33  O   UNL     1      48.191 -15.866 -40.877  0.00  0.00    -0.391 OA
ATOM     34  H   UNL     1      48.277 -15.025 -41.352  0.00  0.00    +0.000 HD
ENDBRANCH  32  33
ENDBRANCH  20  32
ENDBRANCH  18  19
ENDBRANCH   1  18
TORSDOF 15
ENDMDL
MODEL 18
REMARK VINA RESULT:    -5.089     18.113     21.343
REMARK INTER + INTRA:         -11.747
REMARK INTER:                  -8.873
REMARK INTRA:                  -2.873
REMARK UNBOUND:                -2.344
REMARK  Name = cpd299.pdb
REMARK  21 active torsions:
REMARK  status: ('A' for Active; 'I' for Inactive)
REMARK    1  A    between atoms: C_1  and  C_2
REMARK    2  A    between atoms: C_2  and  N_3
REMARK    3  A    between atoms: N_3  and  C_4
REMARK    4  A    between atoms: N_3  and  C_6
REMARK    5  A    between atoms: C_4  and  C_5
REMARK    6  A    between atoms: C_6  and  C_7
REMARK    7  A    between atoms: C_7  and  C_8
REMARK    8  A    between atoms: C_8  and  C_9
REMARK    9  A    between atoms: C_9  and  O_10
REMARK   10  A    between atoms: O_10  and  C_11
REMARK   11  A    between atoms: C_11  and  C_13
REMARK   12  A    between atoms: C_13  and  C_14
REMARK   13  A    between atoms: C_14  and  C_15
REMARK   14  A    between atoms: C_14  and  C_16
REMARK   15  A    between atoms: C_16  and  C_17
REMARK   16  A    between atoms: C_17  and  C_18
REMARK   17  A    between atoms: C_19  and  C_20
REMARK   18  A    between atoms: C_20  and  O_21
REMARK   19  A    between atoms: C_25  and  C_26
REMARK   20  A    between atoms: C_25  and  C_27
REMARK   21  A    between atoms: C_31  and  C_32
REMARK                            x       y       z     vdW  Elec       q    Type
REMARK                         _______ _______ _______ _____ _____    ______ ____
ROOT
ATOM      1  C   UNL     1      45.306 -17.093 -37.142  0.00  0.00    -0.049 C 
ENDROOT
BRANCH   1   2
ATOM      2  C   UNL     1      44.217 -17.833 -36.332  0.00  0.00    -0.034 C 
ATOM      3  C   UNL     1      44.814 -19.005 -35.543  0.00  0.00    -0.062 C 
BRANCH   2   4
ATOM      4  C   UNL     1      43.041 -18.267 -37.218  0.00  0.00    +0.048 C 
BRANCH   4   5
ATOM      5  C   UNL     1      41.782 -18.626 -36.463  0.00  0.00    +0.307 C 
ATOM      6  O   UNL     1      41.348 -17.883 -35.585  0.00  0.00    -0.251 OA
BRANCH   5   7
ATOM      7  O   UNL     1      41.136 -19.771 -36.763  0.00  0.00    -0.465 OA
BRANCH   7   8
ATOM      8  C   UNL     1      41.761 -21.051 -36.964  0.00  0.00    +0.092 C 
BRANCH   8   9
ATOM      9  C   UNL     1      41.187 -22.040 -35.949  0.00  0.00    -0.017 C 
BRANCH   9  10
ATOM     10  C   UNL     1      39.688 -21.830 -35.698  0.00  0.00    -0.037 C 
BRANCH  10  11
ATOM     11  C   UNL     1      39.428 -21.423 -34.238  0.00  0.00    -0.001 C 
BRANCH  11  12
ATOM     12  N   UNL     1      39.661 -19.988 -34.004  0.00  0.00    -0.303 N 
ATOM     13  H   UNL     1      40.257 -19.676 -34.771  0.00  0.00    +0.000 HD
BRANCH  12  15
ATOM     14  C   UNL     1      41.888 -19.941 -32.853  0.00  0.00    -0.052 C 
ATOM     15  C   UNL     1      40.381 -19.735 -32.744  0.00  0.00    -0.004 C 
ENDBRANCH  12  15
BRANCH  12  16
ATOM     16  C   UNL     1      38.414 -19.205 -34.051  0.00  0.00    -0.004 C 
ATOM     17  C   UNL     1      37.871 -19.038 -32.638  0.00  0.00    -0.052 C 
ENDBRANCH  12  16
ENDBRANCH  11  12
ENDBRANCH  10  11
ENDBRANCH   9  10
ENDBRANCH   8   9
ENDBRANCH   7   8
ENDBRANCH   5   7
ENDBRANCH   4   5
ENDBRANCH   2   4
ENDBRANCH   1   2
BRANCH   1  18
ATOM     18  C   UNL     1      46.558 -17.931 -37.478  0.00  0.00    -0.046 C 
BRANCH  18  19
ATOM     19  C   UNL     1      46.691 -18.281 -39.028  0.00  0.00    -0.012 C 
ATOM     20  C   UNL     1      46.398 -16.960 -39.751  0.00  0.00    -0.045 C 
ATOM     21  C   UNL     1      45.210 -16.902 -40.355  0.00  0.00    -0.082 C 
ATOM     22  C   UNL     1      44.471 -18.188 -40.428  0.00  0.00    -0.031 C 
ATOM     23  C   UNL     1      45.528 -19.415 -40.508  0.00  0.00    -0.027 C 
ATOM     24  C   UNL     1      44.648 -20.515 -41.451  0.00  0.00    -0.031 C 
ATOM     25  C   UNL     1      44.574 -20.035 -42.928  0.00  0.00    -0.060 C 
ATOM     26  C   UNL     1      43.203 -20.753 -40.940  0.00  0.00    -0.060 C 
ATOM     27  C   UNL     1      45.336 -21.904 -41.459  0.00  0.00    -0.048 C 
ATOM     28  C   UNL     1      46.826 -21.707 -41.468  0.00  0.00    -0.052 C 
ATOM     29  C   UNL     1      47.192 -20.718 -40.363  0.00  0.00    -0.047 C 
ATOM     30  C   UNL     1      45.762 -19.827 -39.627  0.00  0.00    -0.022 C 
ATOM     31  C   UNL     1      45.995 -20.239 -38.746  0.00  0.00    -0.059 C 
BRANCH  20  32
ATOM     32  C   UNL     1      47.420 -15.859 -39.688  0.00  0.00    +0.066 C 
BRANCH  32  33
ATOM     33  O   UNL     1      48.275 -15.877 -40.822  0.00  0.00    -0.391 OA
ATOM     34  H   UNL     1      47.792 -15.548 -41.597  0.00  0.00    +0.000 HD
ENDBRANCH  32  33
ENDBRANCH  20  32
ENDBRANCH  18  19
ENDBRANCH   1  18
TORSDOF 15
ENDMDL
MODEL 19
REMARK VINA RESULT:    -5.066     17.800     21.862
REMARK INTER + INTRA:         -11.704
REMARK INTER:                  -9.304
REMARK INTRA:                  -2.399
REMARK UNBOUND:                -2.344
REMARK  Name = cpd299.pdb
REMARK  21 active torsions:
REMARK  status: ('A' for Active; 'I' for Inactive)
REMARK    1  A    between atoms: C_1  and  C_2
REMARK    2  A    between atoms: C_2  and  N_3
REMARK    3  A    between atoms: N_3  and  C_4
REMARK    4  A    between atoms: N_3  and  C_6
REMARK    5  A    between atoms: C_4  and  C_5
REMARK    6  A    between atoms: C_6  and  C_7
REMARK    7  A    between atoms: C_7  and  C_8
REMARK    8  A    between atoms: C_8  and  C_9
REMARK    9  A    between atoms: C_9  and  O_10
REMARK   10  A    between atoms: O_10  and  C_11
REMARK   11  A    between atoms: C_11  and  C_13
REMARK   12  A    between atoms: C_13  and  C_14
REMARK   13  A    between atoms: C_14  and  C_15
REMARK   14  A    between atoms: C_14  and  C_16
REMARK   15  A    between atoms: C_16  and  C_17
REMARK   16  A    between atoms: C_17  and  C_18
REMARK   17  A    between atoms: C_19  and  C_20
REMARK   18  A    between atoms: C_20  and  O_21
REMARK   19  A    between atoms: C_25  and  C_26
REMARK   20  A    between atoms: C_25  and  C_27
REMARK   21  A    between atoms: C_31  and  C_32
REMARK                            x       y       z     vdW  Elec       q    Type
REMARK                         _______ _______ _______ _____ _____    ______ ____
ROOT
ATOM      1  C   UNL     1      43.375 -18.052 -37.266  0.00  0.00    -0.049 C 
ENDROOT
BRANCH   1   2
ATOM      2  C   UNL     1      44.110 -17.042 -38.178  0.00  0.00    -0.034 C 
ATOM      3  C   UNL     1      43.938 -17.406 -39.658  0.00  0.00    -0.062 C 
BRANCH   2   4
ATOM      4  C   UNL     1      45.585 -16.885 -37.784  0.00  0.00    +0.048 C 
BRANCH   4   5
ATOM      5  C   UNL     1      46.569 -17.363 -38.827  0.00  0.00    +0.307 C 
ATOM      6  O   UNL     1      47.015 -16.584 -39.667  0.00  0.00    -0.251 OA
BRANCH   5   7
ATOM      7  O   UNL     1      46.957 -18.655 -38.826  0.00  0.00    -0.465 OA
BRANCH   7   8
ATOM      8  C   UNL     1      46.822 -19.563 -37.719  0.00  0.00    +0.092 C 
BRANCH   8   9
ATOM      9  C   UNL     1      46.372 -20.923 -38.256  0.00  0.00    -0.017 C 
BRANCH   9  10
ATOM     10  C   UNL     1      44.991 -20.871 -38.922  0.00  0.00    -0.037 C 
BRANCH  10  11
ATOM     11  C   UNL     1      45.057 -21.395 -40.365  0.00  0.00    -0.001 C 
BRANCH  11  12
ATOM     12  N   UNL     1      46.204 -20.849 -41.110  0.00  0.00    -0.303 N 
ATOM     13  H   UNL     1      46.846 -20.488 -40.404  0.00  0.00    +0.000 HD
BRANCH  12  15
ATOM     14  C   UNL     1      44.560 -19.996 -42.800  0.00  0.00    -0.052 C 
ATOM     15  C   UNL     1      45.822 -19.728 -41.986  0.00  0.00    -0.004 C 
ENDBRANCH  12  15
BRANCH  12  16
ATOM     16  C   UNL     1      46.914 -21.885 -41.881  0.00  0.00    -0.004 C 
ATOM     17  C   UNL     1      48.308 -22.078 -41.301  0.00  0.00    -0.052 C 
ENDBRANCH  12  16
ENDBRANCH  11  12
ENDBRANCH  10  11
ENDBRANCH   9  10
ENDBRANCH   8   9
ENDBRANCH   7   8
ENDBRANCH   5   7
ENDBRANCH   4   5
ENDBRANCH   2   4
ENDBRANCH   1   2
BRANCH   1  18
ATOM     18  C   UNL     1      43.195 -17.604 -35.800  0.00  0.00    -0.046 C 
BRANCH  18  19
ATOM     19  C   UNL     1      42.645 -18.757 -34.846  0.00  0.00    -0.012 C 
ATOM     20  C   UNL     1      43.626 -19.920 -35.037  0.00  0.00    -0.045 C 
ATOM     21  C   UNL     1      43.153 -20.942 -35.752  0.00  0.00    -0.082 C 
ATOM     22  C   UNL     1      41.698 -20.893 -36.045  0.00  0.00    -0.031 C 
ATOM     23  C   UNL     1      40.929 -20.130 -34.838  0.00  0.00    -0.027 C 
ATOM     24  C   UNL     1      39.440 -20.941 -34.865  0.00  0.00    -0.031 C 
ATOM     25  C   UNL     1      39.593 -22.385 -34.309  0.00  0.00    -0.060 C 
ATOM     26  C   UNL     1      38.804 -21.023 -36.276  0.00  0.00    -0.060 C 
ATOM     27  C   UNL     1      38.405 -20.216 -33.967  0.00  0.00    -0.048 C 
ATOM     28  C   UNL     1      39.110 -19.674 -32.755  0.00  0.00    -0.052 C 
ATOM     29  C   UNL     1      40.344 -18.901 -33.216  0.00  0.00    -0.047 C 
ATOM     30  C   UNL     1      40.790 -19.150 -34.982  0.00  0.00    -0.022 C 
ATOM     31  C   UNL     1      40.650 -18.171 -35.125  0.00  0.00    -0.059 C 
BRANCH  20  32
ATOM     32  C   UNL     1      45.009 -19.802 -34.459  0.00  0.00    +0.066 C 
BRANCH  32  33
ATOM     33  O   UNL     1      45.400 -20.995 -33.795  0.00  0.00    -0.391 OA
ATOM     34  H   UNL     1      45.354 -20.860 -32.835  0.00  0.00    +0.000 HD
ENDBRANCH  32  33
ENDBRANCH  20  32
ENDBRANCH  18  19
ENDBRANCH   1  18
TORSDOF 15
ENDMDL
MODEL 20
REMARK VINA RESULT:    -5.059     17.337     21.523
REMARK INTER + INTRA:         -11.691
REMARK INTER:                  -9.285
REMARK INTRA:                  -2.405
REMARK UNBOUND:                -2.344
REMARK  Name = cpd299.pdb
REMARK  21 active torsions:
REMARK  status: ('A' for Active; 'I' for Inactive)
REMARK    1  A    between atoms: C_1  and  C_2
REMARK    2  A    between atoms: C_2  and  N_3
REMARK    3  A    between atoms: N_3  and  C_4
REMARK    4  A    between atoms: N_3  and  C_6
REMARK    5  A    between atoms: C_4  and  C_5
REMARK    6  A    between atoms: C_6  and  C_7
REMARK    7  A    between atoms: C_7  and  C_8
REMARK    8  A    between atoms: C_8  and  C_9
REMARK    9  A    between atoms: C_9  and  O_10
REMARK   10  A    between atoms: O_10  and  C_11
REMARK   11  A    between atoms: C_11  and  C_13
REMARK   12  A    between atoms: C_13  and  C_14
REMARK   13  A    between atoms: C_14  and  C_15
REMARK   14  A    between atoms: C_14  and  C_16
REMARK   15  A    between atoms: C_16  and  C_17
REMARK   16  A    between atoms: C_17  and  C_18
REMARK   17  A    between atoms: C_19  and  C_20
REMARK   18  A    between atoms: C_20  and  O_21
REMARK   19  A    between atoms: C_25  and  C_26
REMARK   20  A    between atoms: C_25  and  C_27
REMARK   21  A    between atoms: C_31  and  C_32
REMARK                            x       y       z     vdW  Elec       q    Type
REMARK                         _______ _______ _______ _____ _____    ______ ____
ROOT
ATOM      1  C   UNL     1      44.836 -17.979 -33.509  0.00  0.00    -0.049 C 
ENDROOT
BRANCH   1   2
ATOM      2  C   UNL     1      45.049 -18.508 -34.947  0.00  0.00    -0.034 C 
ATOM      3  C   UNL     1      46.348 -19.316 -35.053  0.00  0.00    -0.062 C 
BRANCH   2   4
ATOM      4  C   UNL     1      44.978 -17.380 -35.986  0.00  0.00    +0.048 C 
BRANCH   4   5
ATOM      5  C   UNL     1      44.040 -17.646 -37.141  0.00  0.00    +0.307 C 
ATOM      6  O   UNL     1      43.029 -16.962 -37.293  0.00  0.00    -0.251 OA
BRANCH   5   7
ATOM      7  O   UNL     1      44.322 -18.641 -38.005  0.00  0.00    -0.465 OA
BRANCH   7   8
ATOM      8  C   UNL     1      45.274 -18.564 -39.081  0.00  0.00    +0.092 C 
BRANCH   8   9
ATOM      9  C   UNL     1      46.283 -19.703 -38.923  0.00  0.00    -0.017 C 
BRANCH   9  10
ATOM     10  C   UNL     1      45.632 -21.089 -39.019  0.00  0.00    -0.037 C 
BRANCH  10  11
ATOM     11  C   UNL     1      46.443 -22.012 -39.944  0.00  0.00    -0.001 C 
BRANCH  11  12
ATOM     12  N   UNL     1      46.654 -21.428 -41.278  0.00  0.00    -0.303 N 
ATOM     13  H   UNL     1      46.712 -20.419 -41.132  0.00  0.00    +0.000 HD
BRANCH  12  15
ATOM     14  C   UNL     1      44.822 -20.417 -42.660  0.00  0.00    -0.052 C 
ATOM     15  C   UNL     1      45.526 -21.686 -42.190  0.00  0.00    -0.004 C 
ENDBRANCH  12  15
BRANCH  12  16
ATOM     16  C   UNL     1      47.920 -21.871 -41.888  0.00  0.00    -0.004 C 
ATOM     17  C   UNL     1      47.930 -23.390 -41.979  0.00  0.00    -0.052 C 
ENDBRANCH  12  16
ENDBRANCH  11  12
ENDBRANCH  10  11
ENDBRANCH   9  10
ENDBRANCH   8   9
ENDBRANCH   7   8
ENDBRANCH   5   7
ENDBRANCH   4   5
ENDBRANCH   2   4
ENDBRANCH   1   2
BRANCH   1  18
ATOM     18  C   UNL     1      43.550 -18.472 -32.812  0.00  0.00    -0.046 C 
BRANCH  18  19
ATOM     19  C   UNL     1      42.308 -18.619 -33.802  0.00  0.00    -0.012 C 
ATOM     20  C   UNL     1      41.371 -17.467 -33.423  0.00  0.00    -0.045 C 
ATOM     21  C   UNL     1      40.274 -17.830 -32.758  0.00  0.00    -0.082 C 
ATOM     22  C   UNL     1      40.023 -19.293 -32.696  0.00  0.00    -0.031 C 
ATOM     23  C   UNL     1      40.613 -19.998 -34.031  0.00  0.00    -0.027 C 
ATOM     24  C   UNL     1      39.514 -21.278 -34.211  0.00  0.00    -0.031 C 
ATOM     25  C   UNL     1      38.132 -20.750 -34.688  0.00  0.00    -0.060 C 
ATOM     26  C   UNL     1      39.304 -22.101 -32.913  0.00  0.00    -0.060 C 
ATOM     27  C   UNL     1      40.012 -22.282 -35.281  0.00  0.00    -0.048 C 
ATOM     28  C   UNL     1      40.687 -21.517 -36.386  0.00  0.00    -0.052 C 
ATOM     29  C   UNL     1      41.696 -20.555 -35.765  0.00  0.00    -0.047 C 
ATOM     30  C   UNL     1      41.543 -20.354 -33.943  0.00  0.00    -0.022 C 
ATOM     31  C   UNL     1      42.474 -20.709 -33.855  0.00  0.00    -0.059 C 
BRANCH  20  32
ATOM     32  C   UNL     1      41.770 -16.062 -33.782  0.00  0.00    +0.066 C 
BRANCH  32  33
ATOM     33  O   UNL     1      42.038 -15.284 -32.624  0.00  0.00    -0.391 OA
ATOM     34  H   UNL     1      42.906 -15.529 -32.264  0.00  0.00    +0.000 HD
ENDBRANCH  32  33
ENDBRANCH  20  32
ENDBRANCH  18  19
ENDBRANCH   1  18
TORSDOF 15
ENDMDL
