@<TRIPOS>MOLECULE
*****
 32 33 0 0 0
SMALL
GASTEIGER

@<TRIPOS>ATOM
      1 C          -6.9282   -9.0000    0.0000 C.3     1  UNL1        0.0188
      2 C          -6.0622   -9.5000    0.0000 C.3     1  UNL1        0.0721
      3 N          -5.1962   -9.0000    0.0000 N.3     1  UNL1       -0.2727
      4 C          -4.3301   -9.5000    0.0000 C.3     1  UNL1        0.0721
      5 C          -3.4641   -9.0000    0.0000 C.3     1  UNL1        0.0188
      6 C          -5.1962   -8.0000    0.0000 C.3     1  UNL1        0.0722
      7 C          -4.3301   -7.5000    0.0000 C.3     1  UNL1        0.0212
      8 C          -4.3301   -6.5000    0.0000 C.3     1  UNL1        0.0489
      9 C          -3.4641   -6.0000    0.0000 C.3     1  UNL1        0.2085
     10 O          -3.4641   -5.0000    0.0000 O.3     1  UNL1       -0.4485
     11 C          -2.5981   -4.5000    0.0000 C.2     1  UNL1        0.3170
     12 O          -1.7321   -5.0000    0.0000 O.2     1  UNL1       -0.2501
     13 C          -2.5981   -3.5000    0.0000 C.3     1  UNL1        0.1096
     14 C          -1.7321   -3.0000    0.0000 C.3     1  UNL1        0.0111
     15 C          -0.8660   -3.5000    0.0000 C.3     1  UNL1        0.0006
     16 C          -1.7321   -2.0000    0.0000 C.3     1  UNL1        0.0009
     17 C          -0.8660   -1.5000    0.0000 C.3     1  UNL1        0.0041
     18 C          -0.8660   -0.5000    0.0000 C.3     1  UNL1        0.0205
     19 C          -1.7321   -0.0000    0.0000 C.2     1  UNL1       -0.0162
     20 C          -2.5981   -0.5000    0.0000 C.3     1  UNL1        0.2041
     21 O          -3.4641   -0.0000    0.0000 O.3     1  UNL1       -0.2155
     22 C          -1.7321    1.0000    0.0000 C.2     1  UNL1       -0.0321
     23 C          -0.8660    1.5000    0.0000 C.3     1  UNL1        0.0255
     24 C          -0.0000    1.0000    0.0000 C.3     1  UNL1        0.0046
     25 C           0.8660    1.5000    0.0000 C.3     1  UNL1        0.0003
     26 C           1.3660    2.3660    0.0000 C.3     1  UNL1        0.0000
     27 C           0.3660    2.3660    0.0000 C.3     1  UNL1        0.0000
     28 C           1.7321    1.0000    0.0000 C.3     1  UNL1        0.0000
     29 C           1.7321    0.0000    0.0000 C.3     1  UNL1        0.0000
     30 C           0.8660   -0.5000    0.0000 C.3     1  UNL1        0.0003
     31 C           0.0000   -0.0000    0.0000 C.3     1  UNL1        0.0038
     32 C           0.0000   -1.0000    0.0000 C.3     1  UNL1        0.0003
@<TRIPOS>BOND
     1     1     2    1
     2     2     3    1
     3     3     4    1
     4     4     5    1
     5     3     6    1
     6     6     7    1
     7     7     8    1
     8     8     9    1
     9     9    10    1
    10    10    11    1
    11    11    12    2
    12    11    13    1
    13    13    14    1
    14    14    15    1
    15    14    16    1
    16    16    17    1
    17    17    18    1
    18    18    19    1
    19    19    20    1
    20    20    21    1
    21    19    22    2
    22    22    23    1
    23    23    24    1
    24    24    25    1
    25    25    26    1
    26    25    27    1
    27    25    28    1
    28    28    29    1
    29    29    30    1
    30    30    31    1
    31    18    31    1
    32    24    31    1
    33    31    32    1
