REMARK  Name = cpd222.pdb
REMARK  5 active torsions:
REMARK  status: ('A' for Active; 'I' for Inactive)
REMARK    1  A    between atoms: C_1  and  N_2
REMARK    2  A    between atoms: N_2  and  C_3
REMARK    3  A    between atoms: C_7  and  O_8
REMARK    4  A    between atoms: C_7  and  C_9
REMARK    5  A    between atoms: C_12  and  N_13
REMARK                            x       y       z     vdW  Elec       q    Type
REMARK                         _______ _______ _______ _____ _____    ______ ____
ROOT
ATOM      1  C   UNL     1       0.560   0.134   1.266  0.00  0.00    -0.100 C 
ATOM      2  N   UNL     1       1.262  -0.447   0.047  0.00  0.00    +0.381 N 
ATOM      3  C   UNL     1       2.599   0.275  -0.118  0.00  0.00    -0.100 C 
ATOM      4  C   UNL     1       1.524  -1.954   0.203  0.00  0.00    -0.064 C 
ATOM      5  C   UNL     1       0.224  -2.756   0.101  0.00  0.00    +0.037 C 
ATOM      6  O   UNL     1      -0.462  -2.539  -1.134  0.00  0.00    -0.348 OA
ATOM      7  C   UNL     1      -0.833  -1.176  -1.392  0.00  0.00    +0.179 C 
ATOM      8  C   UNL     1       0.430  -0.245  -1.250  0.00  0.00    -0.029 C 
ENDROOT
BRANCH   7   9
ATOM      9  C   UNL     1      -2.080  -0.751  -0.620  0.00  0.00    +0.009 A 
ATOM     10  C   UNL     1      -2.943  -1.704  -0.053  0.00  0.00    -0.052 A 
ATOM     11  C   UNL     1      -4.104  -1.318   0.627  0.00  0.00    -0.041 A 
ATOM     12  C   UNL     1      -4.433   0.027   0.777  0.00  0.00    +0.025 A 
ATOM     13  C   UNL     1      -3.636   0.974   0.136  0.00  0.00    -0.041 A 
ATOM     14  C   UNL     1      -2.473   0.596  -0.548  0.00  0.00    -0.052 A 
BRANCH  12  15
ATOM     15  N   UNL     1      -5.659   0.396   1.328  0.00  0.00    -0.358 N 
ATOM     16  H   UNL     1      -6.218  -0.277   1.780  0.00  0.00    +0.000 HD
ATOM     17  H   UNL     1      -5.966   1.329   1.265  0.00  0.00    +0.000 HD
ENDBRANCH  12  15
ENDBRANCH   7   9
BRANCH   7  18
ATOM     18  O   UNL     1      -1.187  -1.132  -2.776  0.00  0.00    -0.362 OA
ATOM     19  H   UNL     1      -1.965  -1.691  -2.929  0.00  0.00    +0.000 HD
ENDBRANCH   7  18
TORSDOF 3
