REMARK  Name = cpd148.pdb
REMARK  11 active torsions:
REMARK  status: ('A' for Active; 'I' for Inactive)
REMARK    1  A    between atoms: C_2  and  C_3
REMARK    2  A    between atoms: C_3  and  S_4
REMARK    3  A    between atoms: S_4  and  C_5
REMARK    4  A    between atoms: C_5  and  C_6
REMARK    5  A    between atoms: C_6  and  N_7
REMARK    6  A    between atoms: C_6  and  C_29
REMARK    7  A    between atoms: C_8  and  C_10
REMARK    8  A    between atoms: C_10  and  C_11
REMARK    9  A    between atoms: C_11  and  C_12
REMARK   10  A    between atoms: C_12  and  N_13
REMARK   11  A    between atoms: N_13  and  C_14
REMARK                            x       y       z     vdW  Elec       q    Type
REMARK                         _______ _______ _______ _____ _____    ______ ____
ROOT
ATOM      1  N   UNL A   1       3.357   2.016   0.210  0.00  0.00    -0.303 N 
ATOM      2  C   UNL A   1       4.026   2.232   1.386  0.00  0.00    +0.214 C 
ATOM      3  O   UNL A   1       3.602   2.976   2.266  0.00  0.00    -0.276 OA
ATOM      4  H   UNL A   1       3.780   1.462  -0.485  0.00  0.00    +0.000 HD
ENDROOT
BRANCH   1   5
ATOM      5  C   UNL A   1       2.034   2.583  -0.043  0.00  0.00    +0.109 C 
BRANCH   5   6
ATOM      6  C   UNL A   1       1.053   1.395  -0.131  0.00  0.00    +0.240 C 
ATOM      7  O   UNL A   1       1.461   0.285  -0.467  0.00  0.00    -0.273 OA
ATOM      8  N   UNL A   1      -0.252   1.749   0.130  0.00  0.00    -0.263 N 
ATOM      9  C   UNL A   1      -1.354   0.931   0.087  0.00  0.00    +0.165 A 
ATOM     10  N   UNL A   1      -2.538   1.397   0.400  0.00  0.00    -0.225 NA
ATOM     11  C   UNL A   1      -3.481   0.387   0.279  0.00  0.00    +0.080 A 
ATOM     12  C   UNL A   1      -4.862   0.506   0.535  0.00  0.00    -0.035 A 
ATOM     13  C   UNL A   1      -5.698  -0.605   0.371  0.00  0.00    -0.060 A 
ATOM     14  C   UNL A   1      -5.175  -1.826  -0.042  0.00  0.00    -0.061 A 
ATOM     15  C   UNL A   1      -3.809  -1.970  -0.303  0.00  0.00    -0.046 A 
ATOM     16  C   UNL A   1      -2.981  -0.848  -0.136  0.00  0.00    +0.041 A 
ATOM     17  S   UNL A   1      -1.284  -0.703  -0.375  0.00  0.00    -0.052 S 
ATOM     18  H   UNL A   1      -0.412   2.689   0.374  0.00  0.00    +0.000 HD
ENDBRANCH   5   6
BRANCH   5  19
ATOM     19  C   UNL A   1       1.972   3.368  -1.361  0.00  0.00    +0.022 C 
BRANCH  19  20
ATOM     20  S   UNL A   1       3.291   4.616  -1.614  0.00  0.00    -0.146 S 
BRANCH  20  21
ATOM     21  C   UNL A   1       3.011   5.684  -0.166  0.00  0.00    +0.055 C 
BRANCH  21  23
ATOM     22  C   UNL A   1       4.590   7.836  -0.252  0.00  0.00    -0.118 C 
ATOM     23  C   UNL A   1       3.877   6.869  -0.217  0.00  0.00    -0.095 C 
ENDBRANCH  21  23
ENDBRANCH  20  21
ENDBRANCH  19  20
ENDBRANCH   5  19
ENDBRANCH   1   5
BRANCH   2  24
ATOM     24  C   UNL A   1       5.315   1.453   1.545  0.00  0.00    +0.025 C 
BRANCH  24  25
ATOM     25  C   UNL A   1       6.221   1.548   0.321  0.00  0.00    -0.029 C 
BRANCH  25  26
ATOM     26  C   UNL A   1       7.628   1.043   0.630  0.00  0.00    +0.010 C 
BRANCH  26  27
ATOM     27  N   UNL A   1       8.381   0.948  -0.628  0.00  0.00    -0.343 N 
ATOM     28  H   UNL A   1       8.011   1.174  -1.512  0.00  0.00    +0.000 HD
BRANCH  27  29
ATOM     29  C   UNL A   1       9.714   0.488  -0.411  0.00  0.00    +0.041 A 
ATOM     30  C   UNL A   1       9.965  -0.899  -0.446  0.00  0.00    -0.005 A 
ATOM     31  C   UNL A   1      11.268  -1.327  -0.192  0.00  0.00    +0.047 A 
ATOM     32  N   UNL A   1      12.277  -0.481   0.124  0.00  0.00    -0.251 NA
ATOM     33  C   UNL A   1      12.036   0.834   0.172  0.00  0.00    +0.074 A 
ATOM     34  C   UNL A   1      13.096   1.669   0.491  0.00  0.00    -0.017 A 
ATOM     35  C   UNL A   1      12.934   3.049   0.568  0.00  0.00    +0.043 A 
ATOM     36 CL   UNL A   1      14.275   4.051   0.966  0.00  0.00    -0.083 Cl
ATOM     37  C   UNL A   1      11.695   3.622   0.327  0.00  0.00    -0.043 A 
ATOM     38  C   UNL A   1      10.616   2.799   0.005  0.00  0.00    -0.049 A 
ATOM     39  C   UNL A   1      10.764   1.391  -0.081  0.00  0.00    +0.022 A 
ATOM     40  C   UNL A   1      11.636  -2.789  -0.194  0.00  0.00    -0.010 C 
ATOM     41  C   UNL A   1      10.658  -3.657  -0.977  0.00  0.00    -0.047 C 
ATOM     42  C   UNL A   1       9.232  -3.337  -0.554  0.00  0.00    -0.049 C 
ATOM     43  C   UNL A   1       8.895  -1.880  -0.869  0.00  0.00    -0.024 C 
ENDBRANCH  27  29
ENDBRANCH  26  27
ENDBRANCH  25  26
ENDBRANCH  24  25
ENDBRANCH   2  24
TORSDOF 11
