MODEL 1
REMARK VINA RESULT:    -8.103      0.000      0.000
REMARK INTER + INTRA:         -15.734
REMARK INTER:                 -13.314
REMARK INTRA:                  -2.420
REMARK UNBOUND:                -2.420
REMARK  Name = cpd148.pdb
REMARK  11 active torsions:
REMARK  status: ('A' for Active; 'I' for Inactive)
REMARK    1  A    between atoms: C_2  and  C_3
REMARK    2  A    between atoms: C_3  and  S_4
REMARK    3  A    between atoms: S_4  and  C_5
REMARK    4  A    between atoms: C_5  and  C_6
REMARK    5  A    between atoms: C_6  and  N_7
REMARK    6  A    between atoms: C_6  and  C_29
REMARK    7  A    between atoms: C_8  and  C_10
REMARK    8  A    between atoms: C_10  and  C_11
REMARK    9  A    between atoms: C_11  and  C_12
REMARK   10  A    between atoms: C_12  and  N_13
REMARK   11  A    between atoms: N_13  and  C_14
REMARK                            x       y       z     vdW  Elec       q    Type
REMARK                         _______ _______ _______ _____ _____    ______ ____
ROOT
ATOM      1  N   UNL A   1      32.294 -34.193 -29.084  0.00  0.00    -0.303 N 
ATOM      2  C   UNL A   1      32.745 -32.976 -29.523  0.00  0.00    +0.214 C 
ATOM      3  O   UNL A   1      31.991 -32.064 -29.849  0.00  0.00    -0.276 OA
ATOM      4  H   UNL A   1      32.946 -34.907 -28.902  0.00  0.00    +0.000 HD
ENDROOT
BRANCH   1   5
ATOM      5  C   UNL A   1      30.872 -34.462 -28.878  0.00  0.00    +0.109 C 
BRANCH   5   6
ATOM      6  C   UNL A   1      30.774 -35.429 -27.679  0.00  0.00    +0.240 C 
ATOM      7  O   UNL A   1      29.790 -36.154 -27.553  0.00  0.00    -0.273 OA
ATOM      8  N   UNL A   1      31.832 -35.316 -26.804  0.00  0.00    -0.263 N 
ATOM      9  C   UNL A   1      32.008 -36.004 -25.628  0.00  0.00    +0.165 A 
ATOM     10  N   UNL A   1      33.089 -35.823 -24.910  0.00  0.00    -0.225 NA
ATOM     11  C   UNL A   1      33.033 -36.622 -23.778  0.00  0.00    +0.080 A 
ATOM     12  C   UNL A   1      34.015 -36.704 -22.771  0.00  0.00    -0.035 A 
ATOM     13  C   UNL A   1      33.823 -37.561 -21.680  0.00  0.00    -0.060 A 
ATOM     14  C   UNL A   1      32.670 -38.332 -21.584  0.00  0.00    -0.061 A 
ATOM     15  C   UNL A   1      31.680 -38.269 -22.570  0.00  0.00    -0.046 A 
ATOM     16  C   UNL A   1      31.884 -37.405 -23.658  0.00  0.00    +0.041 A 
ATOM     17  S   UNL A   1      30.868 -37.104 -25.013  0.00  0.00    -0.052 S 
ATOM     18  H   UNL A   1      32.537 -34.674 -27.047  0.00  0.00    +0.000 HD
ENDBRANCH   5   6
BRANCH   5  19
ATOM     19  C   UNL A   1      30.216 -35.126 -30.097  0.00  0.00    +0.022 C 
BRANCH  19  20
ATOM     20  S   UNL A   1      31.360 -35.718 -31.401  0.00  0.00    -0.146 S 
BRANCH  20  21
ATOM     21  C   UNL A   1      31.647 -37.424 -30.832  0.00  0.00    +0.055 C 
BRANCH  21  23
ATOM     22  C   UNL A   1      33.899 -38.411 -31.874  0.00  0.00    -0.118 C 
ATOM     23  C   UNL A   1      32.888 -37.963 -31.404  0.00  0.00    -0.095 C 
ENDBRANCH  21  23
ENDBRANCH  20  21
ENDBRANCH  19  20
ENDBRANCH   5  19
ENDBRANCH   1   5
BRANCH   2  24
ATOM     24  C   UNL A   1      34.251 -32.817 -29.540  0.00  0.00    +0.025 C 
BRANCH  24  25
ATOM     25  C   UNL A   1      34.845 -32.943 -30.940  0.00  0.00    -0.029 C 
BRANCH  25  26
ATOM     26  C   UNL A   1      36.306 -33.383 -30.886  0.00  0.00    +0.010 C 
BRANCH  26  27
ATOM     27  N   UNL A   1      36.422 -34.709 -31.509  0.00  0.00    -0.343 N 
ATOM     28  H   UNL A   1      36.048 -34.940 -32.389  0.00  0.00    +0.000 HD
BRANCH  27  29
ATOM     29  C   UNL A   1      37.144 -35.619 -30.680  0.00  0.00    +0.041 A 
ATOM     30  C   UNL A   1      38.493 -35.889 -30.987  0.00  0.00    -0.005 A 
ATOM     31  C   UNL A   1      39.166 -36.812 -30.186  0.00  0.00    +0.047 A 
ATOM     32  N   UNL A   1      38.574 -37.480 -29.168  0.00  0.00    -0.251 NA
ATOM     33  C   UNL A   1      37.289 -37.235 -28.886  0.00  0.00    +0.074 A 
ATOM     34  C   UNL A   1      36.720 -37.933 -27.832  0.00  0.00    -0.017 A 
ATOM     35  C   UNL A   1      35.389 -37.744 -27.472  0.00  0.00    +0.043 A 
ATOM     36 CL   UNL A   1      34.720 -38.628 -26.156  0.00  0.00    -0.083 Cl
ATOM     37  C   UNL A   1      34.597 -36.846 -28.170  0.00  0.00    -0.043 A 
ATOM     38  C   UNL A   1      35.151 -36.134 -29.234  0.00  0.00    -0.049 A 
ATOM     39  C   UNL A   1      36.506 -36.312 -29.613  0.00  0.00    +0.022 A 
ATOM     40  C   UNL A   1      40.606 -37.179 -30.440  0.00  0.00    -0.010 C 
ATOM     41  C   UNL A   1      41.365 -36.129 -31.243  0.00  0.00    -0.047 C 
ATOM     42  C   UNL A   1      40.558 -35.738 -32.472  0.00  0.00    -0.049 C 
ATOM     43  C   UNL A   1      39.224 -35.116 -32.061  0.00  0.00    -0.024 C 
ENDBRANCH  27  29
ENDBRANCH  26  27
ENDBRANCH  25  26
ENDBRANCH  24  25
ENDBRANCH   2  24
TORSDOF 11
ENDMDL
MODEL 2
REMARK VINA RESULT:    -8.063      3.044      5.761
REMARK INTER + INTRA:         -15.667
REMARK INTER:                 -13.906
REMARK INTRA:                  -1.762
REMARK UNBOUND:                -2.420
REMARK  Name = cpd148.pdb
REMARK  11 active torsions:
REMARK  status: ('A' for Active; 'I' for Inactive)
REMARK    1  A    between atoms: C_2  and  C_3
REMARK    2  A    between atoms: C_3  and  S_4
REMARK    3  A    between atoms: S_4  and  C_5
REMARK    4  A    between atoms: C_5  and  C_6
REMARK    5  A    between atoms: C_6  and  N_7
REMARK    6  A    between atoms: C_6  and  C_29
REMARK    7  A    between atoms: C_8  and  C_10
REMARK    8  A    between atoms: C_10  and  C_11
REMARK    9  A    between atoms: C_11  and  C_12
REMARK   10  A    between atoms: C_12  and  N_13
REMARK   11  A    between atoms: N_13  and  C_14
REMARK                            x       y       z     vdW  Elec       q    Type
REMARK                         _______ _______ _______ _____ _____    ______ ____
ROOT
ATOM      1  N   UNL A   1      32.296 -34.058 -30.851  0.00  0.00    -0.303 N 
ATOM      2  C   UNL A   1      32.766 -33.376 -29.759  0.00  0.00    +0.214 C 
ATOM      3  O   UNL A   1      32.187 -33.375 -28.676  0.00  0.00    -0.276 OA
ATOM      4  H   UNL A   1      32.769 -33.966 -31.710  0.00  0.00    +0.000 HD
ENDROOT
BRANCH   1   5
ATOM      5  C   UNL A   1      31.116 -34.916 -30.779  0.00  0.00    +0.109 C 
BRANCH   5   6
ATOM      6  C   UNL A   1      31.300 -36.011 -31.851  0.00  0.00    +0.240 C 
ATOM      7  O   UNL A   1      30.606 -36.000 -32.866  0.00  0.00    -0.273 OA
ATOM      8  N   UNL A   1      32.227 -36.966 -31.497  0.00  0.00    -0.263 N 
ATOM      9  C   UNL A   1      32.577 -38.083 -32.215  0.00  0.00    +0.165 A 
ATOM     10  N   UNL A   1      33.511 -38.889 -31.774  0.00  0.00    -0.225 NA
ATOM     11  C   UNL A   1      33.681 -39.936 -32.667  0.00  0.00    +0.080 A 
ATOM     12  C   UNL A   1      34.598 -40.999 -32.536  0.00  0.00    -0.035 A 
ATOM     13  C   UNL A   1      34.659 -41.990 -33.523  0.00  0.00    -0.060 A 
ATOM     14  C   UNL A   1      33.823 -41.932 -34.633  0.00  0.00    -0.061 A 
ATOM     15  C   UNL A   1      32.905 -40.889 -34.787  0.00  0.00    -0.046 A 
ATOM     16  C   UNL A   1      32.852 -39.902 -33.789  0.00  0.00    +0.041 A 
ATOM     17  S   UNL A   1      31.844 -38.512 -33.687  0.00  0.00    -0.052 S 
ATOM     18  H   UNL A   1      32.689 -36.833 -30.639  0.00  0.00    +0.000 HD
ENDBRANCH   5   6
BRANCH   5  19
ATOM     19  C   UNL A   1      29.815 -34.156 -31.073  0.00  0.00    +0.022 C 
BRANCH  19  20
ATOM     20  S   UNL A   1      30.003 -32.553 -31.943  0.00  0.00    -0.146 S 
BRANCH  20  21
ATOM     21  C   UNL A   1      29.222 -31.434 -30.737  0.00  0.00    +0.055 C 
BRANCH  21  23
ATOM     22  C   UNL A   1      29.400 -28.893 -31.537  0.00  0.00    -0.118 C 
ATOM     23  C   UNL A   1      29.323 -30.038 -31.180  0.00  0.00    -0.095 C 
ENDBRANCH  21  23
ENDBRANCH  20  21
ENDBRANCH  19  20
ENDBRANCH   5  19
ENDBRANCH   1   5
BRANCH   2  24
ATOM     24  C   UNL A   1      34.080 -32.653 -29.968  0.00  0.00    +0.025 C 
BRANCH  24  25
ATOM     25  C   UNL A   1      34.709 -32.947 -31.326  0.00  0.00    -0.029 C 
BRANCH  25  26
ATOM     26  C   UNL A   1      36.148 -33.436 -31.179  0.00  0.00    +0.010 C 
BRANCH  26  27
ATOM     27  N   UNL A   1      36.228 -34.818 -31.671  0.00  0.00    -0.343 N 
ATOM     28  H   UNL A   1      35.824 -35.128 -32.513  0.00  0.00    +0.000 HD
BRANCH  27  29
ATOM     29  C   UNL A   1      36.964 -35.653 -30.779  0.00  0.00    +0.041 A 
ATOM     30  C   UNL A   1      38.284 -36.011 -31.121  0.00  0.00    -0.005 A 
ATOM     31  C   UNL A   1      38.970 -36.860 -30.253  0.00  0.00    +0.047 A 
ATOM     32  N   UNL A   1      38.413 -37.382 -29.134  0.00  0.00    -0.251 NA
ATOM     33  C   UNL A   1      37.155 -37.055 -28.817  0.00  0.00    +0.074 A 
ATOM     34  C   UNL A   1      36.623 -37.603 -27.660  0.00  0.00    -0.017 A 
ATOM     35  C   UNL A   1      35.321 -37.320 -27.257  0.00  0.00    +0.043 A 
ATOM     36 CL   UNL A   1      34.698 -38.019 -25.813  0.00  0.00    -0.083 Cl
ATOM     37  C   UNL A   1      34.522 -36.479 -28.014  0.00  0.00    -0.043 A 
ATOM     38  C   UNL A   1      35.039 -35.918 -29.182  0.00  0.00    -0.049 A 
ATOM     39  C   UNL A   1      36.364 -36.193 -29.606  0.00  0.00    +0.022 A 
ATOM     40  C   UNL A   1      40.381 -37.311 -30.535  0.00  0.00    -0.010 C 
ATOM     41  C   UNL A   1      41.128 -36.392 -31.495  0.00  0.00    -0.047 C 
ATOM     42  C   UNL A   1      40.267 -36.115 -32.719  0.00  0.00    -0.049 C 
ATOM     43  C   UNL A   1      38.979 -35.397 -32.315  0.00  0.00    -0.024 C 
ENDBRANCH  27  29
ENDBRANCH  26  27
ENDBRANCH  25  26
ENDBRANCH  24  25
ENDBRANCH   2  24
TORSDOF 11
ENDMDL
MODEL 3
REMARK VINA RESULT:    -7.731      1.829      3.461
REMARK INTER + INTRA:         -15.123
REMARK INTER:                 -13.941
REMARK INTRA:                  -1.182
REMARK UNBOUND:                -2.420
REMARK  Name = cpd148.pdb
REMARK  11 active torsions:
REMARK  status: ('A' for Active; 'I' for Inactive)
REMARK    1  A    between atoms: C_2  and  C_3
REMARK    2  A    between atoms: C_3  and  S_4
REMARK    3  A    between atoms: S_4  and  C_5
REMARK    4  A    between atoms: C_5  and  C_6
REMARK    5  A    between atoms: C_6  and  N_7
REMARK    6  A    between atoms: C_6  and  C_29
REMARK    7  A    between atoms: C_8  and  C_10
REMARK    8  A    between atoms: C_10  and  C_11
REMARK    9  A    between atoms: C_11  and  C_12
REMARK   10  A    between atoms: C_12  and  N_13
REMARK   11  A    between atoms: N_13  and  C_14
REMARK                            x       y       z     vdW  Elec       q    Type
REMARK                         _______ _______ _______ _____ _____    ______ ____
ROOT
ATOM      1  N   UNL A   1      32.228 -34.121 -28.885  0.00  0.00    -0.303 N 
ATOM      2  C   UNL A   1      32.657 -33.246 -29.848  0.00  0.00    +0.214 C 
ATOM      3  O   UNL A   1      31.923 -32.819 -30.735  0.00  0.00    -0.276 OA
ATOM      4  H   UNL A   1      32.880 -34.480 -28.242  0.00  0.00    +0.000 HD
ENDROOT
BRANCH   1   5
ATOM      5  C   UNL A   1      30.831 -34.537 -28.785  0.00  0.00    +0.109 C 
BRANCH   5   6
ATOM      6  C   UNL A   1      30.726 -35.442 -27.539  0.00  0.00    +0.240 C 
ATOM      7  O   UNL A   1      29.702 -36.091 -27.335  0.00  0.00    -0.273 OA
ATOM      8  N   UNL A   1      31.830 -35.364 -26.719  0.00  0.00    -0.263 N 
ATOM      9  C   UNL A   1      32.016 -36.010 -25.522  0.00  0.00    +0.165 A 
ATOM     10  N   UNL A   1      33.140 -35.874 -24.863  0.00  0.00    -0.225 NA
ATOM     11  C   UNL A   1      33.086 -36.617 -23.693  0.00  0.00    +0.080 A 
ATOM     12  C   UNL A   1      34.108 -36.723 -22.729  0.00  0.00    -0.035 A 
ATOM     13  C   UNL A   1      33.912 -37.516 -21.592  0.00  0.00    -0.060 A 
ATOM     14  C   UNL A   1      32.715 -38.201 -21.407  0.00  0.00    -0.061 A 
ATOM     15  C   UNL A   1      31.686 -38.112 -22.349  0.00  0.00    -0.046 A 
ATOM     16  C   UNL A   1      31.894 -37.313 -23.485  0.00  0.00    +0.041 A 
ATOM     17  S   UNL A   1      30.836 -37.001 -24.805  0.00  0.00    -0.052 S 
ATOM     18  H   UNL A   1      32.564 -34.784 -27.024  0.00  0.00    +0.000 HD
ENDBRANCH   5   6
BRANCH   5  19
ATOM     19  C   UNL A   1      30.365 -35.336 -30.011  0.00  0.00    +0.022 C 
BRANCH  19  20
ATOM     20  S   UNL A   1      31.237 -36.920 -30.314  0.00  0.00    -0.146 S 
BRANCH  20  21
ATOM     21  C   UNL A   1      30.097 -37.697 -31.503  0.00  0.00    +0.055 C 
BRANCH  21  23
ATOM     22  C   UNL A   1      29.943 -36.251 -33.743  0.00  0.00    -0.118 C 
ATOM     23  C   UNL A   1      30.013 -36.906 -32.737  0.00  0.00    -0.095 C 
ENDBRANCH  21  23
ENDBRANCH  20  21
ENDBRANCH  19  20
ENDBRANCH   5  19
ENDBRANCH   1   5
BRANCH   2  24
ATOM     24  C   UNL A   1      34.101 -32.806 -29.719  0.00  0.00    +0.025 C 
BRANCH  24  25
ATOM     25  C   UNL A   1      34.872 -32.908 -31.032  0.00  0.00    -0.029 C 
BRANCH  25  26
ATOM     26  C   UNL A   1      36.254 -33.519 -30.819  0.00  0.00    +0.010 C 
BRANCH  26  27
ATOM     27  N   UNL A   1      36.301 -34.824 -31.494  0.00  0.00    -0.343 N 
ATOM     28  H   UNL A   1      35.842 -35.024 -32.342  0.00  0.00    +0.000 HD
BRANCH  27  29
ATOM     29  C   UNL A   1      37.093 -35.764 -30.770  0.00  0.00    +0.041 A 
ATOM     30  C   UNL A   1      36.562 -36.331 -29.593  0.00  0.00    -0.005 A 
ATOM     31  C   UNL A   1      37.370 -37.217 -28.881  0.00  0.00    +0.047 A 
ATOM     32  N   UNL A   1      38.640 -37.518 -29.245  0.00  0.00    -0.251 NA
ATOM     33  C   UNL A   1      39.149 -36.968 -30.353  0.00  0.00    +0.074 A 
ATOM     34  C   UNL A   1      40.449 -37.306 -30.697  0.00  0.00    -0.017 A 
ATOM     35  C   UNL A   1      41.059 -36.778 -31.831  0.00  0.00    +0.043 A 
ATOM     36 CL   UNL A   1      42.674 -37.223 -32.224  0.00  0.00    -0.083 Cl
ATOM     37  C   UNL A   1      40.373 -35.891 -32.646  0.00  0.00    -0.043 A 
ATOM     38  C   UNL A   1      39.064 -35.538 -32.316  0.00  0.00    -0.049 A 
ATOM     39  C   UNL A   1      38.426 -36.070 -31.166  0.00  0.00    +0.022 A 
ATOM     40  C   UNL A   1      36.900 -37.867 -27.605  0.00  0.00    -0.010 C 
ATOM     41  C   UNL A   1      35.382 -37.895 -27.465  0.00  0.00    -0.047 C 
ATOM     42  C   UNL A   1      34.813 -36.514 -27.750  0.00  0.00    -0.049 C 
ATOM     43  C   UNL A   1      35.126 -36.091 -29.184  0.00  0.00    -0.024 C 
ENDBRANCH  27  29
ENDBRANCH  26  27
ENDBRANCH  25  26
ENDBRANCH  24  25
ENDBRANCH   2  24
TORSDOF 11
ENDMDL
MODEL 4
REMARK VINA RESULT:    -7.703      1.910      2.980
REMARK INTER + INTRA:         -15.076
REMARK INTER:                 -13.064
REMARK INTRA:                  -2.012
REMARK UNBOUND:                -2.420
REMARK  Name = cpd148.pdb
REMARK  11 active torsions:
REMARK  status: ('A' for Active; 'I' for Inactive)
REMARK    1  A    between atoms: C_2  and  C_3
REMARK    2  A    between atoms: C_3  and  S_4
REMARK    3  A    between atoms: S_4  and  C_5
REMARK    4  A    between atoms: C_5  and  C_6
REMARK    5  A    between atoms: C_6  and  N_7
REMARK    6  A    between atoms: C_6  and  C_29
REMARK    7  A    between atoms: C_8  and  C_10
REMARK    8  A    between atoms: C_10  and  C_11
REMARK    9  A    between atoms: C_11  and  C_12
REMARK   10  A    between atoms: C_12  and  N_13
REMARK   11  A    between atoms: N_13  and  C_14
REMARK                            x       y       z     vdW  Elec       q    Type
REMARK                         _______ _______ _______ _____ _____    ______ ____
ROOT
ATOM      1  N   UNL A   1      31.992 -32.896 -30.671  0.00  0.00    -0.303 N 
ATOM      2  C   UNL A   1      32.692 -31.719 -30.622  0.00  0.00    +0.214 C 
ATOM      3  O   UNL A   1      32.186 -30.659 -30.266  0.00  0.00    -0.276 OA
ATOM      4  H   UNL A   1      32.434 -33.700 -31.029  0.00  0.00    +0.000 HD
ENDROOT
BRANCH   1   5
ATOM      5  C   UNL A   1      30.610 -32.995 -30.206  0.00  0.00    +0.109 C 
BRANCH   5   6
ATOM      6  C   UNL A   1      30.543 -34.225 -29.276  0.00  0.00    +0.240 C 
ATOM      7  O   UNL A   1      29.880 -35.207 -29.604  0.00  0.00    -0.273 OA
ATOM      8  N   UNL A   1      31.219 -34.045 -28.090  0.00  0.00    -0.263 N 
ATOM      9  C   UNL A   1      31.305 -34.933 -27.046  0.00  0.00    +0.165 A 
ATOM     10  N   UNL A   1      32.021 -34.644 -25.987  0.00  0.00    -0.225 NA
ATOM     11  C   UNL A   1      31.950 -35.690 -25.079  0.00  0.00    +0.080 A 
ATOM     12  C   UNL A   1      32.592 -35.745 -23.826  0.00  0.00    -0.035 A 
ATOM     13  C   UNL A   1      32.430 -36.872 -23.011  0.00  0.00    -0.060 A 
ATOM     14  C   UNL A   1      31.640 -37.938 -23.430  0.00  0.00    -0.061 A 
ATOM     15  C   UNL A   1      30.992 -37.907 -24.668  0.00  0.00    -0.046 A 
ATOM     16  C   UNL A   1      31.161 -36.770 -25.476  0.00  0.00    +0.041 A 
ATOM     17  S   UNL A   1      30.505 -36.432 -27.029  0.00  0.00    -0.052 S 
ATOM     18  H   UNL A   1      31.691 -33.189 -27.979  0.00  0.00    +0.000 HD
ENDBRANCH   5   6
BRANCH   5  19
ATOM     19  C   UNL A   1      29.615 -33.197 -31.358  0.00  0.00    +0.022 C 
BRANCH  19  20
ATOM     20  S   UNL A   1      28.749 -31.690 -31.943  0.00  0.00    -0.146 S 
BRANCH  20  21
ATOM     21  C   UNL A   1      28.812 -30.672 -30.434  0.00  0.00    +0.055 C 
BRANCH  21  23
ATOM     22  C   UNL A   1      26.535 -30.882 -29.054  0.00  0.00    -0.118 C 
ATOM     23  C   UNL A   1      27.561 -30.791 -29.673  0.00  0.00    -0.095 C 
ENDBRANCH  21  23
ENDBRANCH  20  21
ENDBRANCH  19  20
ENDBRANCH   5  19
ENDBRANCH   1   5
BRANCH   2  24
ATOM     24  C   UNL A   1      34.154 -31.824 -31.001  0.00  0.00    +0.025 C 
BRANCH  24  25
ATOM     25  C   UNL A   1      34.517 -33.181 -31.599  0.00  0.00    -0.029 C 
BRANCH  25  26
ATOM     26  C   UNL A   1      35.881 -33.658 -31.108  0.00  0.00    +0.010 C 
BRANCH  26  27
ATOM     27  N   UNL A   1      36.117 -35.015 -31.620  0.00  0.00    -0.343 N 
ATOM     28  H   UNL A   1      35.803 -35.337 -32.495  0.00  0.00    +0.000 HD
BRANCH  27  29
ATOM     29  C   UNL A   1      36.858 -35.807 -30.692  0.00  0.00    +0.041 A 
ATOM     30  C   UNL A   1      38.199 -36.123 -30.993  0.00  0.00    -0.005 A 
ATOM     31  C   UNL A   1      38.890 -36.931 -30.091  0.00  0.00    +0.047 A 
ATOM     32  N   UNL A   1      38.323 -37.451 -28.976  0.00  0.00    -0.251 NA
ATOM     33  C   UNL A   1      37.046 -37.163 -28.698  0.00  0.00    +0.074 A 
ATOM     34  C   UNL A   1      36.503 -37.707 -27.545  0.00  0.00    -0.017 A 
ATOM     35  C   UNL A   1      35.182 -37.464 -27.181  0.00  0.00    +0.043 A 
ATOM     36 CL   UNL A   1      34.545 -38.157 -25.740  0.00  0.00    -0.083 Cl
ATOM     37  C   UNL A   1      34.374 -36.666 -27.976  0.00  0.00    -0.043 A 
ATOM     38  C   UNL A   1      34.902 -36.109 -29.141  0.00  0.00    -0.049 A 
ATOM     39  C   UNL A   1      36.247 -36.344 -29.525  0.00  0.00    +0.022 A 
ATOM     40  C   UNL A   1      40.323 -37.337 -30.327  0.00  0.00    -0.010 C 
ATOM     41  C   UNL A   1      41.062 -36.410 -31.285  0.00  0.00    -0.047 C 
ATOM     42  C   UNL A   1      40.225 -36.187 -32.536  0.00  0.00    -0.049 C 
ATOM     43  C   UNL A   1      38.903 -35.508 -32.181  0.00  0.00    -0.024 C 
ENDBRANCH  27  29
ENDBRANCH  26  27
ENDBRANCH  25  26
ENDBRANCH  24  25
ENDBRANCH   2  24
TORSDOF 11
ENDMDL
MODEL 5
REMARK VINA RESULT:    -7.376      2.931      4.366
REMARK INTER + INTRA:         -14.539
REMARK INTER:                 -11.365
REMARK INTRA:                  -3.174
REMARK UNBOUND:                -2.420
REMARK  Name = cpd148.pdb
REMARK  11 active torsions:
REMARK  status: ('A' for Active; 'I' for Inactive)
REMARK    1  A    between atoms: C_2  and  C_3
REMARK    2  A    between atoms: C_3  and  S_4
REMARK    3  A    between atoms: S_4  and  C_5
REMARK    4  A    between atoms: C_5  and  C_6
REMARK    5  A    between atoms: C_6  and  N_7
REMARK    6  A    between atoms: C_6  and  C_29
REMARK    7  A    between atoms: C_8  and  C_10
REMARK    8  A    between atoms: C_10  and  C_11
REMARK    9  A    between atoms: C_11  and  C_12
REMARK   10  A    between atoms: C_12  and  N_13
REMARK   11  A    between atoms: N_13  and  C_14
REMARK                            x       y       z     vdW  Elec       q    Type
REMARK                         _______ _______ _______ _____ _____    ______ ____
ROOT
ATOM      1  N   UNL A   1      32.465 -35.867 -33.131  0.00  0.00    -0.303 N 
ATOM      2  C   UNL A   1      32.341 -34.768 -32.322  0.00  0.00    +0.214 C 
ATOM      3  O   UNL A   1      31.331 -34.537 -31.663  0.00  0.00    -0.276 OA
ATOM      4  H   UNL A   1      33.272 -35.962 -33.686  0.00  0.00    +0.000 HD
ENDROOT
BRANCH   1   5
ATOM      5  C   UNL A   1      31.434 -36.901 -33.194  0.00  0.00    +0.109 C 
BRANCH   5   6
ATOM      6  C   UNL A   1      31.714 -37.876 -32.031  0.00  0.00    +0.240 C 
ATOM      7  O   UNL A   1      30.801 -38.218 -31.283  0.00  0.00    -0.273 OA
ATOM      8  N   UNL A   1      33.043 -38.220 -31.920  0.00  0.00    -0.263 N 
ATOM      9  C   UNL A   1      33.610 -39.029 -30.966  0.00  0.00    +0.165 A 
ATOM     10  N   UNL A   1      34.890 -39.304 -31.006  0.00  0.00    -0.225 NA
ATOM     11  C   UNL A   1      35.221 -40.131 -29.943  0.00  0.00    +0.080 A 
ATOM     12  C   UNL A   1      36.503 -40.643 -29.656  0.00  0.00    -0.035 A 
ATOM     13  C   UNL A   1      36.688 -41.472 -28.544  0.00  0.00    -0.060 A 
ATOM     14  C   UNL A   1      35.615 -41.796 -27.719  0.00  0.00    -0.061 A 
ATOM     15  C   UNL A   1      34.334 -41.301 -27.981  0.00  0.00    -0.046 A 
ATOM     16  C   UNL A   1      34.161 -40.469 -29.100  0.00  0.00    +0.041 A 
ATOM     17  S   UNL A   1      32.731 -39.711 -29.681  0.00  0.00    -0.052 S 
ATOM     18  H   UNL A   1      33.652 -37.847 -32.598  0.00  0.00    +0.000 HD
ENDBRANCH   5   6
BRANCH   5  19
ATOM     19  C   UNL A   1      31.470 -37.688 -34.512  0.00  0.00    +0.022 C 
BRANCH  19  20
ATOM     20  S   UNL A   1      30.557 -39.278 -34.522  0.00  0.00    -0.146 S 
BRANCH  20  21
ATOM     21  C   UNL A   1      31.703 -40.306 -35.495  0.00  0.00    +0.055 C 
BRANCH  21  23
ATOM     22  C   UNL A   1      33.851 -40.952 -34.046  0.00  0.00    -0.118 C 
ATOM     23  C   UNL A   1      32.887 -40.660 -34.702  0.00  0.00    -0.095 C 
ENDBRANCH  21  23
ENDBRANCH  20  21
ENDBRANCH  19  20
ENDBRANCH   5  19
ENDBRANCH   1   5
BRANCH   2  24
ATOM     24  C   UNL A   1      33.560 -33.872 -32.263  0.00  0.00    +0.025 C 
BRANCH  24  25
ATOM     25  C   UNL A   1      33.795 -33.278 -30.877  0.00  0.00    -0.029 C 
BRANCH  25  26
ATOM     26  C   UNL A   1      35.086 -33.806 -30.258  0.00  0.00    +0.010 C 
BRANCH  26  27
ATOM     27  N   UNL A   1      35.353 -35.147 -30.795  0.00  0.00    -0.343 N 
ATOM     28  H   UNL A   1      35.016 -35.472 -31.661  0.00  0.00    +0.000 HD
BRANCH  27  29
ATOM     29  C   UNL A   1      36.162 -35.919 -29.909  0.00  0.00    +0.041 A 
ATOM     30  C   UNL A   1      37.497 -36.189 -30.273  0.00  0.00    -0.005 A 
ATOM     31  C   UNL A   1      38.256 -36.979 -29.410  0.00  0.00    +0.047 A 
ATOM     32  N   UNL A   1      37.758 -37.523 -28.274  0.00  0.00    -0.251 NA
ATOM     33  C   UNL A   1      36.487 -37.279 -27.935  0.00  0.00    +0.074 A 
ATOM     34  C   UNL A   1      36.016 -37.847 -26.761  0.00  0.00    -0.017 A 
ATOM     35  C   UNL A   1      34.706 -37.649 -26.335  0.00  0.00    +0.043 A 
ATOM     36 CL   UNL A   1      34.160 -38.371 -24.871  0.00  0.00    -0.083 Cl
ATOM     37  C   UNL A   1      33.836 -36.874 -27.086  0.00  0.00    -0.043 A 
ATOM     38  C   UNL A   1      34.291 -36.294 -28.270  0.00  0.00    -0.049 A 
ATOM     39  C   UNL A   1      35.623 -36.483 -28.718  0.00  0.00    +0.022 A 
ATOM     40  C   UNL A   1      39.688 -37.335 -29.715  0.00  0.00    -0.010 C 
ATOM     41  C   UNL A   1      40.352 -36.379 -30.700  0.00  0.00    -0.047 C 
ATOM     42  C   UNL A   1      39.451 -36.178 -31.909  0.00  0.00    -0.049 C 
ATOM     43  C   UNL A   1      38.125 -35.544 -31.488  0.00  0.00    -0.024 C 
ENDBRANCH  27  29
ENDBRANCH  26  27
ENDBRANCH  25  26
ENDBRANCH  24  25
ENDBRANCH   2  24
TORSDOF 11
ENDMDL
MODEL 6
REMARK VINA RESULT:    -7.221     18.135     22.725
REMARK INTER + INTRA:         -14.285
REMARK INTER:                 -12.385
REMARK INTRA:                  -1.900
REMARK UNBOUND:                -2.420
REMARK  Name = cpd148.pdb
REMARK  11 active torsions:
REMARK  status: ('A' for Active; 'I' for Inactive)
REMARK    1  A    between atoms: C_2  and  C_3
REMARK    2  A    between atoms: C_3  and  S_4
REMARK    3  A    between atoms: S_4  and  C_5
REMARK    4  A    between atoms: C_5  and  C_6
REMARK    5  A    between atoms: C_6  and  N_7
REMARK    6  A    between atoms: C_6  and  C_29
REMARK    7  A    between atoms: C_8  and  C_10
REMARK    8  A    between atoms: C_10  and  C_11
REMARK    9  A    between atoms: C_11  and  C_12
REMARK   10  A    between atoms: C_12  and  N_13
REMARK   11  A    between atoms: N_13  and  C_14
REMARK                            x       y       z     vdW  Elec       q    Type
REMARK                         _______ _______ _______ _____ _____    ______ ____
ROOT
ATOM      1  N   UNL A   1      45.373 -17.477 -37.312  0.00  0.00    -0.303 N 
ATOM      2  C   UNL A   1      44.456 -17.567 -36.298  0.00  0.00    +0.214 C 
ATOM      3  O   UNL A   1      43.353 -17.031 -36.348  0.00  0.00    -0.276 OA
ATOM      4  H   UNL A   1      46.266 -17.871 -37.185  0.00  0.00    +0.000 HD
ENDROOT
BRANCH   1   5
ATOM      5  C   UNL A   1      45.065 -16.813 -38.577  0.00  0.00    +0.109 C 
BRANCH   5   6
ATOM      6  C   UNL A   1      45.116 -17.899 -39.671  0.00  0.00    +0.240 C 
ATOM      7  O   UNL A   1      44.311 -17.875 -40.599  0.00  0.00    -0.273 OA
ATOM      8  N   UNL A   1      46.072 -18.862 -39.434  0.00  0.00    -0.263 N 
ATOM      9  C   UNL A   1      46.329 -19.975 -40.196  0.00  0.00    +0.165 A 
ATOM     10  N   UNL A   1      47.302 -20.791 -39.871  0.00  0.00    -0.225 NA
ATOM     11  C   UNL A   1      47.361 -21.831 -40.787  0.00  0.00    +0.080 A 
ATOM     12  C   UNL A   1      48.279 -22.900 -40.770  0.00  0.00    -0.035 A 
ATOM     13  C   UNL A   1      48.221 -23.883 -41.765  0.00  0.00    -0.060 A 
ATOM     14  C   UNL A   1      47.263 -23.811 -42.771  0.00  0.00    -0.061 A 
ATOM     15  C   UNL A   1      46.340 -22.762 -42.810  0.00  0.00    -0.046 A 
ATOM     16  C   UNL A   1      46.409 -21.783 -41.805  0.00  0.00    +0.041 A 
ATOM     17  S   UNL A   1      45.429 -20.387 -41.577  0.00  0.00    -0.052 S 
ATOM     18  H   UNL A   1      46.630 -18.740 -38.633  0.00  0.00    +0.000 HD
ENDBRANCH   5   6
BRANCH   5  19
ATOM     19  C   UNL A   1      46.079 -15.715 -38.928  0.00  0.00    +0.022 C 
BRANCH  19  20
ATOM     20  S   UNL A   1      47.380 -15.395 -37.676  0.00  0.00    -0.146 S 
BRANCH  20  21
ATOM     21  C   UNL A   1      48.350 -14.114 -38.534  0.00  0.00    +0.055 C 
BRANCH  21  23
ATOM     22  C   UNL A   1      48.662 -14.737 -41.113  0.00  0.00    -0.118 C 
ATOM     23  C   UNL A   1      48.519 -14.453 -39.953  0.00  0.00    -0.095 C 
ENDBRANCH  21  23
ENDBRANCH  20  21
ENDBRANCH  19  20
ENDBRANCH   5  19
ENDBRANCH   1   5
BRANCH   2  24
ATOM     24  C   UNL A   1      44.884 -18.414 -35.117  0.00  0.00    +0.025 C 
BRANCH  24  25
ATOM     25  C   UNL A   1      44.436 -19.868 -35.236  0.00  0.00    -0.029 C 
BRANCH  25  26
ATOM     26  C   UNL A   1      43.139 -20.114 -34.469  0.00  0.00    +0.010 C 
BRANCH  26  27
ATOM     27  N   UNL A   1      42.017 -19.598 -35.265  0.00  0.00    -0.343 N 
ATOM     28  H   UNL A   1      41.790 -18.644 -35.346  0.00  0.00    +0.000 HD
BRANCH  27  29
ATOM     29  C   UNL A   1      41.296 -20.651 -35.903  0.00  0.00    +0.041 A 
ATOM     30  C   UNL A   1      40.451 -21.464 -35.121  0.00  0.00    -0.005 A 
ATOM     31  C   UNL A   1      39.787 -22.511 -35.760  0.00  0.00    +0.047 A 
ATOM     32  N   UNL A   1      39.953 -22.801 -37.073  0.00  0.00    -0.251 NA
ATOM     33  C   UNL A   1      40.766 -22.039 -37.813  0.00  0.00    +0.074 A 
ATOM     34  C   UNL A   1      40.903 -22.361 -39.154  0.00  0.00    -0.017 A 
ATOM     35  C   UNL A   1      41.732 -21.626 -39.996  0.00  0.00    +0.043 A 
ATOM     36 CL   UNL A   1      41.874 -22.058 -41.655  0.00  0.00    -0.083 Cl
ATOM     37  C   UNL A   1      42.447 -20.545 -39.503  0.00  0.00    -0.043 A 
ATOM     38  C   UNL A   1      42.323 -20.205 -38.156  0.00  0.00    -0.049 A 
ATOM     39  C   UNL A   1      41.480 -20.942 -37.285  0.00  0.00    +0.022 A 
ATOM     40  C   UNL A   1      38.871 -23.444 -35.010  0.00  0.00    -0.010 C 
ATOM     41  C   UNL A   1      38.346 -22.856 -33.706  0.00  0.00    -0.047 C 
ATOM     42  C   UNL A   1      39.499 -22.275 -32.901  0.00  0.00    -0.049 C 
ATOM     43  C   UNL A   1      40.171 -21.139 -33.671  0.00  0.00    -0.024 C 
ENDBRANCH  27  29
ENDBRANCH  26  27
ENDBRANCH  25  26
ENDBRANCH  24  25
ENDBRANCH   2  24
TORSDOF 11
ENDMDL
MODEL 7
REMARK VINA RESULT:    -7.213     17.768     21.190
REMARK INTER + INTRA:         -14.272
REMARK INTER:                 -12.815
REMARK INTRA:                  -1.457
REMARK UNBOUND:                -2.420
REMARK  Name = cpd148.pdb
REMARK  11 active torsions:
REMARK  status: ('A' for Active; 'I' for Inactive)
REMARK    1  A    between atoms: C_2  and  C_3
REMARK    2  A    between atoms: C_3  and  S_4
REMARK    3  A    between atoms: S_4  and  C_5
REMARK    4  A    between atoms: C_5  and  C_6
REMARK    5  A    between atoms: C_6  and  N_7
REMARK    6  A    between atoms: C_6  and  C_29
REMARK    7  A    between atoms: C_8  and  C_10
REMARK    8  A    between atoms: C_10  and  C_11
REMARK    9  A    between atoms: C_11  and  C_12
REMARK   10  A    between atoms: C_12  and  N_13
REMARK   11  A    between atoms: N_13  and  C_14
REMARK                            x       y       z     vdW  Elec       q    Type
REMARK                         _______ _______ _______ _____ _____    ______ ____
ROOT
ATOM      1  N   UNL A   1      45.027 -16.974 -34.680  0.00  0.00    -0.303 N 
ATOM      2  C   UNL A   1      46.293 -17.495 -34.736  0.00  0.00    +0.214 C 
ATOM      3  O   UNL A   1      46.920 -17.829 -33.734  0.00  0.00    -0.276 OA
ATOM      4  H   UNL A   1      44.602 -16.662 -35.511  0.00  0.00    +0.000 HD
ENDROOT
BRANCH   1   5
ATOM      5  C   UNL A   1      44.289 -16.869 -33.423  0.00  0.00    +0.109 C 
BRANCH   5   6
ATOM      6  C   UNL A   1      43.416 -18.137 -33.315  0.00  0.00    +0.240 C 
ATOM      7  O   UNL A   1      43.938 -19.249 -33.367  0.00  0.00    -0.273 OA
ATOM      8  N   UNL A   1      42.069 -17.862 -33.231  0.00  0.00    -0.263 N 
ATOM      9  C   UNL A   1      41.043 -18.773 -33.170  0.00  0.00    +0.165 A 
ATOM     10  N   UNL A   1      39.802 -18.366 -33.052  0.00  0.00    -0.225 NA
ATOM     11  C   UNL A   1      38.956 -19.465 -33.013  0.00  0.00    +0.080 A 
ATOM     12  C   UNL A   1      37.553 -19.427 -32.888  0.00  0.00    -0.035 A 
ATOM     13  C   UNL A   1      36.825 -20.623 -32.861  0.00  0.00    -0.060 A 
ATOM     14  C   UNL A   1      37.477 -21.848 -32.956  0.00  0.00    -0.061 A 
ATOM     15  C   UNL A   1      38.868 -21.912 -33.081  0.00  0.00    -0.046 A 
ATOM     16  C   UNL A   1      39.587 -20.706 -33.108  0.00  0.00    +0.041 A 
ATOM     17  S   UNL A   1      41.282 -20.453 -33.253  0.00  0.00    -0.052 S 
ATOM     18  H   UNL A   1      41.814 -16.912 -33.213  0.00  0.00    +0.000 HD
ENDBRANCH   5   6
BRANCH   5  19
ATOM     19  C   UNL A   1      43.372 -15.638 -33.380  0.00  0.00    +0.022 C 
BRANCH  19  20
ATOM     20  S   UNL A   1      43.552 -14.555 -31.912  0.00  0.00    -0.146 S 
BRANCH  20  21
ATOM     21  C   UNL A   1      42.183 -13.389 -32.197  0.00  0.00    +0.055 C 
BRANCH  21  23
ATOM     22  C   UNL A   1      41.142 -12.574 -29.877  0.00  0.00    -0.118 C 
ATOM     23  C   UNL A   1      41.609 -12.937 -30.923  0.00  0.00    -0.095 C 
ENDBRANCH  21  23
ENDBRANCH  20  21
ENDBRANCH  19  20
ENDBRANCH   5  19
ENDBRANCH   1   5
BRANCH   2  24
ATOM     24  C   UNL A   1      46.855 -17.669 -36.131  0.00  0.00    +0.025 C 
BRANCH  24  25
ATOM     25  C   UNL A   1      47.539 -19.018 -36.331  0.00  0.00    -0.029 C 
BRANCH  25  26
ATOM     26  C   UNL A   1      47.427 -19.489 -37.779  0.00  0.00    +0.010 C 
BRANCH  26  27
ATOM     27  N   UNL A   1      46.944 -20.877 -37.787  0.00  0.00    -0.343 N 
ATOM     28  H   UNL A   1      47.281 -21.583 -37.188  0.00  0.00    +0.000 HD
BRANCH  27  29
ATOM     29  C   UNL A   1      45.928 -21.077 -38.768  0.00  0.00    +0.041 A 
ATOM     30  C   UNL A   1      46.299 -21.573 -40.035  0.00  0.00    -0.005 A 
ATOM     31  C   UNL A   1      45.294 -21.722 -40.990  0.00  0.00    +0.047 A 
ATOM     32  N   UNL A   1      44.004 -21.376 -40.769  0.00  0.00    -0.251 NA
ATOM     33  C   UNL A   1      43.654 -20.891 -39.572  0.00  0.00    +0.074 A 
ATOM     34  C   UNL A   1      42.323 -20.555 -39.381  0.00  0.00    -0.017 A 
ATOM     35  C   UNL A   1      41.872 -20.039 -38.170  0.00  0.00    +0.043 A 
ATOM     36 CL   UNL A   1      40.211 -19.635 -37.972  0.00  0.00    -0.083 Cl
ATOM     37  C   UNL A   1      42.756 -19.847 -37.119  0.00  0.00    -0.043 A 
ATOM     38  C   UNL A   1      44.100 -20.178 -37.292  0.00  0.00    -0.049 A 
ATOM     39  C   UNL A   1      44.576 -20.708 -38.519  0.00  0.00    +0.022 A 
ATOM     40  C   UNL A   1      45.590 -22.233 -42.378  0.00  0.00    -0.010 C 
ATOM     41  C   UNL A   1      46.888 -23.029 -42.464  0.00  0.00    -0.047 C 
ATOM     42  C   UNL A   1      48.013 -22.255 -41.793  0.00  0.00    -0.049 C 
ATOM     43  C   UNL A   1      47.708 -22.048 -40.310  0.00  0.00    -0.024 C 
ENDBRANCH  27  29
ENDBRANCH  26  27
ENDBRANCH  25  26
ENDBRANCH  24  25
ENDBRANCH   2  24
TORSDOF 11
ENDMDL
MODEL 8
REMARK VINA RESULT:    -7.198      3.879      7.625
REMARK INTER + INTRA:         -14.247
REMARK INTER:                 -12.695
REMARK INTRA:                  -1.552
REMARK UNBOUND:                -2.420
REMARK  Name = cpd148.pdb
REMARK  11 active torsions:
REMARK  status: ('A' for Active; 'I' for Inactive)
REMARK    1  A    between atoms: C_2  and  C_3
REMARK    2  A    between atoms: C_3  and  S_4
REMARK    3  A    between atoms: S_4  and  C_5
REMARK    4  A    between atoms: C_5  and  C_6
REMARK    5  A    between atoms: C_6  and  N_7
REMARK    6  A    between atoms: C_6  and  C_29
REMARK    7  A    between atoms: C_8  and  C_10
REMARK    8  A    between atoms: C_10  and  C_11
REMARK    9  A    between atoms: C_11  and  C_12
REMARK   10  A    between atoms: C_12  and  N_13
REMARK   11  A    between atoms: N_13  and  C_14
REMARK                            x       y       z     vdW  Elec       q    Type
REMARK                         _______ _______ _______ _____ _____    ______ ____
ROOT
ATOM      1  N   UNL A   1      33.681 -35.339 -31.545  0.00  0.00    -0.303 N 
ATOM      2  C   UNL A   1      33.331 -34.575 -32.627  0.00  0.00    +0.214 C 
ATOM      3  O   UNL A   1      33.434 -33.351 -32.639  0.00  0.00    -0.276 OA
ATOM      4  H   UNL A   1      33.513 -36.309 -31.571  0.00  0.00    +0.000 HD
ENDROOT
BRANCH   1   5
ATOM      5  C   UNL A   1      34.297 -34.758 -30.354  0.00  0.00    +0.109 C 
BRANCH   5   6
ATOM      6  C   UNL A   1      35.563 -35.591 -30.060  0.00  0.00    +0.240 C 
ATOM      7  O   UNL A   1      35.626 -36.273 -29.039  0.00  0.00    -0.273 OA
ATOM      8  N   UNL A   1      36.558 -35.415 -30.996  0.00  0.00    -0.263 N 
ATOM      9  C   UNL A   1      37.809 -35.979 -30.987  0.00  0.00    +0.165 A 
ATOM     10  N   UNL A   1      38.646 -35.753 -31.970  0.00  0.00    -0.225 NA
ATOM     11  C   UNL A   1      39.834 -36.427 -31.732  0.00  0.00    +0.080 A 
ATOM     12  C   UNL A   1      40.969 -36.429 -32.569  0.00  0.00    -0.035 A 
ATOM     13  C   UNL A   1      42.104 -37.161 -32.200  0.00  0.00    -0.060 A 
ATOM     14  C   UNL A   1      42.119 -37.888 -31.014  0.00  0.00    -0.061 A 
ATOM     15  C   UNL A   1      41.007 -37.902 -30.167  0.00  0.00    -0.046 A 
ATOM     16  C   UNL A   1      39.875 -37.163 -30.547  0.00  0.00    +0.041 A 
ATOM     17  S   UNL A   1      38.371 -36.979 -29.733  0.00  0.00    -0.052 S 
ATOM     18  H   UNL A   1      36.349 -34.821 -31.752  0.00  0.00    +0.000 HD
ENDBRANCH   5   6
BRANCH   5  19
ATOM     19  C   UNL A   1      33.377 -34.816 -29.127  0.00  0.00    +0.022 C 
BRANCH  19  20
ATOM     20  S   UNL A   1      32.345 -33.331 -28.828  0.00  0.00    -0.146 S 
BRANCH  20  21
ATOM     21  C   UNL A   1      30.955 -33.667 -29.955  0.00  0.00    +0.055 C 
BRANCH  21  23
ATOM     22  C   UNL A   1      30.332 -36.264 -29.946  0.00  0.00    -0.118 C 
ATOM     23  C   UNL A   1      30.616 -35.096 -29.953  0.00  0.00    -0.095 C 
ENDBRANCH  21  23
ENDBRANCH  20  21
ENDBRANCH  19  20
ENDBRANCH   5  19
ENDBRANCH   1   5
BRANCH   2  24
ATOM     24  C   UNL A   1      32.844 -35.351 -33.833  0.00  0.00    +0.025 C 
BRANCH  24  25
ATOM     25  C   UNL A   1      32.842 -36.860 -33.606  0.00  0.00    -0.029 C 
BRANCH  25  26
ATOM     26  C   UNL A   1      31.496 -37.477 -33.978  0.00  0.00    +0.010 C 
BRANCH  26  27
ATOM     27  N   UNL A   1      31.341 -38.743 -33.250  0.00  0.00    -0.343 N 
ATOM     28  H   UNL A   1      30.569 -38.963 -32.681  0.00  0.00    +0.000 HD
BRANCH  27  29
ATOM     29  C   UNL A   1      32.448 -39.617 -33.469  0.00  0.00    +0.041 A 
ATOM     30  C   UNL A   1      32.526 -40.316 -34.691  0.00  0.00    -0.005 A 
ATOM     31  C   UNL A   1      33.596 -41.193 -34.867  0.00  0.00    +0.047 A 
ATOM     32  N   UNL A   1      34.525 -41.429 -33.911  0.00  0.00    -0.251 NA
ATOM     33  C   UNL A   1      34.443 -40.777 -32.745  0.00  0.00    +0.074 A 
ATOM     34  C   UNL A   1      35.417 -41.040 -31.794  0.00  0.00    -0.017 A 
ATOM     35  C   UNL A   1      35.406 -40.411 -30.553  0.00  0.00    +0.043 A 
ATOM     36 CL   UNL A   1      36.633 -40.763 -29.399  0.00  0.00    -0.083 Cl
ATOM     37  C   UNL A   1      34.408 -39.501 -30.239  0.00  0.00    -0.043 A 
ATOM     38  C   UNL A   1      33.419 -39.223 -31.183  0.00  0.00    -0.049 A 
ATOM     39  C   UNL A   1      33.417 -39.853 -32.453  0.00  0.00    +0.022 A 
ATOM     40  C   UNL A   1      33.762 -41.996 -36.132  0.00  0.00    -0.010 C 
ATOM     41  C   UNL A   1      33.023 -41.402 -37.326  0.00  0.00    -0.047 C 
ATOM     42  C   UNL A   1      31.589 -41.078 -36.935  0.00  0.00    -0.049 C 
ATOM     43  C   UNL A   1      31.562 -40.032 -35.821  0.00  0.00    -0.024 C 
ENDBRANCH  27  29
ENDBRANCH  26  27
ENDBRANCH  25  26
ENDBRANCH  24  25
ENDBRANCH   2  24
TORSDOF 11
ENDMDL
MODEL 9
REMARK VINA RESULT:    -7.198     17.982     22.502
REMARK INTER + INTRA:         -14.247
REMARK INTER:                 -11.761
REMARK INTRA:                  -2.485
REMARK UNBOUND:                -2.420
REMARK  Name = cpd148.pdb
REMARK  11 active torsions:
REMARK  status: ('A' for Active; 'I' for Inactive)
REMARK    1  A    between atoms: C_2  and  C_3
REMARK    2  A    between atoms: C_3  and  S_4
REMARK    3  A    between atoms: S_4  and  C_5
REMARK    4  A    between atoms: C_5  and  C_6
REMARK    5  A    between atoms: C_6  and  N_7
REMARK    6  A    between atoms: C_6  and  C_29
REMARK    7  A    between atoms: C_8  and  C_10
REMARK    8  A    between atoms: C_10  and  C_11
REMARK    9  A    between atoms: C_11  and  C_12
REMARK   10  A    between atoms: C_12  and  N_13
REMARK   11  A    between atoms: N_13  and  C_14
REMARK                            x       y       z     vdW  Elec       q    Type
REMARK                         _______ _______ _______ _____ _____    ______ ____
ROOT
ATOM      1  N   UNL A   1      44.000 -16.419 -38.333  0.00  0.00    -0.303 N 
ATOM      2  C   UNL A   1      42.748 -15.869 -38.429  0.00  0.00    +0.214 C 
ATOM      3  O   UNL A   1      42.440 -15.062 -39.302  0.00  0.00    -0.276 OA
ATOM      4  H   UNL A   1      44.206 -17.007 -37.572  0.00  0.00    +0.000 HD
ENDROOT
BRANCH   1   5
ATOM      5  C   UNL A   1      45.038 -16.157 -39.329  0.00  0.00    +0.109 C 
BRANCH   5   6
ATOM      6  C   UNL A   1      45.072 -17.384 -40.265  0.00  0.00    +0.240 C 
ATOM      7  O   UNL A   1      44.255 -17.482 -41.179  0.00  0.00    -0.273 OA
ATOM      8  N   UNL A   1      46.026 -18.311 -39.910  0.00  0.00    -0.263 N 
ATOM      9  C   UNL A   1      46.270 -19.518 -40.516  0.00  0.00    +0.165 A 
ATOM     10  N   UNL A   1      47.243 -20.287 -40.093  0.00  0.00    -0.225 NA
ATOM     11  C   UNL A   1      47.287 -21.443 -40.858  0.00  0.00    +0.080 A 
ATOM     12  C   UNL A   1      48.201 -22.505 -40.706  0.00  0.00    -0.035 A 
ATOM     13  C   UNL A   1      48.127 -23.614 -41.557  0.00  0.00    -0.060 A 
ATOM     14  C   UNL A   1      47.157 -23.675 -42.552  0.00  0.00    -0.061 A 
ATOM     15  C   UNL A   1      46.238 -22.636 -42.724  0.00  0.00    -0.046 A 
ATOM     16  C   UNL A   1      46.323 -21.529 -41.863  0.00  0.00    +0.041 A 
ATOM     17  S   UNL A   1      45.351 -20.110 -41.817  0.00  0.00    -0.052 S 
ATOM     18  H   UNL A   1      46.595 -18.083 -39.139  0.00  0.00    +0.000 HD
ENDBRANCH   5   6
BRANCH   5  19
ATOM     19  C   UNL A   1      46.427 -15.983 -38.699  0.00  0.00    +0.022 C 
BRANCH  19  20
ATOM     20  S   UNL A   1      46.506 -16.139 -36.874  0.00  0.00    -0.146 S 
BRANCH  20  21
ATOM     21  C   UNL A   1      47.292 -17.775 -36.721  0.00  0.00    +0.055 C 
BRANCH  21  23
ATOM     22  C   UNL A   1      45.479 -19.646 -36.135  0.00  0.00    -0.118 C 
ATOM     23  C   UNL A   1      46.296 -18.803 -36.394  0.00  0.00    -0.095 C 
ENDBRANCH  21  23
ENDBRANCH  20  21
ENDBRANCH  19  20
ENDBRANCH   5  19
ENDBRANCH   1   5
BRANCH   2  24
ATOM     24  C   UNL A   1      41.751 -16.359 -37.400  0.00  0.00    +0.025 C 
BRANCH  24  25
ATOM     25  C   UNL A   1      42.390 -17.225 -36.319  0.00  0.00    -0.029 C 
BRANCH  25  26
ATOM     26  C   UNL A   1      41.365 -18.151 -35.669  0.00  0.00    +0.010 C 
BRANCH  26  27
ATOM     27  N   UNL A   1      42.019 -19.425 -35.344  0.00  0.00    -0.343 N 
ATOM     28  H   UNL A   1      42.820 -19.506 -34.776  0.00  0.00    +0.000 HD
BRANCH  27  29
ATOM     29  C   UNL A   1      41.353 -20.530 -35.953  0.00  0.00    +0.041 A 
ATOM     30  C   UNL A   1      40.549 -21.362 -35.147  0.00  0.00    -0.005 A 
ATOM     31  C   UNL A   1      39.940 -22.459 -35.757  0.00  0.00    +0.047 A 
ATOM     32  N   UNL A   1      40.121 -22.777 -37.061  0.00  0.00    -0.251 NA
ATOM     33  C   UNL A   1      40.896 -21.996 -37.822  0.00  0.00    +0.074 A 
ATOM     34  C   UNL A   1      41.051 -22.349 -39.154  0.00  0.00    -0.017 A 
ATOM     35  C   UNL A   1      41.842 -21.597 -40.016  0.00  0.00    +0.043 A 
ATOM     36 CL   UNL A   1      42.008 -22.068 -41.663  0.00  0.00    -0.083 Cl
ATOM     37  C   UNL A   1      42.502 -20.468 -39.554  0.00  0.00    -0.043 A 
ATOM     38  C   UNL A   1      42.359 -20.097 -38.217  0.00  0.00    -0.049 A 
ATOM     39  C   UNL A   1      41.553 -20.850 -37.326  0.00  0.00    +0.022 A 
ATOM     40  C   UNL A   1      39.071 -23.415 -34.980  0.00  0.00    -0.010 C 
ATOM     41  C   UNL A   1      38.515 -22.817 -33.693  0.00  0.00    -0.047 C 
ATOM     42  C   UNL A   1      39.637 -22.157 -32.905  0.00  0.00    -0.049 C 
ATOM     43  C   UNL A   1      40.251 -21.011 -33.707  0.00  0.00    -0.024 C 
ENDBRANCH  27  29
ENDBRANCH  26  27
ENDBRANCH  25  26
ENDBRANCH  24  25
ENDBRANCH   2  24
TORSDOF 11
ENDMDL
MODEL 10
REMARK VINA RESULT:    -7.154     19.573     22.780
REMARK INTER + INTRA:         -14.174
REMARK INTER:                 -11.050
REMARK INTRA:                  -3.124
REMARK UNBOUND:                -2.420
REMARK  Name = cpd148.pdb
REMARK  11 active torsions:
REMARK  status: ('A' for Active; 'I' for Inactive)
REMARK    1  A    between atoms: C_2  and  C_3
REMARK    2  A    between atoms: C_3  and  S_4
REMARK    3  A    between atoms: S_4  and  C_5
REMARK    4  A    between atoms: C_5  and  C_6
REMARK    5  A    between atoms: C_6  and  N_7
REMARK    6  A    between atoms: C_6  and  C_29
REMARK    7  A    between atoms: C_8  and  C_10
REMARK    8  A    between atoms: C_10  and  C_11
REMARK    9  A    between atoms: C_11  and  C_12
REMARK   10  A    between atoms: C_12  and  N_13
REMARK   11  A    between atoms: N_13  and  C_14
REMARK                            x       y       z     vdW  Elec       q    Type
REMARK                         _______ _______ _______ _____ _____    ______ ____
ROOT
ATOM      1  N   UNL A   1      44.750 -16.849 -35.168  0.00  0.00    -0.303 N 
ATOM      2  C   UNL A   1      45.914 -17.395 -34.696  0.00  0.00    +0.214 C 
ATOM      3  O   UNL A   1      46.008 -17.901 -33.581  0.00  0.00    -0.276 OA
ATOM      4  H   UNL A   1      44.755 -16.398 -36.043  0.00  0.00    +0.000 HD
ENDROOT
BRANCH   1   5
ATOM      5  C   UNL A   1      43.501 -16.917 -34.412  0.00  0.00    +0.109 C 
BRANCH   5   6
ATOM      6  C   UNL A   1      42.665 -18.053 -35.040  0.00  0.00    +0.240 C 
ATOM      7  O   UNL A   1      41.806 -18.624 -34.372  0.00  0.00    -0.273 OA
ATOM      8  N   UNL A   1      43.043 -18.355 -36.329  0.00  0.00    -0.263 N 
ATOM      9  C   UNL A   1      42.524 -19.340 -37.132  0.00  0.00    +0.165 A 
ATOM     10  N   UNL A   1      42.956 -19.490 -38.360  0.00  0.00    -0.225 NA
ATOM     11  C   UNL A   1      42.284 -20.544 -38.962  0.00  0.00    +0.080 A 
ATOM     12  C   UNL A   1      42.473 -21.003 -40.282  0.00  0.00    -0.035 A 
ATOM     13  C   UNL A   1      41.719 -22.081 -40.758  0.00  0.00    -0.060 A 
ATOM     14  C   UNL A   1      40.783 -22.703 -39.938  0.00  0.00    -0.061 A 
ATOM     15  C   UNL A   1      40.577 -22.268 -38.626  0.00  0.00    -0.046 A 
ATOM     16  C   UNL A   1      41.341 -21.186 -38.159  0.00  0.00    +0.041 A 
ATOM     17  S   UNL A   1      41.324 -20.427 -36.616  0.00  0.00    -0.052 S 
ATOM     18  H   UNL A   1      43.763 -17.806 -36.716  0.00  0.00    +0.000 HD
ENDBRANCH   5   6
BRANCH   5  19
ATOM     19  C   UNL A   1      42.693 -15.614 -34.490  0.00  0.00    +0.022 C 
BRANCH  19  20
ATOM     20  S   UNL A   1      42.724 -14.747 -36.106  0.00  0.00    -0.146 S 
BRANCH  20  21
ATOM     21  C   UNL A   1      41.072 -15.179 -36.739  0.00  0.00    +0.055 C 
BRANCH  21  23
ATOM     22  C   UNL A   1      41.266 -16.514 -39.043  0.00  0.00    -0.118 C 
ATOM     23  C   UNL A   1      41.175 -15.916 -38.005  0.00  0.00    -0.095 C 
ENDBRANCH  21  23
ENDBRANCH  20  21
ENDBRANCH  19  20
ENDBRANCH   5  19
ENDBRANCH   1   5
BRANCH   2  24
ATOM     24  C   UNL A   1      47.077 -17.368 -35.666  0.00  0.00    +0.025 C 
BRANCH  24  25
ATOM     25  C   UNL A   1      47.635 -18.757 -35.963  0.00  0.00    -0.029 C 
BRANCH  25  26
ATOM     26  C   UNL A   1      46.867 -19.433 -37.096  0.00  0.00    +0.010 C 
BRANCH  26  27
ATOM     27  N   UNL A   1      47.607 -19.236 -38.350  0.00  0.00    -0.343 N 
ATOM     28  H   UNL A   1      48.563 -19.006 -38.397  0.00  0.00    +0.000 HD
BRANCH  27  29
ATOM     29  C   UNL A   1      46.770 -19.420 -39.490  0.00  0.00    +0.041 A 
ATOM     30  C   UNL A   1      46.832 -20.646 -40.184  0.00  0.00    -0.005 A 
ATOM     31  C   UNL A   1      46.033 -20.787 -41.319  0.00  0.00    +0.047 A 
ATOM     32  N   UNL A   1      45.245 -19.796 -41.799  0.00  0.00    -0.251 NA
ATOM     33  C   UNL A   1      45.197 -18.627 -41.149  0.00  0.00    +0.074 A 
ATOM     34  C   UNL A   1      44.373 -17.639 -41.666  0.00  0.00    -0.017 A 
ATOM     35  C   UNL A   1      44.266 -16.393 -41.057  0.00  0.00    +0.043 A 
ATOM     36 CL   UNL A   1      43.231 -15.194 -41.729  0.00  0.00    -0.083 Cl
ATOM     37  C   UNL A   1      44.992 -16.110 -39.910  0.00  0.00    -0.043 A 
ATOM     38  C   UNL A   1      45.828 -17.090 -39.375  0.00  0.00    -0.049 A 
ATOM     39  C   UNL A   1      45.946 -18.367 -39.981  0.00  0.00    +0.022 A 
ATOM     40  C   UNL A   1      46.036 -22.054 -42.137  0.00  0.00    -0.010 C 
ATOM     41  C   UNL A   1      46.535 -23.270 -41.366  0.00  0.00    -0.047 C 
ATOM     42  C   UNL A   1      47.843 -22.934 -40.665  0.00  0.00    -0.049 C 
ATOM     43  C   UNL A   1      47.634 -21.811 -39.650  0.00  0.00    -0.024 C 
ENDBRANCH  27  29
ENDBRANCH  26  27
ENDBRANCH  25  26
ENDBRANCH  24  25
ENDBRANCH   2  24
TORSDOF 11
ENDMDL
MODEL 11
REMARK VINA RESULT:    -7.110     17.675     21.442
REMARK INTER + INTRA:         -14.102
REMARK INTER:                 -11.820
REMARK INTRA:                  -2.282
REMARK UNBOUND:                -2.420
REMARK  Name = cpd148.pdb
REMARK  11 active torsions:
REMARK  status: ('A' for Active; 'I' for Inactive)
REMARK    1  A    between atoms: C_2  and  C_3
REMARK    2  A    between atoms: C_3  and  S_4
REMARK    3  A    between atoms: S_4  and  C_5
REMARK    4  A    between atoms: C_5  and  C_6
REMARK    5  A    between atoms: C_6  and  N_7
REMARK    6  A    between atoms: C_6  and  C_29
REMARK    7  A    between atoms: C_8  and  C_10
REMARK    8  A    between atoms: C_10  and  C_11
REMARK    9  A    between atoms: C_11  and  C_12
REMARK   10  A    between atoms: C_12  and  N_13
REMARK   11  A    between atoms: N_13  and  C_14
REMARK                            x       y       z     vdW  Elec       q    Type
REMARK                         _______ _______ _______ _____ _____    ______ ____
ROOT
ATOM      1  N   UNL A   1      40.251 -20.609 -36.251  0.00  0.00    -0.303 N 
ATOM      2  C   UNL A   1      39.303 -20.408 -37.219  0.00  0.00    +0.214 C 
ATOM      3  O   UNL A   1      38.217 -19.884 -36.988  0.00  0.00    -0.276 OA
ATOM      4  H   UNL A   1      41.075 -21.095 -36.483  0.00  0.00    +0.000 HD
ENDROOT
BRANCH   1   5
ATOM      5  C   UNL A   1      40.076 -20.124 -34.883  0.00  0.00    +0.109 C 
BRANCH   5   6
ATOM      6  C   UNL A   1      41.443 -19.567 -34.433  0.00  0.00    +0.240 C 
ATOM      7  O   UNL A   1      41.525 -18.899 -33.404  0.00  0.00    -0.273 OA
ATOM      8  N   UNL A   1      42.460 -19.844 -35.319  0.00  0.00    -0.263 N 
ATOM      9  C   UNL A   1      43.771 -19.448 -35.222  0.00  0.00    +0.165 A 
ATOM     10  N   UNL A   1      44.645 -19.821 -36.124  0.00  0.00    -0.225 NA
ATOM     11  C   UNL A   1      45.890 -19.297 -35.809  0.00  0.00    +0.080 A 
ATOM     12  C   UNL A   1      47.079 -19.484 -36.543  0.00  0.00    -0.035 A 
ATOM     13  C   UNL A   1      48.268 -18.892 -36.102  0.00  0.00    -0.060 A 
ATOM     14  C   UNL A   1      48.285 -18.121 -34.944  0.00  0.00    -0.061 A 
ATOM     15  C   UNL A   1      47.119 -17.920 -34.199  0.00  0.00    -0.046 A 
ATOM     16  C   UNL A   1      45.932 -18.518 -34.652  0.00  0.00    +0.041 A 
ATOM     17  S   UNL A   1      44.355 -18.459 -33.969  0.00  0.00    -0.052 S 
ATOM     18  H   UNL A   1      42.222 -20.385 -36.106  0.00  0.00    +0.000 HD
ENDBRANCH   5   6
BRANCH   5  19
ATOM     19  C   UNL A   1      39.657 -21.237 -33.912  0.00  0.00    +0.022 C 
BRANCH  19  20
ATOM     20  S   UNL A   1      40.275 -22.918 -34.304  0.00  0.00    -0.146 S 
BRANCH  20  21
ATOM     21  C   UNL A   1      39.879 -23.781 -32.751  0.00  0.00    +0.055 C 
BRANCH  21  23
ATOM     22  C   UNL A   1      42.061 -24.046 -31.234  0.00  0.00    -0.118 C 
ATOM     23  C   UNL A   1      41.080 -23.931 -31.918  0.00  0.00    -0.095 C 
ENDBRANCH  21  23
ENDBRANCH  20  21
ENDBRANCH  19  20
ENDBRANCH   5  19
ENDBRANCH   1   5
BRANCH   2  24
ATOM     24  C   UNL A   1      39.706 -20.842 -38.613  0.00  0.00    +0.025 C 
BRANCH  24  25
ATOM     25  C   UNL A   1      40.794 -19.960 -39.219  0.00  0.00    -0.029 C 
BRANCH  25  26
ATOM     26  C   UNL A   1      42.051 -20.766 -39.535  0.00  0.00    +0.010 C 
BRANCH  26  27
ATOM     27  N   UNL A   1      43.169 -20.220 -38.755  0.00  0.00    -0.343 N 
ATOM     28  H   UNL A   1      43.217 -20.236 -37.772  0.00  0.00    +0.000 HD
BRANCH  27  29
ATOM     29  C   UNL A   1      44.178 -19.664 -39.597  0.00  0.00    +0.041 A 
ATOM     30  C   UNL A   1      44.187 -18.271 -39.812  0.00  0.00    -0.005 A 
ATOM     31  C   UNL A   1      45.158 -17.756 -40.671  0.00  0.00    +0.047 A 
ATOM     32  N   UNL A   1      46.051 -18.532 -41.329  0.00  0.00    -0.251 NA
ATOM     33  C   UNL A   1      46.033 -19.855 -41.137  0.00  0.00    +0.074 A 
ATOM     34  C   UNL A   1      46.969 -20.616 -41.823  0.00  0.00    -0.017 A 
ATOM     35  C   UNL A   1      47.018 -22.000 -41.687  0.00  0.00    +0.043 A 
ATOM     36 CL   UNL A   1      48.195 -22.907 -42.554  0.00  0.00    -0.083 Cl
ATOM     37  C   UNL A   1      46.122 -22.653 -40.855  0.00  0.00    -0.043 A 
ATOM     38  C   UNL A   1      45.173 -21.906 -40.157  0.00  0.00    -0.049 A 
ATOM     39  C   UNL A   1      45.111 -20.494 -40.282  0.00  0.00    +0.022 A 
ATOM     40  C   UNL A   1      45.245 -16.282 -40.975  0.00  0.00    -0.010 C 
ATOM     41  C   UNL A   1      44.579 -15.407 -39.919  0.00  0.00    -0.047 C 
ATOM     42  C   UNL A   1      43.186 -15.936 -39.614  0.00  0.00    -0.049 C 
ATOM     43  C   UNL A   1      43.265 -17.352 -39.044  0.00  0.00    -0.024 C 
ENDBRANCH  27  29
ENDBRANCH  26  27
ENDBRANCH  25  26
ENDBRANCH  24  25
ENDBRANCH   2  24
TORSDOF 11
ENDMDL
MODEL 12
REMARK VINA RESULT:    -7.092     17.853     21.673
REMARK INTER + INTRA:         -14.073
REMARK INTER:                 -11.476
REMARK INTRA:                  -2.596
REMARK UNBOUND:                -2.420
REMARK  Name = cpd148.pdb
REMARK  11 active torsions:
REMARK  status: ('A' for Active; 'I' for Inactive)
REMARK    1  A    between atoms: C_2  and  C_3
REMARK    2  A    between atoms: C_3  and  S_4
REMARK    3  A    between atoms: S_4  and  C_5
REMARK    4  A    between atoms: C_5  and  C_6
REMARK    5  A    between atoms: C_6  and  N_7
REMARK    6  A    between atoms: C_6  and  C_29
REMARK    7  A    between atoms: C_8  and  C_10
REMARK    8  A    between atoms: C_10  and  C_11
REMARK    9  A    between atoms: C_11  and  C_12
REMARK   10  A    between atoms: C_12  and  N_13
REMARK   11  A    between atoms: N_13  and  C_14
REMARK                            x       y       z     vdW  Elec       q    Type
REMARK                         _______ _______ _______ _____ _____    ______ ____
ROOT
ATOM      1  N   UNL A   1      40.119 -20.873 -36.071  0.00  0.00    -0.303 N 
ATOM      2  C   UNL A   1      39.092 -20.793 -36.974  0.00  0.00    +0.214 C 
ATOM      3  O   UNL A   1      37.990 -20.332 -36.689  0.00  0.00    -0.276 OA
ATOM      4  H   UNL A   1      40.957 -21.314 -36.340  0.00  0.00    +0.000 HD
ENDROOT
BRANCH   1   5
ATOM      5  C   UNL A   1      40.009 -20.323 -34.722  0.00  0.00    +0.109 C 
BRANCH   5   6
ATOM      6  C   UNL A   1      41.390 -19.730 -34.371  0.00  0.00    +0.240 C 
ATOM      7  O   UNL A   1      41.522 -19.035 -33.366  0.00  0.00    -0.273 OA
ATOM      8  N   UNL A   1      42.355 -20.011 -35.312  0.00  0.00    -0.263 N 
ATOM      9  C   UNL A   1      43.662 -19.588 -35.307  0.00  0.00    +0.165 A 
ATOM     10  N   UNL A   1      44.485 -19.968 -36.253  0.00  0.00    -0.225 NA
ATOM     11  C   UNL A   1      45.736 -19.413 -36.029  0.00  0.00    +0.080 A 
ATOM     12  C   UNL A   1      46.881 -19.596 -36.830  0.00  0.00    -0.035 A 
ATOM     13  C   UNL A   1      48.084 -18.972 -36.479  0.00  0.00    -0.060 A 
ATOM     14  C   UNL A   1      48.157 -18.172 -35.343  0.00  0.00    -0.061 A 
ATOM     15  C   UNL A   1      47.036 -17.974 -34.531  0.00  0.00    -0.046 A 
ATOM     16  C   UNL A   1      45.835 -18.605 -34.895  0.00  0.00    +0.041 A 
ATOM     17  S   UNL A   1      44.302 -18.558 -34.117  0.00  0.00    -0.052 S 
ATOM     18  H   UNL A   1      42.079 -20.575 -36.070  0.00  0.00    +0.000 HD
ENDBRANCH   5   6
BRANCH   5  19
ATOM     19  C   UNL A   1      39.655 -21.391 -33.677  0.00  0.00    +0.022 C 
BRANCH  19  20
ATOM     20  S   UNL A   1      38.525 -20.858 -32.336  0.00  0.00    -0.146 S 
BRANCH  20  21
ATOM     21  C   UNL A   1      37.628 -19.516 -33.179  0.00  0.00    +0.055 C 
BRANCH  21  23
ATOM     22  C   UNL A   1      38.364 -17.131 -32.230  0.00  0.00    -0.118 C 
ATOM     23  C   UNL A   1      38.036 -18.207 -32.654  0.00  0.00    -0.095 C 
ENDBRANCH  21  23
ENDBRANCH  20  21
ENDBRANCH  19  20
ENDBRANCH   5  19
ENDBRANCH   1   5
BRANCH   2  24
ATOM     24  C   UNL A   1      39.423 -21.278 -38.370  0.00  0.00    +0.025 C 
BRANCH  24  25
ATOM     25  C   UNL A   1      40.209 -20.254 -39.183  0.00  0.00    -0.029 C 
BRANCH  25  26
ATOM     26  C   UNL A   1      41.590 -20.784 -39.559  0.00  0.00    +0.010 C 
BRANCH  26  27
ATOM     27  N   UNL A   1      42.602 -20.050 -38.786  0.00  0.00    -0.343 N 
ATOM     28  H   UNL A   1      42.614 -19.995 -37.803  0.00  0.00    +0.000 HD
BRANCH  27  29
ATOM     29  C   UNL A   1      43.565 -19.428 -39.636  0.00  0.00    +0.041 A 
ATOM     30  C   UNL A   1      43.325 -18.111 -40.079  0.00  0.00    -0.005 A 
ATOM     31  C   UNL A   1      44.260 -17.538 -40.941  0.00  0.00    +0.047 A 
ATOM     32  N   UNL A   1      45.351 -18.200 -41.395  0.00  0.00    -0.251 NA
ATOM     33  C   UNL A   1      45.571 -19.455 -40.987  0.00  0.00    +0.074 A 
ATOM     34  C   UNL A   1      46.702 -20.096 -41.468  0.00  0.00    -0.017 A 
ATOM     35  C   UNL A   1      47.006 -21.403 -41.099  0.00  0.00    +0.043 A 
ATOM     36 CL   UNL A   1      48.420 -22.164 -41.717  0.00  0.00    -0.083 Cl
ATOM     37  C   UNL A   1      46.173 -22.098 -40.236  0.00  0.00    -0.043 A 
ATOM     38  C   UNL A   1      45.030 -21.470 -39.741  0.00  0.00    -0.049 A 
ATOM     39  C   UNL A   1      44.707 -20.137 -40.104  0.00  0.00    +0.022 A 
ATOM     40  C   UNL A   1      44.089 -16.141 -41.480  0.00  0.00    -0.010 C 
ATOM     41  C   UNL A   1      43.160 -15.277 -40.635  0.00  0.00    -0.047 C 
ATOM     42  C   UNL A   1      41.873 -16.035 -40.346  0.00  0.00    -0.049 C 
ATOM     43  C   UNL A   1      42.166 -17.301 -39.543  0.00  0.00    -0.024 C 
ENDBRANCH  27  29
ENDBRANCH  26  27
ENDBRANCH  25  26
ENDBRANCH  24  25
ENDBRANCH   2  24
TORSDOF 11
ENDMDL
MODEL 13
REMARK VINA RESULT:    -7.090      2.201      4.012
REMARK INTER + INTRA:         -14.069
REMARK INTER:                 -12.634
REMARK INTRA:                  -1.435
REMARK UNBOUND:                -2.420
REMARK  Name = cpd148.pdb
REMARK  11 active torsions:
REMARK  status: ('A' for Active; 'I' for Inactive)
REMARK    1  A    between atoms: C_2  and  C_3
REMARK    2  A    between atoms: C_3  and  S_4
REMARK    3  A    between atoms: S_4  and  C_5
REMARK    4  A    between atoms: C_5  and  C_6
REMARK    5  A    between atoms: C_6  and  N_7
REMARK    6  A    between atoms: C_6  and  C_29
REMARK    7  A    between atoms: C_8  and  C_10
REMARK    8  A    between atoms: C_10  and  C_11
REMARK    9  A    between atoms: C_11  and  C_12
REMARK   10  A    between atoms: C_12  and  N_13
REMARK   11  A    between atoms: N_13  and  C_14
REMARK                            x       y       z     vdW  Elec       q    Type
REMARK                         _______ _______ _______ _____ _____    ______ ____
ROOT
ATOM      1  N   UNL A   1      32.468 -34.002 -30.058  0.00  0.00    -0.303 N 
ATOM      2  C   UNL A   1      32.989 -32.736 -29.993  0.00  0.00    +0.214 C 
ATOM      3  O   UNL A   1      32.455 -31.828 -29.362  0.00  0.00    -0.276 OA
ATOM      4  H   UNL A   1      32.905 -34.669 -30.635  0.00  0.00    +0.000 HD
ENDROOT
BRANCH   1   5
ATOM      5  C   UNL A   1      31.282 -34.391 -29.297  0.00  0.00    +0.109 C 
BRANCH   5   6
ATOM      6  C   UNL A   1      31.694 -35.592 -28.421  0.00  0.00    +0.240 C 
ATOM      7  O   UNL A   1      31.673 -36.729 -28.889  0.00  0.00    -0.273 OA
ATOM      8  N   UNL A   1      31.992 -35.240 -27.124  0.00  0.00    -0.263 N 
ATOM      9  C   UNL A   1      32.345 -36.084 -26.099  0.00  0.00    +0.165 A 
ATOM     10  N   UNL A   1      32.642 -35.603 -24.917  0.00  0.00    -0.225 NA
ATOM     11  C   UNL A   1      32.961 -36.645 -24.059  0.00  0.00    +0.080 A 
ATOM     12  C   UNL A   1      33.338 -36.521 -22.707  0.00  0.00    -0.035 A 
ATOM     13  C   UNL A   1      33.635 -37.667 -21.959  0.00  0.00    -0.060 A 
ATOM     14  C   UNL A   1      33.563 -38.928 -22.543  0.00  0.00    -0.061 A 
ATOM     15  C   UNL A   1      33.191 -39.078 -23.882  0.00  0.00    -0.046 A 
ATOM     16  C   UNL A   1      32.894 -37.921 -24.621  0.00  0.00    +0.041 A 
ATOM     17  S   UNL A   1      32.412 -37.774 -26.265  0.00  0.00    -0.052 S 
ATOM     18  H   UNL A   1      31.947 -34.281 -26.907  0.00  0.00    +0.000 HD
ENDBRANCH   5   6
BRANCH   5  19
ATOM     19  C   UNL A   1      30.117 -34.819 -30.201  0.00  0.00    +0.022 C 
BRANCH  19  20
ATOM     20  S   UNL A   1      29.968 -33.926 -31.795  0.00  0.00    -0.146 S 
BRANCH  20  21
ATOM     21  C   UNL A   1      29.423 -32.293 -31.204  0.00  0.00    +0.055 C 
BRANCH  21  23
ATOM     22  C   UNL A   1      27.318 -32.535 -29.579  0.00  0.00    -0.118 C 
ATOM     23  C   UNL A   1      28.264 -32.422 -30.312  0.00  0.00    -0.095 C 
ENDBRANCH  21  23
ENDBRANCH  20  21
ENDBRANCH  19  20
ENDBRANCH   5  19
ENDBRANCH   1   5
BRANCH   2  24
ATOM     24  C   UNL A   1      34.301 -32.543 -30.724  0.00  0.00    +0.025 C 
BRANCH  24  25
ATOM     25  C   UNL A   1      34.823 -33.828 -31.358  0.00  0.00    -0.029 C 
BRANCH  25  26
ATOM     26  C   UNL A   1      36.245 -34.138 -30.898  0.00  0.00    +0.010 C 
BRANCH  26  27
ATOM     27  N   UNL A   1      36.812 -35.167 -31.780  0.00  0.00    -0.343 N 
ATOM     28  H   UNL A   1      36.655 -35.210 -32.751  0.00  0.00    +0.000 HD
BRANCH  27  29
ATOM     29  C   UNL A   1      37.616 -36.097 -31.056  0.00  0.00    +0.041 A 
ATOM     30  C   UNL A   1      36.977 -37.048 -30.234  0.00  0.00    -0.005 A 
ATOM     31  C   UNL A   1      37.786 -37.921 -29.506  0.00  0.00    +0.047 A 
ATOM     32  N   UNL A   1      39.139 -37.865 -29.523  0.00  0.00    -0.251 NA
ATOM     33  C   UNL A   1      39.745 -36.954 -30.292  0.00  0.00    +0.074 A 
ATOM     34  C   UNL A   1      41.132 -36.934 -30.290  0.00  0.00    -0.017 A 
ATOM     35  C   UNL A   1      41.845 -36.016 -31.056  0.00  0.00    +0.043 A 
ATOM     36 CL   UNL A   1      43.565 -36.025 -31.027  0.00  0.00    -0.083 Cl
ATOM     37  C   UNL A   1      41.175 -35.093 -31.843  0.00  0.00    -0.043 A 
ATOM     38  C   UNL A   1      39.780 -35.097 -31.859  0.00  0.00    -0.049 A 
ATOM     39  C   UNL A   1      39.038 -36.027 -31.087  0.00  0.00    +0.022 A 
ATOM     40  C   UNL A   1      37.200 -38.964 -28.589  0.00  0.00    -0.010 C 
ATOM     41  C   UNL A   1      35.755 -39.317 -28.921  0.00  0.00    -0.047 C 
ATOM     42  C   UNL A   1      34.936 -38.045 -29.079  0.00  0.00    -0.049 C 
ATOM     43  C   UNL A   1      35.473 -37.204 -30.237  0.00  0.00    -0.024 C 
ENDBRANCH  27  29
ENDBRANCH  26  27
ENDBRANCH  25  26
ENDBRANCH  24  25
ENDBRANCH   2  24
TORSDOF 11
ENDMDL
MODEL 14
REMARK VINA RESULT:    -7.069     17.490     20.903
REMARK INTER + INTRA:         -14.035
REMARK INTER:                 -11.254
REMARK INTRA:                  -2.781
REMARK UNBOUND:                -2.420
REMARK  Name = cpd148.pdb
REMARK  11 active torsions:
REMARK  status: ('A' for Active; 'I' for Inactive)
REMARK    1  A    between atoms: C_2  and  C_3
REMARK    2  A    between atoms: C_3  and  S_4
REMARK    3  A    between atoms: S_4  and  C_5
REMARK    4  A    between atoms: C_5  and  C_6
REMARK    5  A    between atoms: C_6  and  N_7
REMARK    6  A    between atoms: C_6  and  C_29
REMARK    7  A    between atoms: C_8  and  C_10
REMARK    8  A    between atoms: C_10  and  C_11
REMARK    9  A    between atoms: C_11  and  C_12
REMARK   10  A    between atoms: C_12  and  N_13
REMARK   11  A    between atoms: N_13  and  C_14
REMARK                            x       y       z     vdW  Elec       q    Type
REMARK                         _______ _______ _______ _____ _____    ______ ____
ROOT
ATOM      1  N   UNL A   1      44.852 -17.377 -34.649  0.00  0.00    -0.303 N 
ATOM      2  C   UNL A   1      46.088 -17.887 -34.351  0.00  0.00    +0.214 C 
ATOM      3  O   UNL A   1      46.596 -17.794 -33.237  0.00  0.00    -0.276 OA
ATOM      4  H   UNL A   1      44.527 -17.423 -35.578  0.00  0.00    +0.000 HD
ENDROOT
BRANCH   1   5
ATOM      5  C   UNL A   1      44.001 -16.766 -33.631  0.00  0.00    +0.109 C 
BRANCH   5   6
ATOM      6  C   UNL A   1      42.621 -17.449 -33.739  0.00  0.00    +0.240 C 
ATOM      7  O   UNL A   1      41.608 -16.767 -33.884  0.00  0.00    -0.273 OA
ATOM      8  N   UNL A   1      42.680 -18.816 -33.589  0.00  0.00    -0.263 N 
ATOM      9  C   UNL A   1      41.623 -19.693 -33.591  0.00  0.00    +0.165 A 
ATOM     10  N   UNL A   1      41.832 -20.982 -33.477  0.00  0.00    -0.225 NA
ATOM     11  C   UNL A   1      40.617 -21.652 -33.504  0.00  0.00    +0.080 A 
ATOM     12  C   UNL A   1      40.437 -23.047 -33.412  0.00  0.00    -0.035 A 
ATOM     13  C   UNL A   1      39.146 -23.586 -33.455  0.00  0.00    -0.060 A 
ATOM     14  C   UNL A   1      38.039 -22.755 -33.590  0.00  0.00    -0.061 A 
ATOM     15  C   UNL A   1      38.191 -21.368 -33.682  0.00  0.00    -0.046 A 
ATOM     16  C   UNL A   1      39.491 -20.839 -33.637  0.00  0.00    +0.041 A 
ATOM     17  S   UNL A   1      40.003 -19.199 -33.723  0.00  0.00    -0.052 S 
ATOM     18  H   UNL A   1      43.575 -19.207 -33.468  0.00  0.00    +0.000 HD
ENDBRANCH   5   6
BRANCH   5  19
ATOM     19  C   UNL A   1      43.818 -15.256 -33.844  0.00  0.00    +0.022 C 
BRANCH  19  20
ATOM     20  S   UNL A   1      44.443 -14.589 -35.433  0.00  0.00    -0.146 S 
BRANCH  20  21
ATOM     21  C   UNL A   1      43.022 -14.943 -36.515  0.00  0.00    +0.055 C 
BRANCH  21  23
ATOM     22  C   UNL A   1      43.687 -16.698 -38.415  0.00  0.00    -0.118 C 
ATOM     23  C   UNL A   1      43.390 -15.905 -37.562  0.00  0.00    -0.095 C 
ENDBRANCH  21  23
ENDBRANCH  20  21
ENDBRANCH  19  20
ENDBRANCH   5  19
ENDBRANCH   1   5
BRANCH   2  24
ATOM     24  C   UNL A   1      46.774 -18.616 -35.488  0.00  0.00    +0.025 C 
BRANCH  24  25
ATOM     25  C   UNL A   1      46.989 -17.734 -36.714  0.00  0.00    -0.029 C 
BRANCH  25  26
ATOM     26  C   UNL A   1      46.835 -18.531 -38.007  0.00  0.00    +0.010 C 
BRANCH  26  27
ATOM     27  N   UNL A   1      46.658 -19.949 -37.667  0.00  0.00    -0.343 N 
ATOM     28  H   UNL A   1      47.107 -20.398 -36.914  0.00  0.00    +0.000 HD
BRANCH  27  29
ATOM     29  C   UNL A   1      45.754 -20.597 -38.561  0.00  0.00    +0.041 A 
ATOM     30  C   UNL A   1      46.258 -21.122 -39.769  0.00  0.00    -0.005 A 
ATOM     31  C   UNL A   1      45.350 -21.716 -40.645  0.00  0.00    +0.047 A 
ATOM     32  N   UNL A   1      44.018 -21.769 -40.406  0.00  0.00    -0.251 NA
ATOM     33  C   UNL A   1      43.537 -21.258 -39.268  0.00  0.00    +0.074 A 
ATOM     34  C   UNL A   1      42.169 -21.338 -39.056  0.00  0.00    -0.017 A 
ATOM     35  C   UNL A   1      41.584 -20.828 -37.901  0.00  0.00    +0.043 A 
ATOM     36 CL   UNL A   1      39.882 -20.949 -37.675  0.00  0.00    -0.083 Cl
ATOM     37  C   UNL A   1      42.365 -20.219 -36.931  0.00  0.00    -0.043 A 
ATOM     38  C   UNL A   1      43.743 -20.128 -37.126  0.00  0.00    -0.049 A 
ATOM     39  C   UNL A   1      44.357 -20.646 -38.295  0.00  0.00    +0.022 A 
ATOM     40  C   UNL A   1      45.787 -22.296 -41.966  0.00  0.00    -0.010 C 
ATOM     41  C   UNL A   1      47.270 -22.642 -42.013  0.00  0.00    -0.047 C 
ATOM     42  C   UNL A   1      48.091 -21.465 -41.506  0.00  0.00    -0.049 C 
ATOM     43  C   UNL A   1      47.744 -21.159 -40.050  0.00  0.00    -0.024 C 
ENDBRANCH  27  29
ENDBRANCH  26  27
ENDBRANCH  25  26
ENDBRANCH  24  25
ENDBRANCH   2  24
TORSDOF 11
ENDMDL
MODEL 15
REMARK VINA RESULT:    -6.962     19.661     23.453
REMARK INTER + INTRA:         -13.859
REMARK INTER:                 -11.588
REMARK INTRA:                  -2.271
REMARK UNBOUND:                -2.420
REMARK  Name = cpd148.pdb
REMARK  11 active torsions:
REMARK  status: ('A' for Active; 'I' for Inactive)
REMARK    1  A    between atoms: C_2  and  C_3
REMARK    2  A    between atoms: C_3  and  S_4
REMARK    3  A    between atoms: S_4  and  C_5
REMARK    4  A    between atoms: C_5  and  C_6
REMARK    5  A    between atoms: C_6  and  N_7
REMARK    6  A    between atoms: C_6  and  C_29
REMARK    7  A    between atoms: C_8  and  C_10
REMARK    8  A    between atoms: C_10  and  C_11
REMARK    9  A    between atoms: C_11  and  C_12
REMARK   10  A    between atoms: C_12  and  N_13
REMARK   11  A    between atoms: N_13  and  C_14
REMARK                            x       y       z     vdW  Elec       q    Type
REMARK                         _______ _______ _______ _____ _____    ______ ____
ROOT
ATOM      1  N   UNL A   1      45.176 -16.863 -35.211  0.00  0.00    -0.303 N 
ATOM      2  C   UNL A   1      46.147 -17.643 -34.640  0.00  0.00    +0.214 C 
ATOM      3  O   UNL A   1      46.016 -18.167 -33.537  0.00  0.00    -0.276 OA
ATOM      4  H   UNL A   1      45.366 -16.415 -36.067  0.00  0.00    +0.000 HD
ENDROOT
BRANCH   1   5
ATOM      5  C   UNL A   1      43.866 -16.678 -34.589  0.00  0.00    +0.109 C 
BRANCH   5   6
ATOM      6  C   UNL A   1      42.955 -17.798 -35.135  0.00  0.00    +0.240 C 
ATOM      7  O   UNL A   1      42.069 -18.269 -34.425  0.00  0.00    -0.273 OA
ATOM      8  N   UNL A   1      43.300 -18.208 -36.403  0.00  0.00    -0.263 N 
ATOM      9  C   UNL A   1      42.712 -19.209 -37.136  0.00  0.00    +0.165 A 
ATOM     10  N   UNL A   1      43.120 -19.466 -38.354  0.00  0.00    -0.225 NA
ATOM     11  C   UNL A   1      42.378 -20.513 -38.881  0.00  0.00    +0.080 A 
ATOM     12  C   UNL A   1      42.524 -21.068 -40.168  0.00  0.00    -0.035 A 
ATOM     13  C   UNL A   1      41.698 -22.127 -40.567  0.00  0.00    -0.060 A 
ATOM     14  C   UNL A   1      40.734 -22.633 -39.701  0.00  0.00    -0.061 A 
ATOM     15  C   UNL A   1      40.570 -22.100 -38.419  0.00  0.00    -0.046 A 
ATOM     16  C   UNL A   1      41.404 -21.040 -38.031  0.00  0.00    +0.041 A 
ATOM     17  S   UNL A   1      41.451 -20.181 -36.541  0.00  0.00    -0.052 S 
ATOM     18  H   UNL A   1      44.048 -17.732 -36.831  0.00  0.00    +0.000 HD
ENDBRANCH   5   6
BRANCH   5  19
ATOM     19  C   UNL A   1      43.237 -15.321 -34.936  0.00  0.00    +0.022 C 
BRANCH  19  20
ATOM     20  S   UNL A   1      43.748 -13.908 -33.886  0.00  0.00    -0.146 S 
BRANCH  20  21
ATOM     21  C   UNL A   1      43.422 -14.596 -32.232  0.00  0.00    +0.055 C 
BRANCH  21  23
ATOM     22  C   UNL A   1      44.710 -13.204 -30.352  0.00  0.00    -0.118 C 
ATOM     23  C   UNL A   1      44.127 -13.827 -31.198  0.00  0.00    -0.095 C 
ENDBRANCH  21  23
ENDBRANCH  20  21
ENDBRANCH  19  20
ENDBRANCH   5  19
ENDBRANCH   1   5
BRANCH   2  24
ATOM     24  C   UNL A   1      47.387 -17.849 -35.485  0.00  0.00    +0.025 C 
BRANCH  24  25
ATOM     25  C   UNL A   1      47.221 -17.343 -36.915  0.00  0.00    -0.029 C 
BRANCH  25  26
ATOM     26  C   UNL A   1      46.782 -18.464 -37.854  0.00  0.00    +0.010 C 
BRANCH  26  27
ATOM     27  N   UNL A   1      47.254 -18.153 -39.210  0.00  0.00    -0.343 N 
ATOM     28  H   UNL A   1      48.186 -17.928 -39.433  0.00  0.00    +0.000 HD
BRANCH  27  29
ATOM     29  C   UNL A   1      46.195 -18.219 -40.164  0.00  0.00    +0.041 A 
ATOM     30  C   UNL A   1      46.078 -19.372 -40.966  0.00  0.00    -0.005 A 
ATOM     31  C   UNL A   1      45.060 -19.397 -41.919  0.00  0.00    +0.047 A 
ATOM     32  N   UNL A   1      44.219 -18.357 -42.131  0.00  0.00    -0.251 NA
ATOM     33  C   UNL A   1      44.339 -17.256 -41.380  0.00  0.00    +0.074 A 
ATOM     34  C   UNL A   1      43.455 -16.215 -41.621  0.00  0.00    -0.017 A 
ATOM     35  C   UNL A   1      43.512 -15.032 -40.891  0.00  0.00    +0.043 A 
ATOM     36 CL   UNL A   1      42.396 -13.765 -41.221  0.00  0.00    -0.083 Cl
ATOM     37  C   UNL A   1      44.466 -14.868 -39.899  0.00  0.00    -0.043 A 
ATOM     38  C   UNL A   1      45.364 -15.903 -39.642  0.00  0.00    -0.049 A 
ATOM     39  C   UNL A   1      45.319 -17.117 -40.374  0.00  0.00    +0.022 A 
ATOM     40  C   UNL A   1      44.858 -20.578 -42.833  0.00  0.00    -0.010 C 
ATOM     41  C   UNL A   1      45.470 -21.868 -42.297  0.00  0.00    -0.047 C 
ATOM     42  C   UNL A   1      46.903 -21.613 -41.855  0.00  0.00    -0.049 C 
ATOM     43  C   UNL A   1      46.939 -20.591 -40.720  0.00  0.00    -0.024 C 
ENDBRANCH  27  29
ENDBRANCH  26  27
ENDBRANCH  25  26
ENDBRANCH  24  25
ENDBRANCH   2  24
TORSDOF 11
ENDMDL
MODEL 16
REMARK VINA RESULT:    -6.919     18.967     22.328
REMARK INTER + INTRA:         -13.788
REMARK INTER:                 -11.327
REMARK INTRA:                  -2.461
REMARK UNBOUND:                -2.420
REMARK  Name = cpd148.pdb
REMARK  11 active torsions:
REMARK  status: ('A' for Active; 'I' for Inactive)
REMARK    1  A    between atoms: C_2  and  C_3
REMARK    2  A    between atoms: C_3  and  S_4
REMARK    3  A    between atoms: S_4  and  C_5
REMARK    4  A    between atoms: C_5  and  C_6
REMARK    5  A    between atoms: C_6  and  N_7
REMARK    6  A    between atoms: C_6  and  C_29
REMARK    7  A    between atoms: C_8  and  C_10
REMARK    8  A    between atoms: C_10  and  C_11
REMARK    9  A    between atoms: C_11  and  C_12
REMARK   10  A    between atoms: C_12  and  N_13
REMARK   11  A    between atoms: N_13  and  C_14
REMARK                            x       y       z     vdW  Elec       q    Type
REMARK                         _______ _______ _______ _____ _____    ______ ____
ROOT
ATOM      1  N   UNL A   1      45.507 -17.251 -34.715  0.00  0.00    -0.303 N 
ATOM      2  C   UNL A   1      46.809 -17.665 -34.609  0.00  0.00    +0.214 C 
ATOM      3  O   UNL A   1      47.411 -17.697 -33.540  0.00  0.00    -0.276 OA
ATOM      4  H   UNL A   1      45.099 -17.183 -35.609  0.00  0.00    +0.000 HD
ENDROOT
BRANCH   1   5
ATOM      5  C   UNL A   1      44.705 -16.910 -33.542  0.00  0.00    +0.109 C 
BRANCH   5   6
ATOM      6  C   UNL A   1      43.742 -18.092 -33.305  0.00  0.00    +0.240 C 
ATOM      7  O   UNL A   1      44.185 -19.234 -33.202  0.00  0.00    -0.273 OA
ATOM      8  N   UNL A   1      42.416 -17.718 -33.299  0.00  0.00    -0.263 N 
ATOM      9  C   UNL A   1      41.327 -18.542 -33.158  0.00  0.00    +0.165 A 
ATOM     10  N   UNL A   1      40.116 -18.041 -33.131  0.00  0.00    -0.225 NA
ATOM     11  C   UNL A   1      39.193 -19.066 -32.982  0.00  0.00    +0.080 A 
ATOM     12  C   UNL A   1      37.794 -18.917 -32.907  0.00  0.00    -0.035 A 
ATOM     13  C   UNL A   1      36.982 -20.048 -32.755  0.00  0.00    -0.060 A 
ATOM     14  C   UNL A   1      37.547 -21.316 -32.675  0.00  0.00    -0.061 A 
ATOM     15  C   UNL A   1      38.932 -21.490 -32.747  0.00  0.00    -0.046 A 
ATOM     16  C   UNL A   1      39.736 -20.349 -32.902  0.00  0.00    +0.041 A 
ATOM     17  S   UNL A   1      41.447 -20.232 -33.023  0.00  0.00    -0.052 S 
ATOM     18  H   UNL A   1      42.230 -16.758 -33.408  0.00  0.00    +0.000 HD
ENDBRANCH   5   6
BRANCH   5  19
ATOM     19  C   UNL A   1      43.875 -15.635 -33.748  0.00  0.00    +0.022 C 
BRANCH  19  20
ATOM     20  S   UNL A   1      44.002 -14.852 -35.401  0.00  0.00    -0.146 S 
BRANCH  20  21
ATOM     21  C   UNL A   1      42.484 -15.489 -36.180  0.00  0.00    +0.055 C 
BRANCH  21  23
ATOM     22  C   UNL A   1      42.919 -17.889 -37.267  0.00  0.00    -0.118 C 
ATOM     23  C   UNL A   1      42.719 -16.808 -36.779  0.00  0.00    -0.095 C 
ENDBRANCH  21  23
ENDBRANCH  20  21
ENDBRANCH  19  20
ENDBRANCH   5  19
ENDBRANCH   1   5
BRANCH   2  24
ATOM     24  C   UNL A   1      47.446 -18.121 -35.905  0.00  0.00    +0.025 C 
BRANCH  24  25
ATOM     25  C   UNL A   1      47.270 -19.615 -36.159  0.00  0.00    -0.029 C 
BRANCH  25  26
ATOM     26  C   UNL A   1      46.483 -19.872 -37.442  0.00  0.00    +0.010 C 
BRANCH  26  27
ATOM     27  N   UNL A   1      47.203 -19.261 -38.567  0.00  0.00    -0.343 N 
ATOM     28  H   UNL A   1      48.177 -19.115 -38.586  0.00  0.00    +0.000 HD
BRANCH  27  29
ATOM     29  C   UNL A   1      46.319 -18.906 -39.629  0.00  0.00    +0.041 A 
ATOM     30  C   UNL A   1      46.057 -19.855 -40.637  0.00  0.00    -0.005 A 
ATOM     31  C   UNL A   1      45.221 -19.472 -41.685  0.00  0.00    +0.047 A 
ATOM     32  N   UNL A   1      44.692 -18.230 -41.794  0.00  0.00    -0.251 NA
ATOM     33  C   UNL A   1      44.953 -17.323 -40.846  0.00  0.00    +0.074 A 
ATOM     34  C   UNL A   1      44.388 -16.065 -40.988  0.00  0.00    -0.017 A 
ATOM     35  C   UNL A   1      44.609 -15.061 -40.051  0.00  0.00    +0.043 A 
ATOM     36 CL   UNL A   1      43.889 -13.513 -40.263  0.00  0.00    -0.083 Cl
ATOM     37  C   UNL A   1      45.411 -15.300 -38.946  0.00  0.00    -0.043 A 
ATOM     38  C   UNL A   1      45.989 -16.559 -38.785  0.00  0.00    -0.049 A 
ATOM     39  C   UNL A   1      45.771 -17.595 -39.728  0.00  0.00    +0.022 A 
ATOM     40  C   UNL A   1      44.889 -20.410 -42.818  0.00  0.00    -0.010 C 
ATOM     41  C   UNL A   1      45.088 -21.879 -42.464  0.00  0.00    -0.047 C 
ATOM     42  C   UNL A   1      46.455 -22.074 -41.825  0.00  0.00    -0.049 C 
ATOM     43  C   UNL A   1      46.557 -21.278 -40.525  0.00  0.00    -0.024 C 
ENDBRANCH  27  29
ENDBRANCH  26  27
ENDBRANCH  25  26
ENDBRANCH  24  25
ENDBRANCH   2  24
TORSDOF 11
ENDMDL
MODEL 17
REMARK VINA RESULT:    -6.846     17.172     21.826
REMARK INTER + INTRA:         -13.669
REMARK INTER:                 -12.015
REMARK INTRA:                  -1.654
REMARK UNBOUND:                -2.420
REMARK  Name = cpd148.pdb
REMARK  11 active torsions:
REMARK  status: ('A' for Active; 'I' for Inactive)
REMARK    1  A    between atoms: C_2  and  C_3
REMARK    2  A    between atoms: C_3  and  S_4
REMARK    3  A    between atoms: S_4  and  C_5
REMARK    4  A    between atoms: C_5  and  C_6
REMARK    5  A    between atoms: C_6  and  N_7
REMARK    6  A    between atoms: C_6  and  C_29
REMARK    7  A    between atoms: C_8  and  C_10
REMARK    8  A    between atoms: C_10  and  C_11
REMARK    9  A    between atoms: C_11  and  C_12
REMARK   10  A    between atoms: C_12  and  N_13
REMARK   11  A    between atoms: N_13  and  C_14
REMARK                            x       y       z     vdW  Elec       q    Type
REMARK                         _______ _______ _______ _____ _____    ______ ____
ROOT
ATOM      1  N   UNL A   1      43.653 -17.526 -37.449  0.00  0.00    -0.303 N 
ATOM      2  C   UNL A   1      42.301 -17.332 -37.346  0.00  0.00    +0.214 C 
ATOM      3  O   UNL A   1      41.669 -16.619 -38.121  0.00  0.00    -0.276 OA
ATOM      4  H   UNL A   1      44.114 -18.054 -36.758  0.00  0.00    +0.000 HD
ENDROOT
BRANCH   1   5
ATOM      5  C   UNL A   1      44.432 -16.972 -38.555  0.00  0.00    +0.109 C 
BRANCH   5   6
ATOM      6  C   UNL A   1      44.566 -18.093 -39.607  0.00  0.00    +0.240 C 
ATOM      7  O   UNL A   1      43.703 -18.230 -40.471  0.00  0.00    -0.273 OA
ATOM      8  N   UNL A   1      45.667 -18.896 -39.406  0.00  0.00    -0.263 N 
ATOM      9  C   UNL A   1      46.031 -19.996 -40.142  0.00  0.00    +0.165 A 
ATOM     10  N   UNL A   1      47.133 -20.647 -39.861  0.00  0.00    -0.225 NA
ATOM     11  C   UNL A   1      47.280 -21.712 -40.737  0.00  0.00    +0.080 A 
ATOM     12  C   UNL A   1      48.345 -22.636 -40.748  0.00  0.00    -0.035 A 
ATOM     13  C   UNL A   1      48.362 -23.665 -41.697  0.00  0.00    -0.060 A 
ATOM     14  C   UNL A   1      47.336 -23.782 -42.629  0.00  0.00    -0.061 A 
ATOM     15  C   UNL A   1      46.268 -22.878 -42.638  0.00  0.00    -0.046 A 
ATOM     16  C   UNL A   1      46.262 -21.851 -41.681  0.00  0.00    +0.041 A 
ATOM     17  S   UNL A   1      45.107 -20.602 -41.433  0.00  0.00    -0.052 S 
ATOM     18  H   UNL A   1      46.256 -18.655 -38.656  0.00  0.00    +0.000 HD
ENDBRANCH   5   6
BRANCH   5  19
ATOM     19  C   UNL A   1      45.839 -16.534 -38.123  0.00  0.00    +0.022 C 
BRANCH  19  20
ATOM     20  S   UNL A   1      46.106 -16.359 -36.318  0.00  0.00    -0.146 S 
BRANCH  20  21
ATOM     21  C   UNL A   1      47.369 -17.643 -36.049  0.00  0.00    +0.055 C 
BRANCH  21  23
ATOM     22  C   UNL A   1      46.284 -20.082 -36.129  0.00  0.00    -0.118 C 
ATOM     23  C   UNL A   1      46.768 -18.983 -36.093  0.00  0.00    -0.095 C 
ENDBRANCH  21  23
ENDBRANCH  20  21
ENDBRANCH  19  20
ENDBRANCH   5  19
ENDBRANCH   1   5
BRANCH   2  24
ATOM     24  C   UNL A   1      41.626 -18.096 -36.226  0.00  0.00    +0.025 C 
BRANCH  24  25
ATOM     25  C   UNL A   1      42.596 -18.963 -35.429  0.00  0.00    -0.029 C 
BRANCH  25  26
ATOM     26  C   UNL A   1      41.914 -20.224 -34.905  0.00  0.00    +0.010 C 
BRANCH  26  27
ATOM     27  N   UNL A   1      41.529 -20.004 -33.505  0.00  0.00    -0.343 N 
ATOM     28  H   UNL A   1      42.168 -19.825 -32.777  0.00  0.00    +0.000 HD
BRANCH  27  29
ATOM     29  C   UNL A   1      40.115 -20.082 -33.328  0.00  0.00    +0.041 A 
ATOM     30  C   UNL A   1      39.408 -18.906 -33.004  0.00  0.00    -0.005 A 
ATOM     31  C   UNL A   1      38.033 -19.014 -32.798  0.00  0.00    +0.047 A 
ATOM     32  N   UNL A   1      37.366 -20.191 -32.853  0.00  0.00    -0.251 NA
ATOM     33  C   UNL A   1      38.039 -21.310 -33.146  0.00  0.00    +0.074 A 
ATOM     34  C   UNL A   1      37.321 -22.495 -33.202  0.00  0.00    -0.017 A 
ATOM     35  C   UNL A   1      37.941 -23.706 -33.494  0.00  0.00    +0.043 A 
ATOM     36 CL   UNL A   1      37.013 -25.154 -33.554  0.00  0.00    -0.083 Cl
ATOM     37  C   UNL A   1      39.305 -23.752 -33.736  0.00  0.00    -0.043 A 
ATOM     38  C   UNL A   1      40.045 -22.571 -33.685  0.00  0.00    -0.049 A 
ATOM     39  C   UNL A   1      39.429 -21.328 -33.391  0.00  0.00    +0.022 A 
ATOM     40  C   UNL A   1      37.190 -17.818 -32.436  0.00  0.00    -0.010 C 
ATOM     41  C   UNL A   1      37.829 -16.489 -32.823  0.00  0.00    -0.047 C 
ATOM     42  C   UNL A   1      39.271 -16.450 -32.339  0.00  0.00    -0.049 C 
ATOM     43  C   UNL A   1      40.088 -17.556 -33.006  0.00  0.00    -0.024 C 
ENDBRANCH  27  29
ENDBRANCH  26  27
ENDBRANCH  25  26
ENDBRANCH  24  25
ENDBRANCH   2  24
TORSDOF 11
ENDMDL
MODEL 18
REMARK VINA RESULT:    -6.754     17.590     21.141
REMARK INTER + INTRA:         -13.517
REMARK INTER:                 -11.408
REMARK INTRA:                  -2.109
REMARK UNBOUND:                -2.420
REMARK  Name = cpd148.pdb
REMARK  11 active torsions:
REMARK  status: ('A' for Active; 'I' for Inactive)
REMARK    1  A    between atoms: C_2  and  C_3
REMARK    2  A    between atoms: C_3  and  S_4
REMARK    3  A    between atoms: S_4  and  C_5
REMARK    4  A    between atoms: C_5  and  C_6
REMARK    5  A    between atoms: C_6  and  N_7
REMARK    6  A    between atoms: C_6  and  C_29
REMARK    7  A    between atoms: C_8  and  C_10
REMARK    8  A    between atoms: C_10  and  C_11
REMARK    9  A    between atoms: C_11  and  C_12
REMARK   10  A    between atoms: C_12  and  N_13
REMARK   11  A    between atoms: N_13  and  C_14
REMARK                            x       y       z     vdW  Elec       q    Type
REMARK                         _______ _______ _______ _____ _____    ______ ____
ROOT
ATOM      1  N   UNL A   1      44.215 -16.580 -33.784  0.00  0.00    -0.303 N 
ATOM      2  C   UNL A   1      45.145 -17.552 -33.523  0.00  0.00    +0.214 C 
ATOM      3  O   UNL A   1      45.331 -18.010 -32.399  0.00  0.00    -0.276 OA
ATOM      4  H   UNL A   1      44.159 -16.204 -34.692  0.00  0.00    +0.000 HD
ENDROOT
BRANCH   1   5
ATOM      5  C   UNL A   1      43.304 -16.084 -32.754  0.00  0.00    +0.109 C 
BRANCH   5   6
ATOM      6  C   UNL A   1      42.001 -16.901 -32.887  0.00  0.00    +0.240 C 
ATOM      7  O   UNL A   1      40.912 -16.331 -32.849  0.00  0.00    -0.273 OA
ATOM      8  N   UNL A   1      42.218 -18.258 -32.973  0.00  0.00    -0.263 N 
ATOM      9  C   UNL A   1      41.265 -19.243 -33.054  0.00  0.00    +0.165 A 
ATOM     10  N   UNL A   1      41.618 -20.499 -33.172  0.00  0.00    -0.225 NA
ATOM     11  C   UNL A   1      40.485 -21.297 -33.233  0.00  0.00    +0.080 A 
ATOM     12  C   UNL A   1      40.464 -22.700 -33.366  0.00  0.00    -0.035 A 
ATOM     13  C   UNL A   1      39.238 -23.375 -33.416  0.00  0.00    -0.060 A 
ATOM     14  C   UNL A   1      38.041 -22.671 -33.337  0.00  0.00    -0.061 A 
ATOM     15  C   UNL A   1      38.035 -21.279 -33.205  0.00  0.00    -0.046 A 
ATOM     16  C   UNL A   1      39.271 -20.613 -33.155  0.00  0.00    +0.041 A 
ATOM     17  S   UNL A   1      39.595 -18.931 -32.997  0.00  0.00    -0.052 S 
ATOM     18  H   UNL A   1      43.156 -18.554 -32.978  0.00  0.00    +0.000 HD
ENDBRANCH   5   6
BRANCH   5  19
ATOM     19  C   UNL A   1      42.969 -14.596 -32.930  0.00  0.00    +0.022 C 
BRANCH  19  20
ATOM     20  S   UNL A   1      43.036 -13.574 -31.410  0.00  0.00    -0.146 S 
BRANCH  20  21
ATOM     21  C   UNL A   1      43.779 -12.050 -32.075  0.00  0.00    +0.055 C 
BRANCH  21  23
ATOM     22  C   UNL A   1      46.225 -11.677 -31.070  0.00  0.00    -0.118 C 
ATOM     23  C   UNL A   1      45.126 -11.845 -31.526  0.00  0.00    -0.095 C 
ENDBRANCH  21  23
ENDBRANCH  20  21
ENDBRANCH  19  20
ENDBRANCH   5  19
ENDBRANCH   1   5
BRANCH   2  24
ATOM     24  C   UNL A   1      45.906 -18.055 -34.732  0.00  0.00    +0.025 C 
BRANCH  24  25
ATOM     25  C   UNL A   1      45.903 -19.577 -34.844  0.00  0.00    -0.029 C 
BRANCH  25  26
ATOM     26  C   UNL A   1      44.549 -20.096 -35.321  0.00  0.00    +0.010 C 
BRANCH  26  27
ATOM     27  N   UNL A   1      44.106 -19.280 -36.460  0.00  0.00    -0.343 N 
ATOM     28  H   UNL A   1      44.043 -18.298 -36.444  0.00  0.00    +0.000 HD
BRANCH  27  29
ATOM     29  C   UNL A   1      43.778 -20.086 -37.590  0.00  0.00    +0.041 A 
ATOM     30  C   UNL A   1      42.464 -20.581 -37.710  0.00  0.00    -0.005 A 
ATOM     31  C   UNL A   1      42.178 -21.400 -38.803  0.00  0.00    +0.047 A 
ATOM     32  N   UNL A   1      43.107 -21.767 -39.716  0.00  0.00    -0.251 NA
ATOM     33  C   UNL A   1      44.359 -21.310 -39.595  0.00  0.00    +0.074 A 
ATOM     34  C   UNL A   1      45.280 -21.701 -40.554  0.00  0.00    -0.017 A 
ATOM     35  C   UNL A   1      46.605 -21.277 -40.502  0.00  0.00    +0.043 A 
ATOM     36 CL   UNL A   1      47.718 -21.784 -41.713  0.00  0.00    -0.083 Cl
ATOM     37  C   UNL A   1      47.034 -20.447 -39.478  0.00  0.00    -0.043 A 
ATOM     38  C   UNL A   1      46.122 -20.042 -38.503  0.00  0.00    -0.049 A 
ATOM     39  C   UNL A   1      44.768 -20.463 -38.542  0.00  0.00    +0.022 A 
ATOM     40  C   UNL A   1      40.806 -21.989 -39.014  0.00  0.00    -0.010 C 
ATOM     41  C   UNL A   1      39.704 -21.228 -38.287  0.00  0.00    -0.047 C 
ATOM     42  C   UNL A   1      40.106 -20.997 -36.838  0.00  0.00    -0.049 C 
ATOM     43  C   UNL A   1      41.370 -20.141 -36.764  0.00  0.00    -0.024 C 
ENDBRANCH  27  29
ENDBRANCH  26  27
ENDBRANCH  25  26
ENDBRANCH  24  25
ENDBRANCH   2  24
TORSDOF 11
ENDMDL
MODEL 19
REMARK VINA RESULT:    -6.754     17.222     20.676
REMARK INTER + INTRA:         -13.517
REMARK INTER:                 -11.599
REMARK INTRA:                  -1.918
REMARK UNBOUND:                -2.420
REMARK  Name = cpd148.pdb
REMARK  11 active torsions:
REMARK  status: ('A' for Active; 'I' for Inactive)
REMARK    1  A    between atoms: C_2  and  C_3
REMARK    2  A    between atoms: C_3  and  S_4
REMARK    3  A    between atoms: S_4  and  C_5
REMARK    4  A    between atoms: C_5  and  C_6
REMARK    5  A    between atoms: C_6  and  N_7
REMARK    6  A    between atoms: C_6  and  C_29
REMARK    7  A    between atoms: C_8  and  C_10
REMARK    8  A    between atoms: C_10  and  C_11
REMARK    9  A    between atoms: C_11  and  C_12
REMARK   10  A    between atoms: C_12  and  N_13
REMARK   11  A    between atoms: N_13  and  C_14
REMARK                            x       y       z     vdW  Elec       q    Type
REMARK                         _______ _______ _______ _____ _____    ______ ____
ROOT
ATOM      1  N   UNL A   1      40.760 -21.244 -36.636  0.00  0.00    -0.303 N 
ATOM      2  C   UNL A   1      40.397 -21.157 -37.954  0.00  0.00    +0.214 C 
ATOM      3  O   UNL A   1      39.250 -20.903 -38.313  0.00  0.00    -0.276 OA
ATOM      4  H   UNL A   1      41.679 -21.517 -36.411  0.00  0.00    +0.000 HD
ENDROOT
BRANCH   1   5
ATOM      5  C   UNL A   1      39.825 -20.944 -35.554  0.00  0.00    +0.109 C 
BRANCH   5   6
ATOM      6  C   UNL A   1      40.230 -19.566 -34.989  0.00  0.00    +0.240 C 
ATOM      7  O   UNL A   1      39.521 -18.583 -35.199  0.00  0.00    -0.273 OA
ATOM      8  N   UNL A   1      41.439 -19.584 -34.331  0.00  0.00    -0.263 N 
ATOM      9  C   UNL A   1      42.086 -18.515 -33.761  0.00  0.00    +0.165 A 
ATOM     10  N   UNL A   1      43.220 -18.687 -33.128  0.00  0.00    -0.225 NA
ATOM     11  C   UNL A   1      43.672 -17.467 -32.647  0.00  0.00    +0.080 A 
ATOM     12  C   UNL A   1      44.855 -17.252 -31.912  0.00  0.00    -0.035 A 
ATOM     13  C   UNL A   1      45.186 -15.959 -31.488  0.00  0.00    -0.060 A 
ATOM     14  C   UNL A   1      44.354 -14.885 -31.787  0.00  0.00    -0.061 A 
ATOM     15  C   UNL A   1      43.175 -15.071 -32.515  0.00  0.00    -0.046 A 
ATOM     16  C   UNL A   1      42.855 -16.373 -32.936  0.00  0.00    +0.041 A 
ATOM     17  S   UNL A   1      41.497 -16.922 -33.837  0.00  0.00    -0.052 S 
ATOM     18  H   UNL A   1      41.888 -20.457 -34.260  0.00  0.00    +0.000 HD
ENDBRANCH   5   6
BRANCH   5  19
ATOM     19  C   UNL A   1      39.886 -21.976 -34.419  0.00  0.00    +0.022 C 
BRANCH  19  20
ATOM     20  S   UNL A   1      38.275 -22.646 -33.856  0.00  0.00    -0.146 S 
BRANCH  20  21
ATOM     21  C   UNL A   1      38.807 -24.253 -33.186  0.00  0.00    +0.055 C 
BRANCH  21  23
ATOM     22  C   UNL A   1      41.163 -24.027 -31.950  0.00  0.00    -0.118 C 
ATOM     23  C   UNL A   1      40.104 -24.132 -32.508  0.00  0.00    -0.095 C 
ENDBRANCH  21  23
ENDBRANCH  20  21
ENDBRANCH  19  20
ENDBRANCH   5  19
ENDBRANCH   1   5
BRANCH   2  24
ATOM     24  C   UNL A   1      41.523 -21.356 -38.946  0.00  0.00    +0.025 C 
BRANCH  24  25
ATOM     25  C   UNL A   1      41.850 -20.092 -39.736  0.00  0.00    -0.029 C 
BRANCH  25  26
ATOM     26  C   UNL A   1      42.499 -19.034 -38.848  0.00  0.00    +0.010 C 
BRANCH  26  27
ATOM     27  N   UNL A   1      43.755 -18.599 -39.475  0.00  0.00    -0.343 N 
ATOM     28  H   UNL A   1      43.818 -17.883 -40.147  0.00  0.00    +0.000 HD
BRANCH  27  29
ATOM     29  C   UNL A   1      44.871 -19.344 -38.989  0.00  0.00    +0.041 A 
ATOM     30  C   UNL A   1      45.436 -18.985 -37.748  0.00  0.00    -0.005 A 
ATOM     31  C   UNL A   1      46.551 -19.701 -37.314  0.00  0.00    +0.047 A 
ATOM     32  N   UNL A   1      47.130 -20.684 -38.043  0.00  0.00    -0.251 NA
ATOM     33  C   UNL A   1      46.603 -21.016 -39.227  0.00  0.00    +0.074 A 
ATOM     34  C   UNL A   1      47.219 -22.032 -39.941  0.00  0.00    -0.017 A 
ATOM     35  C   UNL A   1      46.742 -22.438 -41.184  0.00  0.00    +0.043 A 
ATOM     36 CL   UNL A   1      47.534 -23.705 -42.037  0.00  0.00    -0.083 Cl
ATOM     37  C   UNL A   1      45.630 -21.825 -41.739  0.00  0.00    -0.043 A 
ATOM     38  C   UNL A   1      44.996 -20.799 -41.037  0.00  0.00    -0.049 A 
ATOM     39  C   UNL A   1      45.468 -20.376 -39.768  0.00  0.00    +0.022 A 
ATOM     40  C   UNL A   1      47.235 -19.387 -36.007  0.00  0.00    -0.010 C 
ATOM     41  C   UNL A   1      46.342 -18.640 -35.023  0.00  0.00    -0.047 C 
ATOM     42  C   UNL A   1      45.678 -17.462 -35.720  0.00  0.00    -0.049 C 
ATOM     43  C   UNL A   1      44.785 -17.949 -36.860  0.00  0.00    -0.024 C 
ENDBRANCH  27  29
ENDBRANCH  26  27
ENDBRANCH  25  26
ENDBRANCH  24  25
ENDBRANCH   2  24
TORSDOF 11
ENDMDL
MODEL 20
REMARK VINA RESULT:    -6.294     18.102     21.646
REMARK INTER + INTRA:         -12.762
REMARK INTER:                 -10.835
REMARK INTRA:                  -1.927
REMARK UNBOUND:                -2.420
REMARK  Name = cpd148.pdb
REMARK  11 active torsions:
REMARK  status: ('A' for Active; 'I' for Inactive)
REMARK    1  A    between atoms: C_2  and  C_3
REMARK    2  A    between atoms: C_3  and  S_4
REMARK    3  A    between atoms: S_4  and  C_5
REMARK    4  A    between atoms: C_5  and  C_6
REMARK    5  A    between atoms: C_6  and  N_7
REMARK    6  A    between atoms: C_6  and  C_29
REMARK    7  A    between atoms: C_8  and  C_10
REMARK    8  A    between atoms: C_10  and  C_11
REMARK    9  A    between atoms: C_11  and  C_12
REMARK   10  A    between atoms: C_12  and  N_13
REMARK   11  A    between atoms: N_13  and  C_14
REMARK                            x       y       z     vdW  Elec       q    Type
REMARK                         _______ _______ _______ _____ _____    ______ ____
ROOT
ATOM      1  N   UNL A   1      45.239 -16.878 -34.731  0.00  0.00    -0.303 N 
ATOM      2  C   UNL A   1      46.293 -17.213 -35.540  0.00  0.00    +0.214 C 
ATOM      3  O   UNL A   1      47.244 -17.885 -35.150  0.00  0.00    -0.276 OA
ATOM      4  H   UNL A   1      44.540 -16.281 -35.081  0.00  0.00    +0.000 HD
ENDROOT
BRANCH   1   5
ATOM      5  C   UNL A   1      45.122 -17.383 -33.364  0.00  0.00    +0.109 C 
BRANCH   5   6
ATOM      6  C   UNL A   1      44.240 -18.647 -33.433  0.00  0.00    +0.240 C 
ATOM      7  O   UNL A   1      44.749 -19.738 -33.682  0.00  0.00    -0.273 OA
ATOM      8  N   UNL A   1      42.900 -18.383 -33.260  0.00  0.00    -0.263 N 
ATOM      9  C   UNL A   1      41.867 -19.286 -33.312  0.00  0.00    +0.165 A 
ATOM     10  N   UNL A   1      40.635 -18.898 -33.088  0.00  0.00    -0.225 NA
ATOM     11  C   UNL A   1      39.780 -19.984 -33.198  0.00  0.00    +0.080 A 
ATOM     12  C   UNL A   1      38.381 -19.960 -33.021  0.00  0.00    -0.035 A 
ATOM     13  C   UNL A   1      37.642 -21.141 -33.163  0.00  0.00    -0.060 A 
ATOM     14  C   UNL A   1      38.278 -22.337 -33.476  0.00  0.00    -0.061 A 
ATOM     15  C   UNL A   1      39.663 -22.388 -33.658  0.00  0.00    -0.046 A 
ATOM     16  C   UNL A   1      40.394 -21.197 -33.514  0.00  0.00    +0.041 A 
ATOM     17  S   UNL A   1      42.086 -20.932 -33.674  0.00  0.00    -0.052 S 
ATOM     18  H   UNL A   1      42.656 -17.447 -33.080  0.00  0.00    +0.000 HD
ENDBRANCH   5   6
BRANCH   5  19
ATOM     19  C   UNL A   1      44.457 -16.372 -32.419  0.00  0.00    +0.022 C 
BRANCH  19  20
ATOM     20  S   UNL A   1      43.894 -14.806 -33.186  0.00  0.00    -0.146 S 
BRANCH  20  21
ATOM     21  C   UNL A   1      43.359 -13.891 -31.706  0.00  0.00    +0.055 C 
BRANCH  21  23
ATOM     22  C   UNL A   1      45.350 -12.397 -30.738  0.00  0.00    -0.118 C 
ATOM     23  C   UNL A   1      44.456 -13.073 -31.173  0.00  0.00    -0.095 C 
ENDBRANCH  21  23
ENDBRANCH  20  21
ENDBRANCH  19  20
ENDBRANCH   5  19
ENDBRANCH   1   5
BRANCH   2  24
ATOM     24  C   UNL A   1      46.186 -16.727 -36.970  0.00  0.00    +0.025 C 
BRANCH  24  25
ATOM     25  C   UNL A   1      44.813 -16.987 -37.583  0.00  0.00    -0.029 C 
BRANCH  25  26
ATOM     26  C   UNL A   1      44.873 -16.972 -39.109  0.00  0.00    +0.010 C 
BRANCH  26  27
ATOM     27  N   UNL A   1      43.593 -17.465 -39.636  0.00  0.00    -0.343 N 
ATOM     28  H   UNL A   1      42.888 -16.886 -40.004  0.00  0.00    +0.000 HD
BRANCH  27  29
ATOM     29  C   UNL A   1      43.500 -18.886 -39.547  0.00  0.00    +0.041 A 
ATOM     30  C   UNL A   1      42.537 -19.448 -38.684  0.00  0.00    -0.005 A 
ATOM     31  C   UNL A   1      42.490 -20.838 -38.584  0.00  0.00    +0.047 A 
ATOM     32  N   UNL A   1      43.347 -21.657 -39.240  0.00  0.00    -0.251 NA
ATOM     33  C   UNL A   1      44.271 -21.124 -40.047  0.00  0.00    +0.074 A 
ATOM     34  C   UNL A   1      45.125 -21.994 -40.708  0.00  0.00    -0.017 A 
ATOM     35  C   UNL A   1      46.117 -21.526 -41.563  0.00  0.00    +0.043 A 
ATOM     36 CL   UNL A   1      47.156 -22.639 -42.364  0.00  0.00    -0.083 Cl
ATOM     37  C   UNL A   1      46.276 -20.165 -41.772  0.00  0.00    -0.043 A 
ATOM     38  C   UNL A   1      45.427 -19.273 -41.117  0.00  0.00    -0.049 A 
ATOM     39  C   UNL A   1      44.408 -19.733 -40.244  0.00  0.00    +0.022 A 
ATOM     40  C   UNL A   1      41.505 -21.535 -37.680  0.00  0.00    -0.010 C 
ATOM     41  C   UNL A   1      40.295 -20.677 -37.330  0.00  0.00    -0.047 C 
ATOM     42  C   UNL A   1      40.755 -19.302 -36.868  0.00  0.00    -0.049 C 
ATOM     43  C   UNL A   1      41.507 -18.586 -37.989  0.00  0.00    -0.024 C 
ENDBRANCH  27  29
ENDBRANCH  26  27
ENDBRANCH  25  26
ENDBRANCH  24  25
ENDBRANCH   2  24
TORSDOF 11
ENDMDL
