REMARK  Name = cpd9.pdb
REMARK  6 active torsions:
REMARK  status: ('A' for Active; 'I' for Inactive)
REMARK    1  A    between atoms: C_1  and  N_2
REMARK    2  A    between atoms: C_3  and  O_5
REMARK    3  A    between atoms: O_5  and  C_6
REMARK    4  A    between atoms: C_12  and  C_13
REMARK    5  A    between atoms: N_16  and  C_17
REMARK    6  A    between atoms: N_19  and  C_20
REMARK                            x       y       z     vdW  Elec       q    Type
REMARK                         _______ _______ _______ _____ _____    ______ ____
ROOT
ATOM      1  C   UNL     1      -3.720  -1.678  -0.860  0.00  0.00    +0.134 A 
ATOM      2  C   UNL     1      -3.686  -0.464  -1.553  0.00  0.00    -0.017 A 
ATOM      3  C   UNL     1      -2.476   0.225  -1.671  0.00  0.00    -0.037 A 
ATOM      4  C   UNL     1      -1.327  -0.307  -1.099  0.00  0.00    +0.035 A 
ATOM      5  C   UNL     1      -1.388  -1.528  -0.436  0.00  0.00    -0.014 A 
ATOM      6  C   UNL     1      -2.573  -2.241  -0.312  0.00  0.00    -0.014 A 
ATOM      7  C   UNL     1       0.000  -1.892   0.000  0.00  0.00    +0.028 C 
ATOM      8  C   UNL     1      -0.007  -2.475   1.423  0.00  0.00    -0.052 C 
ATOM      9  C   UNL     1       0.687  -2.791  -1.011  0.00  0.00    -0.028 C 
ATOM     10  C   UNL     1       2.134  -2.500  -0.748  0.00  0.00    +0.001 C 
ATOM     11  N   UNL     1       2.202  -1.088  -0.380  0.00  0.00    -0.287 N 
ATOM     12  C   UNL     1       3.198  -0.859   0.667  0.00  0.00    -0.011 C 
ATOM     13  C   UNL     1       0.819  -0.473   0.000  0.00  0.00    +0.086 C 
ATOM     14  N   UNL     1      -0.025   0.175  -1.158  0.00  0.00    -0.316 N 
ATOM     15  C   UNL     1       0.216   1.552  -1.566  0.00  0.00    +0.002 C 
ATOM     16  H   UNL     1       2.502  -0.594  -1.220  0.00  0.00    +0.000 HD
ENDROOT
BRANCH   1  17
ATOM     17  O   UNL     1      -4.923  -2.406  -0.763  0.00  0.00    -0.412 OA
BRANCH  17  20
ATOM     18  C   UNL     1      -6.896  -0.321   1.563  0.00  0.00    +0.003 C 
ATOM     19  N   UNL     1      -5.842  -0.846   0.738  0.00  0.00    -0.284 N 
ATOM     20  C   UNL     1      -6.057  -1.917  -0.097  0.00  0.00    +0.405 C 
ATOM     21  O   UNL     1      -7.148  -2.459  -0.237  0.00  0.00    -0.226 OA
ATOM     22  H   UNL     1      -4.950  -0.431   0.772  0.00  0.00    +0.000 HD
ENDBRANCH  17  20
ENDBRANCH   1  17
TORSDOF 2
