REMARK  Name = cpd22.pdb
REMARK  14 active torsions:
REMARK  status: ('A' for Active; 'I' for Inactive)
REMARK    1  A    between atoms: C_1  and  C_2
REMARK    2  A    between atoms: C_6  and  N_7
REMARK    3  A    between atoms: N_7  and  C_8
REMARK    4  A    between atoms: C_13  and  C_14
REMARK    5  A    between atoms: N_16  and  C_17
REMARK    6  A    between atoms: C_17  and  C_18
REMARK    7  A    between atoms: C_18  and  C_19
REMARK    8  A    between atoms: C_19  and  C_20
REMARK    9  A    between atoms: N_22  and  C_23
REMARK   10  A    between atoms: C_23  and  C_24
REMARK   11  A    between atoms: C_24  and  C_25
REMARK   12  A    between atoms: C_25  and  N_26
REMARK   13  A    between atoms: N_26  and  C_27
REMARK   14  A    between atoms: C_42  and  C_43
REMARK                            x       y       z     vdW  Elec       q    Type
REMARK                         _______ _______ _______ _____ _____    ______ ____
ROOT
ATOM      1  C   UNL A   1       7.037   1.944  -0.980  0.00  0.00    +0.213 C 
ATOM      2  O   UNL A   1       7.957   1.376  -1.564  0.00  0.00    -0.276 OA
ATOM      3  N   UNL A   1       7.114   3.254  -0.571  0.00  0.00    -0.315 N 
ATOM      4  H   UNL A   1       6.364   3.647  -0.068  0.00  0.00    +0.000 HD
ENDROOT
BRANCH   1   5
ATOM      5  C   UNL A   1       5.778   1.195  -0.584  0.00  0.00    +0.025 C 
BRANCH   5   6
ATOM      6  C   UNL A   1       4.493   2.015  -0.670  0.00  0.00    -0.029 C 
BRANCH   6   7
ATOM      7  C   UNL A   1       3.264   1.111  -0.749  0.00  0.00    +0.012 C 
BRANCH   7  10
ATOM      8  C   UNL A   1       1.527   2.708  -1.508  0.00  0.00    +0.246 C 
ATOM      9  O   UNL A   1       2.070   2.935  -2.582  0.00  0.00    -0.270 OA
ATOM     10  N   UNL A   1       2.030   1.843  -0.559  0.00  0.00    -0.311 N 
ATOM     11  H   UNL A   1       1.530   1.719   0.280  0.00  0.00    +0.000 HD
BRANCH   8  17
ATOM     12  C   UNL A   1      -0.791   2.763  -0.461  0.00  0.00    +0.044 A 
ATOM     13  C   UNL A   1      -1.871   3.555  -0.036  0.00  0.00    -0.040 A 
ATOM     14  C   UNL A   1      -1.945   4.915  -0.354  0.00  0.00    -0.060 A 
ATOM     15  C   UNL A   1      -0.925   5.519  -1.083  0.00  0.00    -0.061 A 
ATOM     16  C   UNL A   1       0.186   4.770  -1.466  0.00  0.00    -0.048 A 
ATOM     17  C   UNL A   1       0.273   3.410  -1.128  0.00  0.00    +0.058 A 
BRANCH  12  18
ATOM     18  N   UNL A   1      -0.725   1.384  -0.110  0.00  0.00    -0.314 N 
ATOM     19  H   UNL A   1       0.175   1.009   0.029  0.00  0.00    +0.000 HD
BRANCH  18  25
ATOM     20  C   UNL A   1      -2.647  -2.743   1.966  0.00  0.00    -0.039 C 
ATOM     21  C   UNL A   1      -2.723  -1.569   1.027  0.00  0.00    -0.046 A 
ATOM     22  C   UNL A   1      -3.848  -1.444   0.198  0.00  0.00    -0.058 A 
ATOM     23  C   UNL A   1      -3.952  -0.393  -0.707  0.00  0.00    -0.060 A 
ATOM     24  C   UNL A   1      -2.935   0.554  -0.788  0.00  0.00    -0.040 A 
ATOM     25  C   UNL A   1      -1.820   0.489   0.062  0.00  0.00    +0.035 A 
ATOM     26  C   UNL A   1      -1.703  -0.588   0.972  0.00  0.00    -0.026 A 
ATOM     27  C   UNL A   1      -0.473  -0.712   1.838  0.00  0.00    -0.038 C 
ENDBRANCH  18  25
ENDBRANCH  12  18
ENDBRANCH   8  17
ENDBRANCH   7  10
ENDBRANCH   6   7
ENDBRANCH   5   6
ENDBRANCH   1   5
BRANCH   3  28
ATOM     28  C   UNL A   1       8.276   4.069  -0.865  0.00  0.00    +0.013 C 
BRANCH  28  29
ATOM     29  C   UNL A   1       9.358   3.909   0.196  0.00  0.00    -0.022 C 
BRANCH  29  30
ATOM     30  C   UNL A   1      10.639   4.626  -0.221  0.00  0.00    +0.011 C 
BRANCH  30  31
ATOM     31  N   UNL A   1      11.607   4.562   0.884  0.00  0.00    -0.343 N 
ATOM     32  H   UNL A   1      11.425   4.142   1.756  0.00  0.00    +0.000 HD
BRANCH  31  33
ATOM     33  C   UNL A   1      12.843   5.185   0.535  0.00  0.00    +0.041 A 
ATOM     34  C   UNL A   1      13.014   6.554   0.820  0.00  0.00    -0.005 A 
ATOM     35  C   UNL A   1      14.218   7.150   0.440  0.00  0.00    +0.047 A 
ATOM     36  N   UNL A   1      15.196   6.486  -0.220  0.00  0.00    -0.251 NA
ATOM     37  C   UNL A   1      15.027   5.190  -0.507  0.00  0.00    +0.074 A 
ATOM     38  C   UNL A   1      16.054   4.544  -1.179  0.00  0.00    -0.017 A 
ATOM     39  C   UNL A   1      15.961   3.198  -1.523  0.00  0.00    +0.043 A 
ATOM     40 CL   UNL A   1      17.258   2.434  -2.356  0.00  0.00    -0.083 Cl
ATOM     41  C   UNL A   1      14.827   2.471  -1.199  0.00  0.00    -0.043 A 
ATOM     42  C   UNL A   1      13.784   3.103  -0.523  0.00  0.00    -0.049 A 
ATOM     43  C   UNL A   1      13.863   4.473  -0.161  0.00  0.00    +0.022 A 
ATOM     44  C   UNL A   1      14.493   8.610   0.690  0.00  0.00    -0.010 C 
ATOM     45  C   UNL A   1      13.632   9.206   1.797  0.00  0.00    -0.047 C 
ATOM     46  C   UNL A   1      12.173   8.839   1.569  0.00  0.00    -0.049 C 
ATOM     47  C   UNL A   1      11.988   7.323   1.619  0.00  0.00    -0.024 C 
ENDBRANCH  31  33
ENDBRANCH  30  31
ENDBRANCH  29  30
ENDBRANCH  28  29
ENDBRANCH   3  28
TORSDOF 12
