@<TRIPOS>MOLECULE
*****
 24 27 0 0 0
SMALL
GASTEIGER

@<TRIPOS>ATOM
      1 C           2.2756    1.6567    0.0000 C.2     1  UNL1       -0.0078
      2 C           1.3584    2.0070    0.0000 C.2     1  UNL1       -0.0280
      3 C           1.2031    2.9765    0.0000 C.3     1  UNL1        0.0278
      4 C           0.5964    1.3878    0.0000 C.3     1  UNL1        0.0951
      5 N           0.7516    0.4183    0.0000 N.3     1  UNL1       -0.2654
      6 C           1.5963    0.2556    0.0000 C.3     1  UNL1        0.0734
      7 C           2.1388   -0.4119    0.0000 C.3     1  UNL1        0.0290
      8 C           2.1253   -1.2721    0.0000 C.3     1  UNL1        0.0780
      9 C           2.9363   -0.8042    0.0000 C.2     1  UNL1       -0.0211
     10 C           3.7466   -1.2724    0.0000 C.2     1  UNL1        0.0021
     11 C           3.7464   -2.2088    0.0000 C.3     1  UNL1        0.1773
     12 O           4.5747   -2.6872    0.0000 O.3     1  UNL1       -0.2182
     13 C           2.9359   -2.6766    0.0000 C.3     1  UNL1        0.0816
     14 C           2.1251   -2.2085    0.0000 C.3     1  UNL1        0.1762
     15 O           1.3146   -2.6763    0.0000 O.3     1  UNL1       -0.4757
     16 C           0.5037   -2.2081    0.0000 C.ar    1  UNL1        0.1682
     17 C          -0.3073   -2.6760    0.0000 C.ar    1  UNL1        0.1721
     18 O          -0.3076   -3.6118    0.0000 O.3     1  UNL1       -0.4684
     19 C           0.5027   -4.0800    0.0000 C.3     1  UNL1        0.2526
     20 C          -1.1176   -2.2078    0.0000 C.ar    1  UNL1        0.0397
     21 C          -1.1174   -1.2714    0.0000 C.ar    1  UNL1        0.0001
     22 C          -0.3069   -0.8036    0.0000 C.ar    1  UNL1       -0.0066
     23 C           0.5039   -1.2717    0.0000 C.ar    1  UNL1        0.0187
     24 C           0.0000   -0.0000    0.0000 C.3     1  UNL1        0.0992
@<TRIPOS>BOND
     1     1     2    2
     2     2     3    1
     3     2     4    1
     4     4     5    1
     5     5     6    1
     6     6     7    1
     7     7     8    1
     8     8     9    1
     9     9    10    2
    10    10    11    1
    11    11    12    1
    12    11    13    1
    13    13    14    1
    14     8    14    1
    15    14    15    1
    16    15    16    1
    17    16    17   ar
    18    17    18    1
    19    18    19    1
    20    17    20   ar
    21    20    21   ar
    22    21    22   ar
    23    22    23   ar
    24    16    23   ar
    25     8    23    1
    26    22    24    1
    27     5    24    1
