REMARK  Name = cpd248.pdb
REMARK  6 active torsions:
REMARK  status: ('A' for Active; 'I' for Inactive)
REMARK    1  A    between atoms: C_2  and  C_3
REMARK    2  A    between atoms: C_2  and  C_4
REMARK    3  A    between atoms: C_4  and  N_5
REMARK    4  A    between atoms: C_11  and  O_12
REMARK    5  A    between atoms: C_17  and  O_18
REMARK    6  A    between atoms: O_18  and  C_19
REMARK                            x       y       z     vdW  Elec       q    Type
REMARK                         _______ _______ _______ _____ _____    ______ ____
ROOT
ATOM      1  N   UNL     1       0.713   1.110  -0.252  0.00  0.00    -0.294 N 
ATOM      2  C   UNL     1       0.940   0.570   1.100  0.00  0.00    +0.001 C 
ATOM      3  C   UNL     1       1.954  -0.606   1.128  0.00  0.00    -0.023 C 
ATOM      4  C   UNL     1       1.981  -1.476  -0.154  0.00  0.00    +0.056 C 
ATOM      5  C   UNL     1       2.854  -0.845  -1.211  0.00  0.00    -0.071 C 
ATOM      6  C   UNL     1       4.171  -1.135  -1.263  0.00  0.00    -0.059 C 
ATOM      7  C   UNL     1       4.856  -2.135  -0.356  0.00  0.00    +0.077 C 
ATOM      8  C   UNL     1       3.916  -2.926   0.584  0.00  0.00    +0.015 C 
ATOM      9  C   UNL     1       2.523  -2.920  -0.028  0.00  0.00    +0.116 C 
ATOM     10  O   UNL     1       1.526  -3.715   0.626  0.00  0.00    -0.484 OA
ATOM     11  C   UNL     1       0.373  -3.197   0.049  0.00  0.00    +0.167 A 
ATOM     12  C   UNL     1      -0.872  -3.804   0.021  0.00  0.00    +0.162 A 
ATOM     13  C   UNL     1      -1.932  -3.044  -0.485  0.00  0.00    -0.016 A 
ATOM     14  C   UNL     1      -1.757  -1.704  -0.875  0.00  0.00    -0.053 A 
ATOM     15  C   UNL     1      -0.501  -1.083  -0.791  0.00  0.00    -0.026 A 
ATOM     16  C   UNL     1       0.571  -1.886  -0.426  0.00  0.00    +0.016 A 
ATOM     17  C   UNL     1      -0.386   0.417  -0.976  0.00  0.00    +0.025 C 
ATOM     18  H   UNL     1       1.582   0.944  -0.759  0.00  0.00    +0.000 HD
ENDROOT
BRANCH   7  19
ATOM     19  O   UNL     1       5.516  -3.053  -1.224  0.00  0.00    -0.388 OA
ATOM     20  H   UNL     1       4.860  -3.499  -1.782  0.00  0.00    +0.000 HD
ENDBRANCH   7  19
BRANCH  12  21
ATOM     21  O   UNL     1      -1.218  -5.056   0.434  0.00  0.00    -0.491 OA
ATOM     22  C   UNL     1      -0.168  -5.909   0.867  0.00  0.00    +0.079 C 
ENDBRANCH  12  21
BRANCH   1  23
ATOM     23  C   UNL     1       0.428   2.555  -0.218  0.00  0.00    +0.020 C 
BRANCH  23  25
ATOM     24  C   UNL     1       2.909   3.086  -0.050  0.00  0.00    -0.098 C 
ATOM     25  C   UNL     1       1.621   3.465   0.023  0.00  0.00    -0.066 C 
ATOM     26  C   UNL     1       1.261   4.891   0.343  0.00  0.00    -0.043 C 
ENDBRANCH  23  25
ENDBRANCH   1  23
TORSDOF 4
