MODEL 1
REMARK VINA RESULT:    -7.810      0.000      0.000
REMARK INTER + INTRA:          -9.814
REMARK INTER:                  -9.407
REMARK INTRA:                  -0.406
REMARK UNBOUND:                -0.406
REMARK  Name = cpd248.pdb
REMARK  6 active torsions:
REMARK  status: ('A' for Active; 'I' for Inactive)
REMARK    1  A    between atoms: C_2  and  C_3
REMARK    2  A    between atoms: C_2  and  C_4
REMARK    3  A    between atoms: C_4  and  N_5
REMARK    4  A    between atoms: C_11  and  O_12
REMARK    5  A    between atoms: C_17  and  O_18
REMARK    6  A    between atoms: O_18  and  C_19
REMARK                            x       y       z     vdW  Elec       q    Type
REMARK                         _______ _______ _______ _____ _____    ______ ____
ROOT
ATOM      1  N   UNL     1      35.070 -38.753 -28.720  0.00  0.00    -0.294 N 
ATOM      2  C   UNL     1      35.224 -38.793 -30.185  0.00  0.00    +0.001 C 
ATOM      3  C   UNL     1      36.580 -38.216 -30.675  0.00  0.00    -0.023 C 
ATOM      4  C   UNL     1      37.173 -37.095 -29.784  0.00  0.00    +0.056 C 
ATOM      5  C   UNL     1      37.928 -37.682 -28.616  0.00  0.00    -0.071 C 
ATOM      6  C   UNL     1      39.241 -37.967 -28.733  0.00  0.00    -0.059 C 
ATOM      7  C   UNL     1      40.068 -37.669 -29.967  0.00  0.00    +0.077 C 
ATOM      8  C   UNL     1      39.334 -36.882 -31.078  0.00  0.00    +0.015 C 
ATOM      9  C   UNL     1      38.183 -36.121 -30.437  0.00  0.00    +0.116 C 
ATOM     10  O   UNL     1      37.454 -35.221 -31.280  0.00  0.00    -0.484 OA
ATOM     11  C   UNL     1      36.322 -35.010 -30.502  0.00  0.00    +0.167 A 
ATOM     12  C   UNL     1      35.425 -33.961 -30.629  0.00  0.00    +0.162 A 
ATOM     13  C   UNL     1      34.273 -34.018 -29.837  0.00  0.00    -0.016 A 
ATOM     14  C   UNL     1      34.002 -35.122 -29.010  0.00  0.00    -0.053 A 
ATOM     15  C   UNL     1      34.893 -36.204 -28.930  0.00  0.00    -0.026 A 
ATOM     16  C   UNL     1      36.099 -36.073 -29.606  0.00  0.00    +0.016 A 
ATOM     17  C   UNL     1      34.469 -37.482 -28.234  0.00  0.00    +0.025 C 
ATOM     18  H   UNL     1      36.016 -38.821 -28.347  0.00  0.00    +0.000 HD
ENDROOT
BRANCH   7  19
ATOM     19  O   UNL     1      41.175 -36.895 -29.510  0.00  0.00    -0.388 OA
ATOM     20  H   UNL     1      40.913 -35.964 -29.444  0.00  0.00    +0.000 HD
ENDBRANCH   7  19
BRANCH  12  21
ATOM     21  O   UNL     1      35.503 -32.868 -31.440  0.00  0.00    -0.491 OA
ATOM     22  C   UNL     1      34.421 -31.949 -31.394  0.00  0.00    +0.079 C 
ENDBRANCH  12  21
BRANCH   1  23
ATOM     23  C   UNL     1      34.262 -39.883 -28.229  0.00  0.00    +0.020 C 
BRANCH  23  25
ATOM     24  C   UNL     1      33.823 -41.999 -29.570  0.00  0.00    -0.098 C 
ATOM     25  C   UNL     1      34.620 -41.251 -28.787  0.00  0.00    -0.066 C 
ATOM     26  C   UNL     1      35.995 -41.736 -28.412  0.00  0.00    -0.043 C 
ENDBRANCH  23  25
ENDBRANCH   1  23
TORSDOF 4
ENDMDL
MODEL 2
REMARK VINA RESULT:    -7.300      2.407      5.566
REMARK INTER + INTRA:          -9.200
REMARK INTER:                  -8.581
REMARK INTRA:                  -0.619
REMARK UNBOUND:                -0.406
REMARK  Name = cpd248.pdb
REMARK  6 active torsions:
REMARK  status: ('A' for Active; 'I' for Inactive)
REMARK    1  A    between atoms: C_2  and  C_3
REMARK    2  A    between atoms: C_2  and  C_4
REMARK    3  A    between atoms: C_4  and  N_5
REMARK    4  A    between atoms: C_11  and  O_12
REMARK    5  A    between atoms: C_17  and  O_18
REMARK    6  A    between atoms: O_18  and  C_19
REMARK                            x       y       z     vdW  Elec       q    Type
REMARK                         _______ _______ _______ _____ _____    ______ ____
ROOT
ATOM      1  N   UNL     1      34.434 -34.124 -31.307  0.00  0.00    -0.294 N 
ATOM      2  C   UNL     1      34.466 -35.395 -32.051  0.00  0.00    +0.001 C 
ATOM      3  C   UNL     1      34.840 -36.614 -31.165  0.00  0.00    -0.023 C 
ATOM      4  C   UNL     1      35.785 -36.295 -29.979  0.00  0.00    +0.056 C 
ATOM      5  C   UNL     1      35.005 -35.770 -28.799  0.00  0.00    -0.071 C 
ATOM      6  C   UNL     1      34.513 -36.625 -27.878  0.00  0.00    -0.059 C 
ATOM      7  C   UNL     1      34.751 -38.120 -27.896  0.00  0.00    +0.077 C 
ATOM      8  C   UNL     1      35.721 -38.621 -28.991  0.00  0.00    +0.015 C 
ATOM      9  C   UNL     1      36.618 -37.460 -29.394  0.00  0.00    +0.116 C 
ATOM     10  O   UNL     1      37.682 -37.752 -30.309  0.00  0.00    -0.484 OA
ATOM     11  C   UNL     1      38.026 -36.468 -30.712  0.00  0.00    +0.167 A 
ATOM     12  C   UNL     1      39.215 -36.091 -31.314  0.00  0.00    +0.162 A 
ATOM     13  C   UNL     1      39.299 -34.771 -31.771  0.00  0.00    -0.016 A 
ATOM     14  C   UNL     1      38.203 -33.893 -31.692  0.00  0.00    -0.053 A 
ATOM     15  C   UNL     1      36.985 -34.304 -31.128  0.00  0.00    -0.026 A 
ATOM     16  C   UNL     1      36.958 -35.565 -30.548  0.00  0.00    +0.016 A 
ATOM     17  C   UNL     1      35.752 -33.436 -31.277  0.00  0.00    +0.025 C 
ATOM     18  H   UNL     1      34.185 -34.376 -30.351  0.00  0.00    +0.000 HD
ENDROOT
BRANCH   7  19
ATOM     19  O   UNL     1      35.297 -38.438 -26.618  0.00  0.00    -0.388 OA
ATOM     20  H   UNL     1      34.785 -37.989 -25.927  0.00  0.00    +0.000 HD
ENDBRANCH   7  19
BRANCH  12  21
ATOM     21  O   UNL     1      40.332 -36.840 -31.538  0.00  0.00    -0.491 OA
ATOM     22  C   UNL     1      41.410 -36.686 -30.626  0.00  0.00    +0.079 C 
ENDBRANCH  12  21
BRANCH   1  23
ATOM     23  C   UNL     1      33.424 -33.201 -31.854  0.00  0.00    +0.020 C 
BRANCH  23  25
ATOM     24  C   UNL     1      30.885 -33.135 -31.975  0.00  0.00    -0.098 C 
ATOM     25  C   UNL     1      32.021 -33.332 -31.284  0.00  0.00    -0.066 C 
ATOM     26  C   UNL     1      31.974 -33.737 -29.835  0.00  0.00    -0.043 C 
ENDBRANCH  23  25
ENDBRANCH   1  23
TORSDOF 4
ENDMDL
MODEL 3
REMARK VINA RESULT:    -7.284      3.396      6.393
REMARK INTER + INTRA:          -9.180
REMARK INTER:                  -8.634
REMARK INTRA:                  -0.546
REMARK UNBOUND:                -0.406
REMARK  Name = cpd248.pdb
REMARK  6 active torsions:
REMARK  status: ('A' for Active; 'I' for Inactive)
REMARK    1  A    between atoms: C_2  and  C_3
REMARK    2  A    between atoms: C_2  and  C_4
REMARK    3  A    between atoms: C_4  and  N_5
REMARK    4  A    between atoms: C_11  and  O_12
REMARK    5  A    between atoms: C_17  and  O_18
REMARK    6  A    between atoms: O_18  and  C_19
REMARK                            x       y       z     vdW  Elec       q    Type
REMARK                         _______ _______ _______ _____ _____    ______ ____
ROOT
ATOM      1  N   UNL     1      36.621 -35.685 -30.973  0.00  0.00    -0.294 N 
ATOM      2  C   UNL     1      35.348 -36.239 -31.464  0.00  0.00    +0.001 C 
ATOM      3  C   UNL     1      34.116 -35.372 -31.086  0.00  0.00    -0.023 C 
ATOM      4  C   UNL     1      34.250 -34.592 -29.754  0.00  0.00    +0.056 C 
ATOM      5  C   UNL     1      35.002 -33.301 -29.963  0.00  0.00    -0.071 C 
ATOM      6  C   UNL     1      34.335 -32.174 -30.289  0.00  0.00    -0.059 C 
ATOM      7  C   UNL     1      32.828 -32.082 -30.398  0.00  0.00    +0.077 C 
ATOM      8  C   UNL     1      32.056 -33.356 -29.981  0.00  0.00    +0.015 C 
ATOM      9  C   UNL     1      32.945 -34.160 -29.043  0.00  0.00    +0.116 C 
ATOM     10  O   UNL     1      32.362 -35.319 -28.436  0.00  0.00    -0.484 OA
ATOM     11  C   UNL     1      33.505 -35.965 -27.979  0.00  0.00    +0.167 A 
ATOM     12  C   UNL     1      33.554 -36.952 -27.008  0.00  0.00    +0.162 A 
ATOM     13  C   UNL     1      34.792 -37.571 -26.801  0.00  0.00    -0.016 A 
ATOM     14  C   UNL     1      35.912 -37.259 -27.593  0.00  0.00    -0.053 A 
ATOM     15  C   UNL     1      35.835 -36.295 -28.610  0.00  0.00    -0.026 A 
ATOM     16  C   UNL     1      34.646 -35.586 -28.711  0.00  0.00    +0.016 A 
ATOM     17  C   UNL     1      36.970 -36.155 -29.606  0.00  0.00    +0.025 C 
ATOM     18  H   UNL     1      36.481 -34.676 -30.936  0.00  0.00    +0.000 HD
ENDROOT
BRANCH   7  19
ATOM     19  O   UNL     1      32.445 -31.011 -29.538  0.00  0.00    -0.388 OA
ATOM     20  H   UNL     1      31.550 -31.171 -29.201  0.00  0.00    +0.000 HD
ENDBRANCH   7  19
BRANCH  12  21
ATOM     21  O   UNL     1      32.547 -37.421 -26.219  0.00  0.00    -0.491 OA
ATOM     22  C   UNL     1      32.900 -37.880 -24.922  0.00  0.00    +0.079 C 
ENDBRANCH  12  21
BRANCH   1  23
ATOM     23  C   UNL     1      37.736 -35.996 -31.885  0.00  0.00    +0.020 C 
BRANCH  23  25
ATOM     24  C   UNL     1      40.153 -35.235 -32.097  0.00  0.00    -0.098 C 
ATOM     25  C   UNL     1      38.843 -34.959 -31.964  0.00  0.00    -0.066 C 
ATOM     26  C   UNL     1      38.366 -33.533 -31.903  0.00  0.00    -0.043 C 
ENDBRANCH  23  25
ENDBRANCH   1  23
TORSDOF 4
ENDMDL
MODEL 4
REMARK VINA RESULT:    -7.170      3.155      5.907
REMARK INTER + INTRA:          -9.043
REMARK INTER:                  -8.497
REMARK INTRA:                  -0.546
REMARK UNBOUND:                -0.406
REMARK  Name = cpd248.pdb
REMARK  6 active torsions:
REMARK  status: ('A' for Active; 'I' for Inactive)
REMARK    1  A    between atoms: C_2  and  C_3
REMARK    2  A    between atoms: C_2  and  C_4
REMARK    3  A    between atoms: C_4  and  N_5
REMARK    4  A    between atoms: C_11  and  O_12
REMARK    5  A    between atoms: C_17  and  O_18
REMARK    6  A    between atoms: O_18  and  C_19
REMARK                            x       y       z     vdW  Elec       q    Type
REMARK                         _______ _______ _______ _____ _____    ______ ____
ROOT
ATOM      1  N   UNL     1      37.001 -36.540 -30.406  0.00  0.00    -0.294 N 
ATOM      2  C   UNL     1      35.764 -37.058 -31.017  0.00  0.00    +0.001 C 
ATOM      3  C   UNL     1      34.582 -36.053 -30.955  0.00  0.00    -0.023 C 
ATOM      4  C   UNL     1      34.596 -35.104 -29.730  0.00  0.00    +0.056 C 
ATOM      5  C   UNL     1      35.494 -33.918 -29.982  0.00  0.00    -0.071 C 
ATOM      6  C   UNL     1      34.997 -32.801 -30.552  0.00  0.00    -0.059 C 
ATOM      7  C   UNL     1      33.539 -32.608 -30.910  0.00  0.00    +0.077 C 
ATOM      8  C   UNL     1      32.592 -33.746 -30.460  0.00  0.00    +0.015 C 
ATOM      9  C   UNL     1      33.250 -34.474 -29.297  0.00  0.00    +0.116 C 
ATOM     10  O   UNL     1      32.473 -35.486 -28.646  0.00  0.00    -0.484 OA
ATOM     11  C   UNL     1      33.466 -36.147 -27.934  0.00  0.00    +0.167 A 
ATOM     12  C   UNL     1      33.275 -36.987 -26.848  0.00  0.00    +0.162 A 
ATOM     13  C   UNL     1      34.402 -37.664 -26.370  0.00  0.00    -0.016 A 
ATOM     14  C   UNL     1      35.651 -37.557 -27.007  0.00  0.00    -0.053 A 
ATOM     15  C   UNL     1      35.820 -36.745 -28.139  0.00  0.00    -0.026 A 
ATOM     16  C   UNL     1      34.735 -35.966 -28.518  0.00  0.00    +0.016 A 
ATOM     17  C   UNL     1      37.096 -36.837 -28.952  0.00  0.00    +0.025 C 
ATOM     18  H   UNL     1      36.957 -35.528 -30.522  0.00  0.00    +0.000 HD
ENDROOT
BRANCH   7  19
ATOM     19  O   UNL     1      33.142 -31.399 -30.266  0.00  0.00    -0.388 OA
ATOM     20  H   UNL     1      33.900 -30.797 -30.214  0.00  0.00    +0.000 HD
ENDBRANCH   7  19
BRANCH  12  21
ATOM     21  O   UNL     1      32.122 -37.258 -26.175  0.00  0.00    -0.491 OA
ATOM     22  C   UNL     1      31.891 -36.544 -24.970  0.00  0.00    +0.079 C 
ENDBRANCH  12  21
BRANCH   1  23
ATOM     23  C   UNL     1      38.200 -37.064 -31.082  0.00  0.00    +0.020 C 
BRANCH  23  25
ATOM     24  C   UNL     1      38.721 -34.795 -32.104  0.00  0.00    -0.098 C 
ATOM     25  C   UNL     1      39.102 -36.031 -31.737  0.00  0.00    -0.066 C 
ATOM     26  C   UNL     1      40.522 -36.486 -31.941  0.00  0.00    -0.043 C 
ENDBRANCH  23  25
ENDBRANCH   1  23
TORSDOF 4
ENDMDL
MODEL 5
REMARK VINA RESULT:    -6.685      2.478      4.985
REMARK INTER + INTRA:          -8.459
REMARK INTER:                  -8.504
REMARK INTRA:                   0.045
REMARK UNBOUND:                -0.406
REMARK  Name = cpd248.pdb
REMARK  6 active torsions:
REMARK  status: ('A' for Active; 'I' for Inactive)
REMARK    1  A    between atoms: C_2  and  C_3
REMARK    2  A    between atoms: C_2  and  C_4
REMARK    3  A    between atoms: C_4  and  N_5
REMARK    4  A    between atoms: C_11  and  O_12
REMARK    5  A    between atoms: C_17  and  O_18
REMARK    6  A    between atoms: O_18  and  C_19
REMARK                            x       y       z     vdW  Elec       q    Type
REMARK                         _______ _______ _______ _____ _____    ______ ____
ROOT
ATOM      1  N   UNL     1      38.330 -36.776 -31.025  0.00  0.00    -0.294 N 
ATOM      2  C   UNL     1      38.366 -36.954 -29.563  0.00  0.00    +0.001 C 
ATOM      3  C   UNL     1      37.279 -37.931 -29.038  0.00  0.00    -0.023 C 
ATOM      4  C   UNL     1      35.972 -37.962 -29.869  0.00  0.00    +0.056 C 
ATOM      5  C   UNL     1      36.116 -38.879 -31.059  0.00  0.00    -0.071 C 
ATOM      6  C   UNL     1      35.805 -40.187 -30.947  0.00  0.00    -0.059 C 
ATOM      7  C   UNL     1      35.234 -40.820 -29.696  0.00  0.00    +0.077 C 
ATOM      8  C   UNL     1      34.898 -39.834 -28.552  0.00  0.00    +0.015 C 
ATOM      9  C   UNL     1      34.686 -38.457 -29.163  0.00  0.00    +0.116 C 
ATOM     10  O   UNL     1      34.234 -37.421 -28.282  0.00  0.00    -0.484 OA
ATOM     11  C   UNL     1      34.502 -36.299 -29.056  0.00  0.00    +0.167 A 
ATOM     12  C   UNL     1      33.957 -35.037 -28.883  0.00  0.00    +0.162 A 
ATOM     13  C   UNL     1      34.473 -34.013 -29.684  0.00  0.00    -0.016 A 
ATOM     14  C   UNL     1      35.545 -34.237 -30.567  0.00  0.00    -0.053 A 
ATOM     15  C   UNL     1      36.125 -35.509 -30.693  0.00  0.00    -0.026 A 
ATOM     16  C   UNL     1      35.514 -36.547 -30.004  0.00  0.00    +0.016 A 
ATOM     17  C   UNL     1      37.427 -35.674 -31.452  0.00  0.00    +0.025 C 
ATOM     18  H   UNL     1      37.960 -37.651 -31.395  0.00  0.00    +0.000 HD
ENDROOT
BRANCH   7  19
ATOM     19  O   UNL     1      34.035 -41.472 -30.107  0.00  0.00    -0.388 OA
ATOM     20  H   UNL     1      33.414 -41.506 -29.363  0.00  0.00    +0.000 HD
ENDBRANCH   7  19
BRANCH  12  21
ATOM     21  O   UNL     1      32.978 -34.643 -28.020  0.00  0.00    -0.491 OA
ATOM     22  C   UNL     1      31.979 -33.770 -28.528  0.00  0.00    +0.079 C 
ENDBRANCH  12  21
BRANCH   1  23
ATOM     23  C   UNL     1      39.675 -36.534 -31.575  0.00  0.00    +0.020 C 
BRANCH  23  25
ATOM     24  C   UNL     1      41.115 -38.074 -30.155  0.00  0.00    -0.098 C 
ATOM     25  C   UNL     1      40.840 -36.857 -30.655  0.00  0.00    -0.066 C 
ATOM     26  C   UNL     1      41.726 -35.682 -30.338  0.00  0.00    -0.043 C 
ENDBRANCH  23  25
ENDBRANCH   1  23
TORSDOF 4
ENDMDL
MODEL 6
REMARK VINA RESULT:    -6.572     20.042     22.834
REMARK INTER + INTRA:          -8.323
REMARK INTER:                  -7.721
REMARK INTRA:                  -0.602
REMARK UNBOUND:                -0.406
REMARK  Name = cpd248.pdb
REMARK  6 active torsions:
REMARK  status: ('A' for Active; 'I' for Inactive)
REMARK    1  A    between atoms: C_2  and  C_3
REMARK    2  A    between atoms: C_2  and  C_4
REMARK    3  A    between atoms: C_4  and  N_5
REMARK    4  A    between atoms: C_11  and  O_12
REMARK    5  A    between atoms: C_17  and  O_18
REMARK    6  A    between atoms: O_18  and  C_19
REMARK                            x       y       z     vdW  Elec       q    Type
REMARK                         _______ _______ _______ _____ _____    ______ ____
ROOT
ATOM      1  N   UNL     1      47.127 -20.845 -41.084  0.00  0.00    -0.294 N 
ATOM      2  C   UNL     1      47.162 -20.886 -39.612  0.00  0.00    +0.001 C 
ATOM      3  C   UNL     1      45.774 -20.645 -38.959  0.00  0.00    -0.023 C 
ATOM      4  C   UNL     1      44.824 -19.723 -39.765  0.00  0.00    +0.056 C 
ATOM      5  C   UNL     1      44.103 -20.503 -40.837  0.00  0.00    -0.071 C 
ATOM      6  C   UNL     1      42.922 -21.096 -40.564  0.00  0.00    -0.059 C 
ATOM      7  C   UNL     1      42.200 -20.979 -39.239  0.00  0.00    +0.077 C 
ATOM      8  C   UNL     1      42.845 -20.011 -38.219  0.00  0.00    +0.015 C 
ATOM      9  C   UNL     1      43.691 -19.009 -38.990  0.00  0.00    +0.116 C 
ATOM     10  O   UNL     1      44.273 -17.939 -38.235  0.00  0.00    -0.484 OA
ATOM     11  C   UNL     1      45.219 -17.477 -39.142  0.00  0.00    +0.167 A 
ATOM     12  C   UNL     1      45.841 -16.239 -39.117  0.00  0.00    +0.162 A 
ATOM     13  C   UNL     1      46.870 -16.033 -40.042  0.00  0.00    -0.016 A 
ATOM     14  C   UNL     1      47.303 -17.057 -40.903  0.00  0.00    -0.053 A 
ATOM     15  C   UNL     1      46.700 -18.325 -40.882  0.00  0.00    -0.026 A 
ATOM     16  C   UNL     1      45.588 -18.475 -40.065  0.00  0.00    +0.016 A 
ATOM     17  C   UNL     1      47.338 -19.478 -41.631  0.00  0.00    +0.025 C 
ATOM     18  H   UNL     1      46.189 -21.149 -41.342  0.00  0.00    +0.000 HD
ENDROOT
BRANCH   7  19
ATOM     19  O   UNL     1      40.891 -20.509 -39.553  0.00  0.00    -0.388 OA
ATOM     20  H   UNL     1      40.781 -20.480 -40.517  0.00  0.00    +0.000 HD
ENDBRANCH   7  19
BRANCH  12  21
ATOM     21  O   UNL     1      45.595 -15.179 -38.296  0.00  0.00    -0.491 OA
ATOM     22  C   UNL     1      46.236 -15.178 -37.029  0.00  0.00    +0.079 C 
ENDBRANCH  12  21
BRANCH   1  23
ATOM     23  C   UNL     1      48.123 -21.756 -41.676  0.00  0.00    +0.020 C 
BRANCH  23  25
ATOM     24  C   UNL     1      48.264 -24.151 -42.517  0.00  0.00    -0.098 C 
ATOM     25  C   UNL     1      47.572 -23.015 -42.325  0.00  0.00    -0.066 C 
ATOM     26  C   UNL     1      46.129 -22.919 -42.743  0.00  0.00    -0.043 C 
ENDBRANCH  23  25
ENDBRANCH   1  23
TORSDOF 4
ENDMDL
MODEL 7
REMARK VINA RESULT:    -6.546     19.662     23.216
REMARK INTER + INTRA:          -8.292
REMARK INTER:                  -7.821
REMARK INTRA:                  -0.471
REMARK UNBOUND:                -0.406
REMARK  Name = cpd248.pdb
REMARK  6 active torsions:
REMARK  status: ('A' for Active; 'I' for Inactive)
REMARK    1  A    between atoms: C_2  and  C_3
REMARK    2  A    between atoms: C_2  and  C_4
REMARK    3  A    between atoms: C_4  and  N_5
REMARK    4  A    between atoms: C_11  and  O_12
REMARK    5  A    between atoms: C_17  and  O_18
REMARK    6  A    between atoms: O_18  and  C_19
REMARK                            x       y       z     vdW  Elec       q    Type
REMARK                         _______ _______ _______ _____ _____    ______ ____
ROOT
ATOM      1  N   UNL     1      46.702 -17.343 -39.661  0.00  0.00    -0.294 N 
ATOM      2  C   UNL     1      46.929 -18.295 -38.560  0.00  0.00    +0.001 C 
ATOM      3  C   UNL     1      47.165 -19.751 -39.048  0.00  0.00    -0.023 C 
ATOM      4  C   UNL     1      46.438 -20.125 -40.363  0.00  0.00    +0.056 C 
ATOM      5  C   UNL     1      47.233 -19.672 -41.563  0.00  0.00    -0.071 C 
ATOM      6  C   UNL     1      48.157 -20.490 -42.111  0.00  0.00    -0.059 C 
ATOM      7  C   UNL     1      48.420 -21.906 -41.645  0.00  0.00    +0.077 C 
ATOM      8  C   UNL     1      47.459 -22.430 -40.551  0.00  0.00    +0.015 C 
ATOM      9  C   UNL     1      46.170 -21.626 -40.631  0.00  0.00    +0.116 C 
ATOM     10  O   UNL     1      45.093 -22.045 -39.784  0.00  0.00    -0.484 OA
ATOM     11  C   UNL     1      44.274 -20.924 -39.846  0.00  0.00    +0.167 A 
ATOM     12  C   UNL     1      42.928 -20.875 -39.519  0.00  0.00    +0.162 A 
ATOM     13  C   UNL     1      42.327 -19.612 -39.515  0.00  0.00    -0.016 A 
ATOM     14  C   UNL     1      43.070 -18.442 -39.756  0.00  0.00    -0.053 A 
ATOM     15  C   UNL     1      44.444 -18.501 -40.033  0.00  0.00    -0.026 A 
ATOM     16  C   UNL     1      45.000 -19.765 -40.178  0.00  0.00    +0.016 A 
ATOM     17  C   UNL     1      45.268 -17.228 -40.042  0.00  0.00    +0.025 C 
ATOM     18  H   UNL     1      47.213 -17.723 -40.458  0.00  0.00    +0.000 HD
ENDROOT
BRANCH   7  19
ATOM     19  O   UNL     1      48.286 -22.724 -42.804  0.00  0.00    -0.388 OA
ATOM     20  H   UNL     1      47.825 -22.228 -43.498  0.00  0.00    +0.000 HD
ENDBRANCH   7  19
BRANCH  12  21
ATOM     21  O   UNL     1      42.096 -21.901 -39.184  0.00  0.00    -0.491 OA
ATOM     22  C   UNL     1      40.866 -21.560 -38.559  0.00  0.00    +0.079 C 
ENDBRANCH  12  21
BRANCH   1  23
ATOM     23  C   UNL     1      47.219 -16.003 -39.335  0.00  0.00    +0.020 C 
BRANCH  23  25
ATOM     24  C   UNL     1      46.789 -13.806 -40.542  0.00  0.00    -0.098 C 
ATOM     25  C   UNL     1      47.339 -15.032 -40.498  0.00  0.00    -0.066 C 
ATOM     26  C   UNL     1      48.169 -15.538 -41.647  0.00  0.00    -0.043 C 
ENDBRANCH  23  25
ENDBRANCH   1  23
TORSDOF 4
ENDMDL
MODEL 8
REMARK VINA RESULT:    -6.402     15.606     18.653
REMARK INTER + INTRA:          -8.118
REMARK INTER:                  -7.540
REMARK INTRA:                  -0.578
REMARK UNBOUND:                -0.406
REMARK  Name = cpd248.pdb
REMARK  6 active torsions:
REMARK  status: ('A' for Active; 'I' for Inactive)
REMARK    1  A    between atoms: C_2  and  C_3
REMARK    2  A    between atoms: C_2  and  C_4
REMARK    3  A    between atoms: C_4  and  N_5
REMARK    4  A    between atoms: C_11  and  O_12
REMARK    5  A    between atoms: C_17  and  O_18
REMARK    6  A    between atoms: O_18  and  C_19
REMARK                            x       y       z     vdW  Elec       q    Type
REMARK                         _______ _______ _______ _____ _____    ______ ____
ROOT
ATOM      1  N   UNL     1      41.600 -20.743 -37.975  0.00  0.00    -0.294 N 
ATOM      2  C   UNL     1      40.770 -19.633 -37.475  0.00  0.00    +0.001 C 
ATOM      3  C   UNL     1      41.171 -19.162 -36.050  0.00  0.00    -0.023 C 
ATOM      4  C   UNL     1      41.756 -20.268 -35.137  0.00  0.00    +0.056 C 
ATOM      5  C   UNL     1      43.229 -20.462 -35.407  0.00  0.00    -0.071 C 
ATOM      6  C   UNL     1      44.143 -19.738 -34.728  0.00  0.00    -0.059 C 
ATOM      7  C   UNL     1      43.800 -18.760 -33.624  0.00  0.00    +0.077 C 
ATOM      8  C   UNL     1      42.309 -18.722 -33.215  0.00  0.00    +0.015 C 
ATOM      9  C   UNL     1      41.678 -20.050 -33.607  0.00  0.00    +0.116 C 
ATOM     10  O   UNL     1      40.323 -20.269 -33.194  0.00  0.00    -0.484 OA
ATOM     11  C   UNL     1      39.986 -21.348 -34.002  0.00  0.00    +0.167 A 
ATOM     12  C   UNL     1      38.929 -22.221 -33.802  0.00  0.00    +0.162 A 
ATOM     13  C   UNL     1      38.681 -23.153 -34.816  0.00  0.00    -0.016 A 
ATOM     14  C   UNL     1      39.420 -23.152 -36.013  0.00  0.00    -0.053 A 
ATOM     15  C   UNL     1      40.453 -22.227 -36.227  0.00  0.00    -0.026 A 
ATOM     16  C   UNL     1      40.787 -21.404 -35.159  0.00  0.00    +0.016 A 
ATOM     17  C   UNL     1      41.063 -22.080 -37.606  0.00  0.00    +0.025 C 
ATOM     18  H   UNL     1      42.507 -20.629 -37.522  0.00  0.00    +0.000 HD
ENDROOT
BRANCH   7  19
ATOM     19  O   UNL     1      44.575 -19.164 -32.497  0.00  0.00    -0.388 OA
ATOM     20  H   UNL     1      45.250 -19.800 -32.781  0.00  0.00    +0.000 HD
ENDBRANCH   7  19
BRANCH  12  21
ATOM     21  O   UNL     1      38.075 -22.296 -32.742  0.00  0.00    -0.491 OA
ATOM     22  C   UNL     1      36.907 -21.490 -32.793  0.00  0.00    +0.079 C 
ENDBRANCH  12  21
BRANCH   1  23
ATOM     23  C   UNL     1      41.766 -20.680 -39.437  0.00  0.00    +0.020 C 
BRANCH  23  25
ATOM     24  C   UNL     1      43.501 -21.171 -41.230  0.00  0.00    -0.098 C 
ATOM     25  C   UNL     1      43.180 -20.878 -39.958  0.00  0.00    -0.066 C 
ATOM     26  C   UNL     1      44.256 -20.698 -38.920  0.00  0.00    -0.043 C 
ENDBRANCH  23  25
ENDBRANCH   1  23
TORSDOF 4
ENDMDL
MODEL 9
REMARK VINA RESULT:    -6.331      2.826      5.904
REMARK INTER + INTRA:          -8.033
REMARK INTER:                  -7.493
REMARK INTRA:                  -0.540
REMARK UNBOUND:                -0.406
REMARK  Name = cpd248.pdb
REMARK  6 active torsions:
REMARK  status: ('A' for Active; 'I' for Inactive)
REMARK    1  A    between atoms: C_2  and  C_3
REMARK    2  A    between atoms: C_2  and  C_4
REMARK    3  A    between atoms: C_4  and  N_5
REMARK    4  A    between atoms: C_11  and  O_12
REMARK    5  A    between atoms: C_17  and  O_18
REMARK    6  A    between atoms: O_18  and  C_19
REMARK                            x       y       z     vdW  Elec       q    Type
REMARK                         _______ _______ _______ _____ _____    ______ ____
ROOT
ATOM      1  N   UNL     1      33.379 -35.788 -30.540  0.00  0.00    -0.294 N 
ATOM      2  C   UNL     1      33.420 -37.260 -30.586  0.00  0.00    +0.001 C 
ATOM      3  C   UNL     1      33.678 -37.910 -29.199  0.00  0.00    -0.023 C 
ATOM      4  C   UNL     1      34.540 -37.062 -28.231  0.00  0.00    +0.056 C 
ATOM      5  C   UNL     1      33.691 -36.041 -27.513  0.00  0.00    -0.071 C 
ATOM      6  C   UNL     1      33.097 -36.356 -26.343  0.00  0.00    -0.059 C 
ATOM      7  C   UNL     1      33.278 -37.679 -25.629  0.00  0.00    +0.077 C 
ATOM      8  C   UNL     1      34.311 -38.638 -26.267  0.00  0.00    +0.015 C 
ATOM      9  C   UNL     1      35.280 -37.805 -27.093  0.00  0.00    +0.116 C 
ATOM     10  O   UNL     1      36.399 -38.494 -27.665  0.00  0.00    -0.484 OA
ATOM     11  C   UNL     1      36.822 -37.555 -28.598  0.00  0.00    +0.167 A 
ATOM     12  C   UNL     1      38.068 -37.506 -29.202  0.00  0.00    +0.162 A 
ATOM     13  C   UNL     1      38.237 -36.562 -30.221  0.00  0.00    -0.016 A 
ATOM     14  C   UNL     1      37.172 -35.756 -30.661  0.00  0.00    -0.053 A 
ATOM     15  C   UNL     1      35.900 -35.853 -30.077  0.00  0.00    -0.026 A 
ATOM     16  C   UNL     1      35.780 -36.686 -28.973  0.00  0.00    +0.016 A 
ATOM     17  C   UNL     1      34.716 -35.164 -30.726  0.00  0.00    +0.025 C 
ATOM     18  H   UNL     1      33.047 -35.556 -29.604  0.00  0.00    +0.000 HD
ENDROOT
BRANCH   7  19
ATOM     19  O   UNL     1      33.711 -37.349 -24.311  0.00  0.00    -0.388 OA
ATOM     20  H   UNL     1      33.207 -37.868 -23.666  0.00  0.00    +0.000 HD
ENDBRANCH   7  19
BRANCH  12  21
ATOM     21  O   UNL     1      39.169 -38.268 -28.946  0.00  0.00    -0.491 OA
ATOM     22  C   UNL     1      40.434 -37.707 -29.266  0.00  0.00    +0.079 C 
ENDBRANCH  12  21
BRANCH   1  23
ATOM     23  C   UNL     1      32.450 -35.240 -31.544  0.00  0.00    +0.020 C 
BRANCH  23  25
ATOM     24  C   UNL     1      31.319 -32.970 -31.732  0.00  0.00    -0.098 C 
ATOM     25  C   UNL     1      31.540 -34.119 -31.070  0.00  0.00    -0.066 C 
ATOM     26  C   UNL     1      30.848 -34.392 -29.761  0.00  0.00    -0.043 C 
ENDBRANCH  23  25
ENDBRANCH   1  23
TORSDOF 4
ENDMDL
MODEL 10
REMARK VINA RESULT:    -6.309     18.662     21.359
REMARK INTER + INTRA:          -8.006
REMARK INTER:                  -7.425
REMARK INTRA:                  -0.581
REMARK UNBOUND:                -0.406
REMARK  Name = cpd248.pdb
REMARK  6 active torsions:
REMARK  status: ('A' for Active; 'I' for Inactive)
REMARK    1  A    between atoms: C_2  and  C_3
REMARK    2  A    between atoms: C_2  and  C_4
REMARK    3  A    between atoms: C_4  and  N_5
REMARK    4  A    between atoms: C_11  and  O_12
REMARK    5  A    between atoms: C_17  and  O_18
REMARK    6  A    between atoms: O_18  and  C_19
REMARK                            x       y       z     vdW  Elec       q    Type
REMARK                         _______ _______ _______ _____ _____    ______ ____
ROOT
ATOM      1  N   UNL     1      44.830 -18.612 -37.530  0.00  0.00    -0.294 N 
ATOM      2  C   UNL     1      44.268 -18.174 -38.820  0.00  0.00    +0.001 C 
ATOM      3  C   UNL     1      43.218 -19.162 -39.398  0.00  0.00    -0.023 C 
ATOM      4  C   UNL     1      43.447 -20.649 -39.028  0.00  0.00    +0.056 C 
ATOM      5  C   UNL     1      42.877 -20.956 -37.665  0.00  0.00    -0.071 C 
ATOM      6  C   UNL     1      41.595 -21.361 -37.543  0.00  0.00    -0.059 C 
ATOM      7  C   UNL     1      40.669 -21.611 -38.714  0.00  0.00    +0.077 C 
ATOM      8  C   UNL     1      41.324 -21.493 -40.111  0.00  0.00    +0.015 C 
ATOM      9  C   UNL     1      42.819 -21.721 -39.951  0.00  0.00    +0.116 C 
ATOM     10  O   UNL     1      43.596 -21.784 -41.154  0.00  0.00    -0.484 OA
ATOM     11  C   UNL     1      44.876 -21.632 -40.635  0.00  0.00    +0.167 A 
ATOM     12  C   UNL     1      46.061 -21.964 -41.270  0.00  0.00    +0.162 A 
ATOM     13  C   UNL     1      47.247 -21.593 -40.626  0.00  0.00    -0.016 A 
ATOM     14  C   UNL     1      47.234 -20.853 -39.430  0.00  0.00    -0.053 A 
ATOM     15  C   UNL     1      46.025 -20.475 -38.824  0.00  0.00    -0.026 A 
ATOM     16  C   UNL     1      44.859 -20.971 -39.391  0.00  0.00    +0.016 A 
ATOM     17  C   UNL     1      46.031 -19.475 -37.685  0.00  0.00    +0.025 C 
ATOM     18  H   UNL     1      44.096 -19.166 -37.089  0.00  0.00    +0.000 HD
ENDROOT
BRANCH   7  19
ATOM     19  O   UNL     1      40.184 -22.941 -38.545  0.00  0.00    -0.388 OA
ATOM     20  H   UNL     1      40.684 -23.380 -37.839  0.00  0.00    +0.000 HD
ENDBRANCH   7  19
BRANCH  12  21
ATOM     21  O   UNL     1      46.239 -22.603 -42.461  0.00  0.00    -0.491 OA
ATOM     22  C   UNL     1      47.300 -23.544 -42.540  0.00  0.00    +0.079 C 
ENDBRANCH  12  21
BRANCH   1  23
ATOM     23  C   UNL     1      45.171 -17.466 -36.670  0.00  0.00    +0.020 C 
BRANCH  23  25
ATOM     24  C   UNL     1      45.265 -16.947 -34.183  0.00  0.00    -0.098 C 
ATOM     25  C   UNL     1      44.672 -17.537 -35.236  0.00  0.00    -0.066 C 
ATOM     26  C   UNL     1      43.403 -18.325 -35.057  0.00  0.00    -0.043 C 
ENDBRANCH  23  25
ENDBRANCH   1  23
TORSDOF 4
ENDMDL
MODEL 11
REMARK VINA RESULT:    -6.220      3.604      5.932
REMARK INTER + INTRA:          -7.899
REMARK INTER:                  -7.347
REMARK INTRA:                  -0.552
REMARK UNBOUND:                -0.406
REMARK  Name = cpd248.pdb
REMARK  6 active torsions:
REMARK  status: ('A' for Active; 'I' for Inactive)
REMARK    1  A    between atoms: C_2  and  C_3
REMARK    2  A    between atoms: C_2  and  C_4
REMARK    3  A    between atoms: C_4  and  N_5
REMARK    4  A    between atoms: C_11  and  O_12
REMARK    5  A    between atoms: C_17  and  O_18
REMARK    6  A    between atoms: O_18  and  C_19
REMARK                            x       y       z     vdW  Elec       q    Type
REMARK                         _______ _______ _______ _____ _____    ______ ____
ROOT
ATOM      1  N   UNL     1      34.803 -35.545 -29.974  0.00  0.00    -0.294 N 
ATOM      2  C   UNL     1      33.445 -35.872 -29.505  0.00  0.00    +0.001 C 
ATOM      3  C   UNL     1      32.413 -36.004 -30.658  0.00  0.00    -0.023 C 
ATOM      4  C   UNL     1      32.698 -35.114 -31.894  0.00  0.00    +0.056 C 
ATOM      5  C   UNL     1      33.698 -35.775 -32.811  0.00  0.00    -0.071 C 
ATOM      6  C   UNL     1      33.275 -36.602 -33.791  0.00  0.00    -0.059 C 
ATOM      7  C   UNL     1      31.819 -36.874 -34.101  0.00  0.00    +0.077 C 
ATOM      8  C   UNL     1      30.803 -36.035 -33.292  0.00  0.00    +0.015 C 
ATOM      9  C   UNL     1      31.506 -34.771 -32.819  0.00  0.00    +0.116 C 
ATOM     10  O   UNL     1      30.697 -33.789 -32.159  0.00  0.00    -0.484 OA
ATOM     11  C   UNL     1      31.683 -33.003 -31.574  0.00  0.00    +0.167 A 
ATOM     12  C   UNL     1      31.527 -31.708 -31.107  0.00  0.00    +0.162 A 
ATOM     13  C   UNL     1      32.612 -31.151 -30.422  0.00  0.00    -0.016 A 
ATOM     14  C   UNL     1      33.776 -31.896 -30.155  0.00  0.00    -0.053 A 
ATOM     15  C   UNL     1      33.900 -33.225 -30.587  0.00  0.00    -0.026 A 
ATOM     16  C   UNL     1      32.881 -33.721 -31.389  0.00  0.00    +0.016 A 
ATOM     17  C   UNL     1      35.043 -34.081 -30.079  0.00  0.00    +0.025 C 
ATOM     18  H   UNL     1      34.870 -35.946 -30.909  0.00  0.00    +0.000 HD
ENDROOT
BRANCH   7  19
ATOM     19  O   UNL     1      31.658 -36.579 -35.486  0.00  0.00    -0.388 OA
ATOM     20  H   UNL     1      31.239 -37.332 -35.931  0.00  0.00    +0.000 HD
ENDBRANCH   7  19
BRANCH  12  21
ATOM     21  O   UNL     1      30.442 -30.890 -31.213  0.00  0.00    -0.491 OA
ATOM     22  C   UNL     1      29.811 -30.491 -30.004  0.00  0.00    +0.079 C 
ENDBRANCH  12  21
BRANCH   1  23
ATOM     23  C   UNL     1      35.834 -36.139 -29.105  0.00  0.00    +0.020 C 
BRANCH  23  25
ATOM     24  C   UNL     1      38.184 -36.972 -29.604  0.00  0.00    -0.098 C 
ATOM     25  C   UNL     1      36.854 -37.031 -29.793  0.00  0.00    -0.066 C 
ATOM     26  C   UNL     1      36.259 -38.048 -30.729  0.00  0.00    -0.043 C 
ENDBRANCH  23  25
ENDBRANCH   1  23
TORSDOF 4
ENDMDL
MODEL 12
REMARK VINA RESULT:    -6.186     18.909     21.827
REMARK INTER + INTRA:          -7.858
REMARK INTER:                  -7.759
REMARK INTRA:                  -0.099
REMARK UNBOUND:                -0.406
REMARK  Name = cpd248.pdb
REMARK  6 active torsions:
REMARK  status: ('A' for Active; 'I' for Inactive)
REMARK    1  A    between atoms: C_2  and  C_3
REMARK    2  A    between atoms: C_2  and  C_4
REMARK    3  A    between atoms: C_4  and  N_5
REMARK    4  A    between atoms: C_11  and  O_12
REMARK    5  A    between atoms: C_17  and  O_18
REMARK    6  A    between atoms: O_18  and  C_19
REMARK                            x       y       z     vdW  Elec       q    Type
REMARK                         _______ _______ _______ _____ _____    ______ ____
ROOT
ATOM      1  N   UNL     1      46.547 -18.391 -37.790  0.00  0.00    -0.294 N 
ATOM      2  C   UNL     1      46.296 -19.712 -37.189  0.00  0.00    +0.001 C 
ATOM      3  C   UNL     1      46.291 -20.867 -38.227  0.00  0.00    -0.023 C 
ATOM      4  C   UNL     1      45.808 -20.470 -39.644  0.00  0.00    +0.056 C 
ATOM      5  C   UNL     1      46.933 -19.857 -40.441  0.00  0.00    -0.071 C 
ATOM      6  C   UNL     1      47.741 -20.641 -41.186  0.00  0.00    -0.059 C 
ATOM      7  C   UNL     1      47.557 -22.134 -41.349  0.00  0.00    +0.077 C 
ATOM      8  C   UNL     1      46.283 -22.719 -40.697  0.00  0.00    +0.015 C 
ATOM      9  C   UNL     1      45.266 -21.595 -40.558  0.00  0.00    +0.116 C 
ATOM     10  O   UNL     1      43.960 -21.958 -40.092  0.00  0.00    -0.484 OA
ATOM     11  C   UNL     1      43.458 -20.708 -39.753  0.00  0.00    +0.167 A 
ATOM     12  C   UNL     1      42.123 -20.381 -39.580  0.00  0.00    +0.162 A 
ATOM     13  C   UNL     1      41.846 -19.098 -39.097  0.00  0.00    -0.016 A 
ATOM     14  C   UNL     1      42.874 -18.211 -38.732  0.00  0.00    -0.053 A 
ATOM     15  C   UNL     1      44.224 -18.573 -38.860  0.00  0.00    -0.026 A 
ATOM     16  C   UNL     1      44.489 -19.789 -39.475  0.00  0.00    +0.016 A 
ATOM     17  C   UNL     1      45.301 -17.710 -38.234  0.00  0.00    +0.025 C 
ATOM     18  H   UNL     1      47.120 -18.573 -38.614  0.00  0.00    +0.000 HD
ENDROOT
BRANCH   7  19
ATOM     19  O   UNL     1      47.500 -22.364 -42.755  0.00  0.00    -0.388 OA
ATOM     20  H   UNL     1      48.259 -22.904 -43.026  0.00  0.00    +0.000 HD
ENDBRANCH   7  19
BRANCH  12  21
ATOM     21  O   UNL     1      41.022 -21.151 -39.809  0.00  0.00    -0.491 OA
ATOM     22  C   UNL     1      40.325 -21.640 -38.672  0.00  0.00    +0.079 C 
ENDBRANCH  12  21
BRANCH   1  23
ATOM     23  C   UNL     1      47.275 -17.504 -36.866  0.00  0.00    +0.020 C 
BRANCH  23  25
ATOM     24  C   UNL     1      48.331 -18.573 -34.815  0.00  0.00    -0.098 C 
ATOM     25  C   UNL     1      47.306 -17.938 -35.410  0.00  0.00    -0.066 C 
ATOM     26  C   UNL     1      46.072 -17.578 -34.627  0.00  0.00    -0.043 C 
ENDBRANCH  23  25
ENDBRANCH   1  23
TORSDOF 4
ENDMDL
MODEL 13
REMARK VINA RESULT:    -6.178     26.031     28.463
REMARK INTER + INTRA:          -7.849
REMARK INTER:                  -7.382
REMARK INTRA:                  -0.467
REMARK UNBOUND:                -0.406
REMARK  Name = cpd248.pdb
REMARK  6 active torsions:
REMARK  status: ('A' for Active; 'I' for Inactive)
REMARK    1  A    between atoms: C_2  and  C_3
REMARK    2  A    between atoms: C_2  and  C_4
REMARK    3  A    between atoms: C_4  and  N_5
REMARK    4  A    between atoms: C_11  and  O_12
REMARK    5  A    between atoms: C_17  and  O_18
REMARK    6  A    between atoms: O_18  and  C_19
REMARK                            x       y       z     vdW  Elec       q    Type
REMARK                         _______ _______ _______ _____ _____    ______ ____
ROOT
ATOM      1  N   UNL     1      47.100 -31.442 -54.603  0.00  0.00    -0.294 N 
ATOM      2  C   UNL     1      47.851 -32.514 -55.279  0.00  0.00    +0.001 C 
ATOM      3  C   UNL     1      47.095 -33.120 -56.493  0.00  0.00    -0.023 C 
ATOM      4  C   UNL     1      45.550 -33.104 -56.376  0.00  0.00    +0.056 C 
ATOM      5  C   UNL     1      44.996 -31.765 -56.793  0.00  0.00    -0.071 C 
ATOM      6  C   UNL     1      44.670 -31.539 -58.083  0.00  0.00    -0.059 C 
ATOM      7  C   UNL     1      44.754 -32.584 -59.175  0.00  0.00    +0.077 C 
ATOM      8  C   UNL     1      45.126 -34.008 -58.698  0.00  0.00    +0.015 C 
ATOM      9  C   UNL     1      44.757 -34.125 -57.227  0.00  0.00    +0.116 C 
ATOM     10  O   UNL     1      44.902 -35.417 -56.624  0.00  0.00    -0.484 OA
ATOM     11  C   UNL     1      44.841 -35.075 -55.279  0.00  0.00    +0.167 A 
ATOM     12  C   UNL     1      44.569 -35.935 -54.228  0.00  0.00    +0.162 A 
ATOM     13  C   UNL     1      44.699 -35.412 -52.936  0.00  0.00    -0.016 A 
ATOM     14  C   UNL     1      45.157 -34.101 -52.715  0.00  0.00    -0.053 A 
ATOM     15  C   UNL     1      45.482 -33.256 -53.789  0.00  0.00    -0.026 A 
ATOM     16  C   UNL     1      45.212 -33.733 -55.064  0.00  0.00    +0.016 A 
ATOM     17  C   UNL     1      46.204 -31.949 -53.530  0.00  0.00    +0.025 C 
ATOM     18  H   UNL     1      46.519 -31.020 -55.328  0.00  0.00    +0.000 HD
ENDROOT
BRANCH   7  19
ATOM     19  O   UNL     1      43.460 -32.623 -59.770  0.00  0.00    -0.388 OA
ATOM     20  H   UNL     1      42.932 -33.321 -59.352  0.00  0.00    +0.000 HD
ENDBRANCH   7  19
BRANCH  12  21
ATOM     21  O   UNL     1      44.195 -37.245 -54.274  0.00  0.00    -0.491 OA
ATOM     22  C   UNL     1      45.229 -38.209 -54.415  0.00  0.00    +0.079 C 
ENDBRANCH  12  21
BRANCH   1  23
ATOM     23  C   UNL     1      48.000 -30.424 -54.035  0.00  0.00    +0.020 C 
BRANCH  23  25
ATOM     24  C   UNL     1      48.374 -28.749 -55.912  0.00  0.00    -0.098 C 
ATOM     25  C   UNL     1      47.939 -29.047 -54.675  0.00  0.00    -0.066 C 
ATOM     26  C   UNL     1      47.312 -27.986 -53.810  0.00  0.00    -0.043 C 
ENDBRANCH  23  25
ENDBRANCH   1  23
TORSDOF 4
ENDMDL
MODEL 14
REMARK VINA RESULT:    -6.091     18.307     21.371
REMARK INTER + INTRA:          -7.744
REMARK INTER:                  -7.250
REMARK INTRA:                  -0.494
REMARK UNBOUND:                -0.406
REMARK  Name = cpd248.pdb
REMARK  6 active torsions:
REMARK  status: ('A' for Active; 'I' for Inactive)
REMARK    1  A    between atoms: C_2  and  C_3
REMARK    2  A    between atoms: C_2  and  C_4
REMARK    3  A    between atoms: C_4  and  N_5
REMARK    4  A    between atoms: C_11  and  O_12
REMARK    5  A    between atoms: C_17  and  O_18
REMARK    6  A    between atoms: O_18  and  C_19
REMARK                            x       y       z     vdW  Elec       q    Type
REMARK                         _______ _______ _______ _____ _____    ______ ____
ROOT
ATOM      1  N   UNL     1      42.501 -19.954 -38.090  0.00  0.00    -0.294 N 
ATOM      2  C   UNL     1      42.866 -18.588 -38.505  0.00  0.00    +0.001 C 
ATOM      3  C   UNL     1      44.162 -18.533 -39.359  0.00  0.00    -0.023 C 
ATOM      4  C   UNL     1      45.204 -19.634 -39.038  0.00  0.00    +0.056 C 
ATOM      5  C   UNL     1      44.869 -20.915 -39.763  0.00  0.00    -0.071 C 
ATOM      6  C   UNL     1      45.354 -21.139 -41.002  0.00  0.00    -0.059 C 
ATOM      7  C   UNL     1      46.301 -20.204 -41.724  0.00  0.00    +0.077 C 
ATOM      8  C   UNL     1      46.800 -18.998 -40.893  0.00  0.00    +0.015 C 
ATOM      9  C   UNL     1      46.678 -19.358 -39.420  0.00  0.00    +0.116 C 
ATOM     10  O   UNL     1      47.214 -18.420 -38.478  0.00  0.00    -0.484 OA
ATOM     11  C   UNL     1      46.621 -18.873 -37.306  0.00  0.00    +0.167 A 
ATOM     12  C   UNL     1      47.036 -18.587 -36.016  0.00  0.00    +0.162 A 
ATOM     13  C   UNL     1      46.210 -19.028 -34.976  0.00  0.00    -0.016 A 
ATOM     14  C   UNL     1      44.981 -19.664 -35.231  0.00  0.00    -0.053 A 
ATOM     15  C   UNL     1      44.546 -19.900 -36.545  0.00  0.00    -0.026 A 
ATOM     16  C   UNL     1      45.437 -19.590 -37.564  0.00  0.00    +0.016 A 
ATOM     17  C   UNL     1      43.123 -20.354 -36.799  0.00  0.00    +0.025 C 
ATOM     18  H   UNL     1      42.866 -20.565 -38.821  0.00  0.00    +0.000 HD
ENDROOT
BRANCH   7  19
ATOM     19  O   UNL     1      47.423 -21.002 -42.093  0.00  0.00    -0.388 OA
ATOM     20  H   UNL     1      47.746 -21.485 -41.316  0.00  0.00    +0.000 HD
ENDBRANCH   7  19
BRANCH  12  21
ATOM     21  O   UNL     1      48.150 -17.915 -35.609  0.00  0.00    -0.491 OA
ATOM     22  C   UNL     1      49.210 -18.688 -35.064  0.00  0.00    +0.079 C 
ENDBRANCH  12  21
BRANCH   1  23
ATOM     23  C   UNL     1      41.041 -20.119 -37.990  0.00  0.00    +0.020 C 
BRANCH  23  25
ATOM     24  C   UNL     1      40.874 -22.214 -39.420  0.00  0.00    -0.098 C 
ATOM     25  C   UNL     1      40.497 -21.491 -38.351  0.00  0.00    -0.066 C 
ATOM     26  C   UNL     1      39.477 -22.030 -37.385  0.00  0.00    -0.043 C 
ENDBRANCH  23  25
ENDBRANCH   1  23
TORSDOF 4
ENDMDL
MODEL 15
REMARK VINA RESULT:    -6.046     16.792     20.399
REMARK INTER + INTRA:          -7.690
REMARK INTER:                  -7.208
REMARK INTRA:                  -0.482
REMARK UNBOUND:                -0.406
REMARK  Name = cpd248.pdb
REMARK  6 active torsions:
REMARK  status: ('A' for Active; 'I' for Inactive)
REMARK    1  A    between atoms: C_2  and  C_3
REMARK    2  A    between atoms: C_2  and  C_4
REMARK    3  A    between atoms: C_4  and  N_5
REMARK    4  A    between atoms: C_11  and  O_12
REMARK    5  A    between atoms: C_17  and  O_18
REMARK    6  A    between atoms: O_18  and  C_19
REMARK                            x       y       z     vdW  Elec       q    Type
REMARK                         _______ _______ _______ _____ _____    ______ ____
ROOT
ATOM      1  N   UNL     1      44.031 -20.165 -39.819  0.00  0.00    -0.294 N 
ATOM      2  C   UNL     1      43.511 -18.929 -39.208  0.00  0.00    +0.001 C 
ATOM      3  C   UNL     1      44.103 -18.645 -37.801  0.00  0.00    -0.023 C 
ATOM      4  C   UNL     1      44.483 -19.906 -36.984  0.00  0.00    +0.056 C 
ATOM      5  C   UNL     1      45.851 -20.406 -37.378  0.00  0.00    -0.071 C 
ATOM      6  C   UNL     1      46.949 -19.946 -36.743  0.00  0.00    -0.059 C 
ATOM      7  C   UNL     1      46.913 -18.983 -35.575  0.00  0.00    +0.077 C 
ATOM      8  C   UNL     1      45.500 -18.637 -35.048  0.00  0.00    +0.015 C 
ATOM      9  C   UNL     1      44.559 -19.766 -35.445  0.00  0.00    +0.116 C 
ATOM     10  O   UNL     1      43.221 -19.701 -34.936  0.00  0.00    -0.484 OA
ATOM     11  C   UNL     1      42.594 -20.628 -35.759  0.00  0.00    +0.167 A 
ATOM     12  C   UNL     1      41.383 -21.254 -35.513  0.00  0.00    +0.162 A 
ATOM     13  C   UNL     1      40.862 -22.045 -36.543  0.00  0.00    -0.016 A 
ATOM     14  C   UNL     1      41.499 -22.139 -37.794  0.00  0.00    -0.053 A 
ATOM     15  C   UNL     1      42.698 -21.456 -38.049  0.00  0.00    -0.026 A 
ATOM     16  C   UNL     1      43.281 -20.793 -36.978  0.00  0.00    +0.016 A 
ATOM     17  C   UNL     1      43.231 -21.368 -39.465  0.00  0.00    +0.025 C 
ATOM     18  H   UNL     1      44.968 -20.283 -39.434  0.00  0.00    +0.000 HD
ENDROOT
BRANCH   7  19
ATOM     19  O   UNL     1      47.650 -19.616 -34.532  0.00  0.00    -0.388 OA
ATOM     20  H   UNL     1      48.566 -19.750 -34.819  0.00  0.00    +0.000 HD
ENDBRANCH   7  19
BRANCH  12  21
ATOM     21  O   UNL     1      40.608 -21.199 -34.393  0.00  0.00    -0.491 OA
ATOM     22  C   UNL     1      40.897 -22.128 -33.359  0.00  0.00    +0.079 C 
ENDBRANCH  12  21
BRANCH   1  23
ATOM     23  C   UNL     1      44.108 -20.054 -41.286  0.00  0.00    +0.020 C 
BRANCH  23  25
ATOM     24  C   UNL     1      45.009 -21.912 -42.770  0.00  0.00    -0.098 C 
ATOM     25  C   UNL     1      45.208 -20.858 -41.959  0.00  0.00    -0.066 C 
ATOM     26  C   UNL     1      46.602 -20.369 -41.669  0.00  0.00    -0.043 C 
ENDBRANCH  23  25
ENDBRANCH   1  23
TORSDOF 4
ENDMDL
MODEL 16
REMARK VINA RESULT:    -5.902     19.157     22.394
REMARK INTER + INTRA:          -7.516
REMARK INTER:                  -7.012
REMARK INTRA:                  -0.504
REMARK UNBOUND:                -0.406
REMARK  Name = cpd248.pdb
REMARK  6 active torsions:
REMARK  status: ('A' for Active; 'I' for Inactive)
REMARK    1  A    between atoms: C_2  and  C_3
REMARK    2  A    between atoms: C_2  and  C_4
REMARK    3  A    between atoms: C_4  and  N_5
REMARK    4  A    between atoms: C_11  and  O_12
REMARK    5  A    between atoms: C_17  and  O_18
REMARK    6  A    between atoms: O_18  and  C_19
REMARK                            x       y       z     vdW  Elec       q    Type
REMARK                         _______ _______ _______ _____ _____    ______ ____
ROOT
ATOM      1  N   UNL     1      43.339 -19.762 -38.273  0.00  0.00    -0.294 N 
ATOM      2  C   UNL     1      43.208 -19.114 -39.590  0.00  0.00    +0.001 C 
ATOM      3  C   UNL     1      44.378 -19.447 -40.555  0.00  0.00    -0.023 C 
ATOM      4  C   UNL     1      45.740 -19.710 -39.865  0.00  0.00    +0.056 C 
ATOM      5  C   UNL     1      45.830 -21.137 -39.382  0.00  0.00    -0.071 C 
ATOM      6  C   UNL     1      46.317 -22.097 -40.196  0.00  0.00    -0.059 C 
ATOM      7  C   UNL     1      46.868 -21.836 -41.581  0.00  0.00    +0.077 C 
ATOM      8  C   UNL     1      46.962 -20.346 -41.985  0.00  0.00    +0.015 C 
ATOM      9  C   UNL     1      47.021 -19.515 -40.711  0.00  0.00    +0.116 C 
ATOM     10  O   UNL     1      47.244 -18.108 -40.867  0.00  0.00    -0.484 OA
ATOM     11  C   UNL     1      46.881 -17.655 -39.605  0.00  0.00    +0.167 A 
ATOM     12  C   UNL     1      47.221 -16.435 -39.044  0.00  0.00    +0.162 A 
ATOM     13  C   UNL     1      46.630 -16.119 -37.816  0.00  0.00    -0.016 A 
ATOM     14  C   UNL     1      45.678 -16.965 -37.218  0.00  0.00    -0.053 A 
ATOM     15  C   UNL     1      45.301 -18.174 -37.823  0.00  0.00    -0.026 A 
ATOM     16  C   UNL     1      45.998 -18.546 -38.964  0.00  0.00    +0.016 A 
ATOM     17  C   UNL     1      44.105 -18.941 -37.297  0.00  0.00    +0.025 C 
ATOM     18  H   UNL     1      43.861 -20.621 -38.444  0.00  0.00    +0.000 HD
ENDROOT
BRANCH   7  19
ATOM     19  O   UNL     1      48.179 -22.396 -41.586  0.00  0.00    -0.388 OA
ATOM     20  H   UNL     1      48.779 -21.820 -41.088  0.00  0.00    +0.000 HD
ENDBRANCH   7  19
BRANCH  12  21
ATOM     21  O   UNL     1      48.058 -15.477 -39.533  0.00  0.00    -0.491 OA
ATOM     22  C   UNL     1      48.420 -14.422 -38.654  0.00  0.00    +0.079 C 
ENDBRANCH  12  21
BRANCH   1  23
ATOM     23  C   UNL     1      42.023 -20.089 -37.696  0.00  0.00    +0.020 C 
BRANCH  23  25
ATOM     24  C   UNL     1      41.562 -22.359 -38.745  0.00  0.00    -0.098 C 
ATOM     25  C   UNL     1      41.188 -21.097 -38.468  0.00  0.00    -0.066 C 
ATOM     26  C   UNL     1      39.843 -20.584 -38.907  0.00  0.00    -0.043 C 
ENDBRANCH  23  25
ENDBRANCH   1  23
TORSDOF 4
ENDMDL
MODEL 17
REMARK VINA RESULT:    -5.902     21.367     23.299
REMARK INTER + INTRA:          -7.516
REMARK INTER:                  -6.967
REMARK INTRA:                  -0.549
REMARK UNBOUND:                -0.406
REMARK  Name = cpd248.pdb
REMARK  6 active torsions:
REMARK  status: ('A' for Active; 'I' for Inactive)
REMARK    1  A    between atoms: C_2  and  C_3
REMARK    2  A    between atoms: C_2  and  C_4
REMARK    3  A    between atoms: C_4  and  N_5
REMARK    4  A    between atoms: C_11  and  O_12
REMARK    5  A    between atoms: C_17  and  O_18
REMARK    6  A    between atoms: O_18  and  C_19
REMARK                            x       y       z     vdW  Elec       q    Type
REMARK                         _______ _______ _______ _____ _____    ______ ____
ROOT
ATOM      1  N   UNL     1      43.599 -17.180 -40.315  0.00  0.00    -0.294 N 
ATOM      2  C   UNL     1      42.987 -18.190 -39.434  0.00  0.00    +0.001 C 
ATOM      3  C   UNL     1      43.964 -18.740 -38.360  0.00  0.00    -0.023 C 
ATOM      4  C   UNL     1      45.454 -18.770 -38.786  0.00  0.00    +0.056 C 
ATOM      5  C   UNL     1      46.098 -17.422 -38.577  0.00  0.00    -0.071 C 
ATOM      6  C   UNL     1      46.681 -17.126 -37.396  0.00  0.00    -0.059 C 
ATOM      7  C   UNL     1      46.807 -18.100 -36.244  0.00  0.00    +0.077 C 
ATOM      8  C   UNL     1      46.328 -19.540 -36.543  0.00  0.00    +0.015 C 
ATOM      9  C   UNL     1      46.390 -19.756 -38.048  0.00  0.00    +0.116 C 
ATOM     10  O   UNL     1      46.110 -21.078 -38.524  0.00  0.00    -0.484 OA
ATOM     11  C   UNL     1      45.902 -20.821 -39.873  0.00  0.00    +0.167 A 
ATOM     12  C   UNL     1      45.945 -21.751 -40.900  0.00  0.00    +0.162 A 
ATOM     13  C   UNL     1      45.563 -21.305 -42.169  0.00  0.00    -0.016 A 
ATOM     14  C   UNL     1      45.086 -19.998 -42.378  0.00  0.00    -0.053 A 
ATOM     15  C   UNL     1      44.995 -19.082 -41.319  0.00  0.00    -0.026 A 
ATOM     16  C   UNL     1      45.512 -19.486 -40.096  0.00  0.00    +0.016 A 
ATOM     17  C   UNL     1      44.252 -17.775 -41.512  0.00  0.00    +0.025 C 
ATOM     18  H   UNL     1      44.319 -16.730 -39.751  0.00  0.00    +0.000 HD
ENDROOT
BRANCH   7  19
ATOM     19  O   UNL     1      48.194 -18.136 -35.920  0.00  0.00    -0.388 OA
ATOM     20  H   UNL     1      48.337 -18.741 -35.176  0.00  0.00    +0.000 HD
ENDBRANCH   7  19
BRANCH  12  21
ATOM     21  O   UNL     1      46.304 -23.064 -40.844  0.00  0.00    -0.491 OA
ATOM     22  C   UNL     1      47.246 -23.520 -41.804  0.00  0.00    +0.079 C 
ENDBRANCH  12  21
BRANCH   1  23
ATOM     23  C   UNL     1      42.615 -16.176 -40.755  0.00  0.00    +0.020 C 
BRANCH  23  25
ATOM     24  C   UNL     1      43.725 -14.416 -39.294  0.00  0.00    -0.098 C 
ATOM     25  C   UNL     1      42.799 -14.773 -40.202  0.00  0.00    -0.066 C 
ATOM     26  C   UNL     1      41.852 -13.751 -40.771  0.00  0.00    -0.043 C 
ENDBRANCH  23  25
ENDBRANCH   1  23
TORSDOF 4
ENDMDL
MODEL 18
REMARK VINA RESULT:    -5.865     18.578     22.067
REMARK INTER + INTRA:          -7.471
REMARK INTER:                  -6.986
REMARK INTRA:                  -0.485
REMARK UNBOUND:                -0.406
REMARK  Name = cpd248.pdb
REMARK  6 active torsions:
REMARK  status: ('A' for Active; 'I' for Inactive)
REMARK    1  A    between atoms: C_2  and  C_3
REMARK    2  A    between atoms: C_2  and  C_4
REMARK    3  A    between atoms: C_4  and  N_5
REMARK    4  A    between atoms: C_11  and  O_12
REMARK    5  A    between atoms: C_17  and  O_18
REMARK    6  A    between atoms: O_18  and  C_19
REMARK                            x       y       z     vdW  Elec       q    Type
REMARK                         _______ _______ _______ _____ _____    ______ ____
ROOT
ATOM      1  N   UNL     1      45.798 -20.156 -40.533  0.00  0.00    -0.294 N 
ATOM      2  C   UNL     1      45.687 -19.784 -39.112  0.00  0.00    +0.001 C 
ATOM      3  C   UNL     1      44.280 -20.059 -38.514  0.00  0.00    -0.023 C 
ATOM      4  C   UNL     1      43.108 -19.940 -39.522  0.00  0.00    +0.056 C 
ATOM      5  C   UNL     1      42.944 -21.219 -40.306  0.00  0.00    -0.071 C 
ATOM      6  C   UNL     1      42.143 -22.200 -39.841  0.00  0.00    -0.059 C 
ATOM      7  C   UNL     1      41.307 -22.089 -38.583  0.00  0.00    +0.077 C 
ATOM      8  C   UNL     1      41.323 -20.701 -37.900  0.00  0.00    +0.015 C 
ATOM      9  C   UNL     1      41.697 -19.664 -38.949  0.00  0.00    +0.116 C 
ATOM     10  O   UNL     1      41.640 -18.289 -38.548  0.00  0.00    -0.484 OA
ATOM     11  C   UNL     1      42.363 -17.697 -39.576  0.00  0.00    +0.167 A 
ATOM     12  C   UNL     1      42.345 -16.356 -39.923  0.00  0.00    +0.162 A 
ATOM     13  C   UNL     1      43.260 -15.945 -40.898  0.00  0.00    -0.016 A 
ATOM     14  C   UNL     1      44.203 -16.834 -41.444  0.00  0.00    -0.053 A 
ATOM     15  C   UNL     1      44.247 -18.179 -41.045  0.00  0.00    -0.026 A 
ATOM     16  C   UNL     1      43.245 -18.610 -40.187  0.00  0.00    +0.016 A 
ATOM     17  C   UNL     1      45.419 -19.050 -41.453  0.00  0.00    +0.025 C 
ATOM     18  H   UNL     1      45.136 -20.920 -40.665  0.00  0.00    +0.000 HD
ENDROOT
BRANCH   7  19
ATOM     19  O   UNL     1      39.971 -22.389 -38.980  0.00  0.00    -0.388 OA
ATOM     20  H   UNL     1      39.398 -21.631 -38.787  0.00  0.00    +0.000 HD
ENDBRANCH   7  19
BRANCH  12  21
ATOM     21  O   UNL     1      41.553 -15.361 -39.432  0.00  0.00    -0.491 OA
ATOM     22  C   UNL     1      42.061 -14.609 -38.339  0.00  0.00    +0.079 C 
ENDBRANCH  12  21
BRANCH   1  23
ATOM     23  C   UNL     1      47.157 -20.614 -40.869  0.00  0.00    +0.020 C 
BRANCH  23  25
ATOM     24  C   UNL     1      46.460 -22.664 -42.202  0.00  0.00    -0.098 C 
ATOM     25  C   UNL     1      47.280 -22.058 -41.326  0.00  0.00    -0.066 C 
ATOM     26  C   UNL     1      48.444 -22.802 -40.729  0.00  0.00    -0.043 C 
ENDBRANCH  23  25
ENDBRANCH   1  23
TORSDOF 4
ENDMDL
MODEL 19
REMARK VINA RESULT:    -5.746     20.628     23.023
REMARK INTER + INTRA:          -7.328
REMARK INTER:                  -7.203
REMARK INTRA:                  -0.125
REMARK UNBOUND:                -0.406
REMARK  Name = cpd248.pdb
REMARK  6 active torsions:
REMARK  status: ('A' for Active; 'I' for Inactive)
REMARK    1  A    between atoms: C_2  and  C_3
REMARK    2  A    between atoms: C_2  and  C_4
REMARK    3  A    between atoms: C_4  and  N_5
REMARK    4  A    between atoms: C_11  and  O_12
REMARK    5  A    between atoms: C_17  and  O_18
REMARK    6  A    between atoms: O_18  and  C_19
REMARK                            x       y       z     vdW  Elec       q    Type
REMARK                         _______ _______ _______ _____ _____    ______ ____
ROOT
ATOM      1  N   UNL     1      45.637 -20.789 -39.503  0.00  0.00    -0.294 N 
ATOM      2  C   UNL     1      46.975 -20.788 -38.887  0.00  0.00    +0.001 C 
ATOM      3  C   UNL     1      47.027 -20.025 -37.535  0.00  0.00    -0.023 C 
ATOM      4  C   UNL     1      46.030 -18.845 -37.412  0.00  0.00    +0.056 C 
ATOM      5  C   UNL     1      44.665 -19.338 -36.998  0.00  0.00    -0.071 C 
ATOM      6  C   UNL     1      44.350 -19.440 -35.690  0.00  0.00    -0.059 C 
ATOM      7  C   UNL     1      45.266 -19.015 -34.561  0.00  0.00    +0.077 C 
ATOM      8  C   UNL     1      46.577 -18.322 -35.000  0.00  0.00    +0.015 C 
ATOM      9  C   UNL     1      46.358 -17.734 -36.386  0.00  0.00    +0.116 C 
ATOM     10  O   UNL     1      47.417 -16.931 -36.923  0.00  0.00    -0.484 OA
ATOM     11  C   UNL     1      47.046 -16.887 -38.261  0.00  0.00    +0.167 A 
ATOM     12  C   UNL     1      47.484 -15.969 -39.202  0.00  0.00    +0.162 A 
ATOM     13  C   UNL     1      47.098 -16.193 -40.528  0.00  0.00    -0.016 A 
ATOM     14  C   UNL     1      46.364 -17.334 -40.898  0.00  0.00    -0.053 A 
ATOM     15  C   UNL     1      45.972 -18.285 -39.943  0.00  0.00    -0.026 A 
ATOM     16  C   UNL     1      46.234 -17.982 -38.614  0.00  0.00    +0.016 A 
ATOM     17  C   UNL     1      45.407 -19.618 -40.392  0.00  0.00    +0.025 C 
ATOM     18  H   UNL     1      44.981 -20.731 -38.725  0.00  0.00    +0.000 HD
ENDROOT
BRANCH   7  19
ATOM     19  O   UNL     1      44.507 -18.104 -33.771  0.00  0.00    -0.388 OA
ATOM     20  H   UNL     1      43.929 -18.600 -33.170  0.00  0.00    +0.000 HD
ENDBRANCH   7  19
BRANCH  12  21
ATOM     21  O   UNL     1      48.262 -14.865 -39.016  0.00  0.00    -0.491 OA
ATOM     22  C   UNL     1      48.738 -14.205 -40.180  0.00  0.00    +0.079 C 
ENDBRANCH  12  21
BRANCH   1  23
ATOM     23  C   UNL     1      45.393 -22.025 -40.266  0.00  0.00    +0.020 C 
BRANCH  23  25
ATOM     24  C   UNL     1      47.355 -22.199 -41.874  0.00  0.00    -0.098 C 
ATOM     25  C   UNL     1      46.034 -22.098 -41.642  0.00  0.00    -0.066 C 
ATOM     26  C   UNL     1      45.057 -22.070 -42.787  0.00  0.00    -0.043 C 
ENDBRANCH  23  25
ENDBRANCH   1  23
TORSDOF 4
ENDMDL
MODEL 20
REMARK VINA RESULT:    -5.566     19.333     21.941
REMARK INTER + INTRA:          -7.112
REMARK INTER:                  -6.700
REMARK INTRA:                  -0.411
REMARK UNBOUND:                -0.406
REMARK  Name = cpd248.pdb
REMARK  6 active torsions:
REMARK  status: ('A' for Active; 'I' for Inactive)
REMARK    1  A    between atoms: C_2  and  C_3
REMARK    2  A    between atoms: C_2  and  C_4
REMARK    3  A    between atoms: C_4  and  N_5
REMARK    4  A    between atoms: C_11  and  O_12
REMARK    5  A    between atoms: C_17  and  O_18
REMARK    6  A    between atoms: O_18  and  C_19
REMARK                            x       y       z     vdW  Elec       q    Type
REMARK                         _______ _______ _______ _____ _____    ______ ____
ROOT
ATOM      1  N   UNL     1      46.060 -19.647 -40.042  0.00  0.00    -0.294 N 
ATOM      2  C   UNL     1      46.123 -20.821 -39.154  0.00  0.00    +0.001 C 
ATOM      3  C   UNL     1      44.902 -20.934 -38.200  0.00  0.00    -0.023 C 
ATOM      4  C   UNL     1      44.271 -19.581 -37.784  0.00  0.00    +0.056 C 
ATOM      5  C   UNL     1      43.309 -19.092 -38.839  0.00  0.00    -0.071 C 
ATOM      6  C   UNL     1      42.009 -19.453 -38.789  0.00  0.00    -0.059 C 
ATOM      7  C   UNL     1      41.400 -20.281 -37.678  0.00  0.00    +0.077 C 
ATOM      8  C   UNL     1      42.348 -20.602 -36.499  0.00  0.00    +0.015 C 
ATOM      9  C   UNL     1      43.446 -19.549 -36.475  0.00  0.00    +0.116 C 
ATOM     10  O   UNL     1      44.359 -19.590 -35.372  0.00  0.00    -0.484 OA
ATOM     11  C   UNL     1      45.375 -18.776 -35.855  0.00  0.00    +0.167 A 
ATOM     12  C   UNL     1      46.358 -18.158 -35.100  0.00  0.00    +0.162 A 
ATOM     13  C   UNL     1      47.372 -17.498 -35.803  0.00  0.00    -0.016 A 
ATOM     14  C   UNL     1      47.432 -17.527 -37.208  0.00  0.00    -0.053 A 
ATOM     15  C   UNL     1      46.459 -18.203 -37.961  0.00  0.00    -0.026 A 
ATOM     16  C   UNL     1      45.381 -18.730 -37.263  0.00  0.00    +0.016 A 
ATOM     17  C   UNL     1      46.677 -18.433 -39.444  0.00  0.00    +0.025 C 
ATOM     18  H   UNL     1      45.066 -19.464 -40.179  0.00  0.00    +0.000 HD
ENDROOT
BRANCH   7  19
ATOM     19  O   UNL     1      40.300 -19.519 -37.188  0.00  0.00    -0.388 OA
ATOM     20  H   UNL     1      39.618 -19.458 -37.875  0.00  0.00    +0.000 HD
ENDBRANCH   7  19
BRANCH  12  21
ATOM     21  O   UNL     1      46.485 -18.109 -33.744  0.00  0.00    -0.491 OA
ATOM     22  C   UNL     1      45.611 -17.235 -33.042  0.00  0.00    +0.079 C 
ENDBRANCH  12  21
BRANCH   1  23
ATOM     23  C   UNL     1      46.697 -19.917 -41.343  0.00  0.00    +0.020 C 
BRANCH  23  25
ATOM     24  C   UNL     1      45.072 -21.453 -42.553  0.00  0.00    -0.098 C 
ATOM     25  C   UNL     1      46.287 -21.208 -42.032  0.00  0.00    -0.066 C 
ATOM     26  C   UNL     1      47.380 -22.239 -42.122  0.00  0.00    -0.043 C 
ENDBRANCH  23  25
ENDBRANCH   1  23
TORSDOF 4
ENDMDL
