MODEL 1
REMARK VINA RESULT:    -7.866      0.000      0.000
REMARK INTER + INTRA:         -14.196
REMARK INTER:                 -12.234
REMARK INTRA:                  -1.962
REMARK UNBOUND:                -1.962
REMARK  Name = cpd338.pdb
REMARK  12 active torsions:
REMARK  status: ('A' for Active; 'I' for Inactive)
REMARK    1  A    between atoms: C_1  and  O_2
REMARK    2  A    between atoms: O_2  and  C_3
REMARK    3  A    between atoms: C_5  and  C_6
REMARK    4  A    between atoms: C_7  and  C_8
REMARK    5  A    between atoms: C_7  and  C_11
REMARK    6  A    between atoms: C_8  and  C_9
REMARK    7  A    between atoms: N_13  and  C_14
REMARK    8  A    between atoms: C_14  and  C_15
REMARK    9  A    between atoms: C_15  and  C_16
REMARK   10  A    between atoms: C_16  and  N_17
REMARK   11  A    between atoms: N_17  and  C_18
REMARK   12  A    between atoms: C_34  and  O_35
REMARK                            x       y       z     vdW  Elec       q    Type
REMARK                         _______ _______ _______ _____ _____    ______ ____
ROOT
ATOM      1  C   UNL A   1      33.987 -38.127 -29.134  0.00  0.00    +0.247 C 
ATOM      2  O   UNL A   1      33.537 -37.856 -28.026  0.00  0.00    -0.270 OA
ATOM      3  N   UNL A   1      33.230 -38.145 -30.284  0.00  0.00    -0.311 N 
ATOM      4  H   UNL A   1      33.668 -38.354 -31.140  0.00  0.00    +0.000 HD
ENDROOT
BRANCH   1   6
ATOM      5  C   UNL A   1      36.371 -37.592 -28.841  0.00  0.00    -0.039 C 
ATOM      6  C   UNL A   1      35.433 -38.437 -29.311  0.00  0.00    +0.079 C 
BRANCH   5   9
ATOM      7  C   UNL A   1      39.781 -37.071 -30.351  0.00  0.00    +0.162 A 
ATOM      8  C   UNL A   1      38.398 -37.040 -30.143  0.00  0.00    -0.009 A 
ATOM      9  C   UNL A   1      37.827 -37.683 -29.033  0.00  0.00    -0.021 A 
ATOM     10  C   UNL A   1      38.660 -38.339 -28.121  0.00  0.00    -0.051 A 
ATOM     11  C   UNL A   1      40.039 -38.403 -28.339  0.00  0.00    -0.016 A 
ATOM     12  C   UNL A   1      40.591 -37.778 -29.455  0.00  0.00    +0.158 A 
BRANCH   7  14
ATOM     13  C   UNL A   1      39.523 -35.814 -32.327  0.00  0.00    +0.079 C 
ATOM     14  O   UNL A   1      40.396 -36.488 -31.428  0.00  0.00    -0.491 OA
ENDBRANCH   7  14
BRANCH  12  15
ATOM     15  O   UNL A   1      41.940 -37.834 -29.672  0.00  0.00    -0.503 OA
ATOM     16  H   UNL A   1      42.513 -38.120 -28.988  0.00  0.00    +0.000 HD
ENDBRANCH  12  15
ENDBRANCH   5   9
BRANCH   6  17
ATOM     17  C   UNL A   1      35.794 -39.598 -30.168  0.00  0.00    +0.165 C 
ATOM     18  C   UNL A   1      36.176 -40.881 -29.480  0.00  0.00    -0.001 C 
ATOM     19  O   UNL A   1      35.810 -39.485 -31.394  0.00  0.00    -0.292 OA
ENDBRANCH   6  17
ENDBRANCH   1   6
BRANCH   3  20
ATOM     20  C   UNL A   1      31.806 -37.867 -30.274  0.00  0.00    +0.013 C 
BRANCH  20  21
ATOM     21  C   UNL A   1      31.534 -36.367 -30.287  0.00  0.00    -0.022 C 
BRANCH  21  22
ATOM     22  C   UNL A   1      30.702 -35.979 -31.507  0.00  0.00    +0.011 C 
BRANCH  22  23
ATOM     23  N   UNL A   1      31.579 -35.367 -32.514  0.00  0.00    -0.343 N 
ATOM     24  H   UNL A   1      31.724 -35.732 -33.417  0.00  0.00    +0.000 HD
BRANCH  23  25
ATOM     25  C   UNL A   1      32.195 -34.177 -32.021  0.00  0.00    +0.041 A 
ATOM     26  C   UNL A   1      31.432 -33.021 -31.755  0.00  0.00    -0.005 A 
ATOM     27  C   UNL A   1      32.085 -31.946 -31.143  0.00  0.00    +0.047 A 
ATOM     28  N   UNL A   1      33.402 -31.955 -30.827  0.00  0.00    -0.251 NA
ATOM     29  C   UNL A   1      34.127 -33.050 -31.095  0.00  0.00    +0.073 A 
ATOM     30  C   UNL A   1      35.477 -33.042 -30.765  0.00  0.00    -0.036 A 
ATOM     31  C   UNL A   1      36.304 -34.141 -31.010  0.00  0.00    -0.060 A 
ATOM     32  C   UNL A   1      35.775 -35.278 -31.601  0.00  0.00    -0.061 A 
ATOM     33  C   UNL A   1      34.424 -35.307 -31.939  0.00  0.00    -0.051 A 
ATOM     34  C   UNL A   1      33.577 -34.199 -31.688  0.00  0.00    +0.021 A 
ATOM     35  C   UNL A   1      31.369 -30.658 -30.821  0.00  0.00    -0.010 C 
ATOM     36  C   UNL A   1      29.855 -30.813 -30.748  0.00  0.00    -0.047 C 
ATOM     37  C   UNL A   1      29.358 -31.545 -31.984  0.00  0.00    -0.049 C 
ATOM     38  C   UNL A   1      29.951 -32.953 -32.047  0.00  0.00    -0.024 C 
ENDBRANCH  23  25
ENDBRANCH  22  23
ENDBRANCH  21  22
ENDBRANCH  20  21
ENDBRANCH   3  20
TORSDOF 10
ENDMDL
MODEL 2
REMARK VINA RESULT:    -7.645     16.920     20.462
REMARK INTER + INTRA:         -13.853
REMARK INTER:                 -11.660
REMARK INTRA:                  -2.194
REMARK UNBOUND:                -1.962
REMARK  Name = cpd338.pdb
REMARK  12 active torsions:
REMARK  status: ('A' for Active; 'I' for Inactive)
REMARK    1  A    between atoms: C_1  and  O_2
REMARK    2  A    between atoms: O_2  and  C_3
REMARK    3  A    between atoms: C_5  and  C_6
REMARK    4  A    between atoms: C_7  and  C_8
REMARK    5  A    between atoms: C_7  and  C_11
REMARK    6  A    between atoms: C_8  and  C_9
REMARK    7  A    between atoms: N_13  and  C_14
REMARK    8  A    between atoms: C_14  and  C_15
REMARK    9  A    between atoms: C_15  and  C_16
REMARK   10  A    between atoms: C_16  and  N_17
REMARK   11  A    between atoms: N_17  and  C_18
REMARK   12  A    between atoms: C_34  and  O_35
REMARK                            x       y       z     vdW  Elec       q    Type
REMARK                         _______ _______ _______ _____ _____    ______ ____
ROOT
ATOM      1  C   UNL A   1      44.956 -18.234 -34.275  0.00  0.00    +0.247 C 
ATOM      2  O   UNL A   1      45.670 -18.103 -33.287  0.00  0.00    -0.270 OA
ATOM      3  N   UNL A   1      45.402 -18.077 -35.567  0.00  0.00    -0.311 N 
ATOM      4  H   UNL A   1      44.772 -18.219 -36.310  0.00  0.00    +0.000 HD
ENDROOT
BRANCH   1   6
ATOM      5  C   UNL A   1      43.172 -19.895 -33.934  0.00  0.00    -0.039 C 
ATOM      6  C   UNL A   1      43.522 -18.609 -34.130  0.00  0.00    +0.079 C 
BRANCH   5   9
ATOM      7  C   UNL A   1      39.937 -21.429 -35.101  0.00  0.00    +0.162 A 
ATOM      8  C   UNL A   1      41.218 -20.865 -35.095  0.00  0.00    -0.009 A 
ATOM      9  C   UNL A   1      41.811 -20.451 -33.891  0.00  0.00    -0.021 A 
ATOM     10  C   UNL A   1      41.115 -20.629 -32.691  0.00  0.00    -0.051 A 
ATOM     11  C   UNL A   1      39.823 -21.161 -32.692  0.00  0.00    -0.016 A 
ATOM     12  C   UNL A   1      39.238 -21.549 -33.896  0.00  0.00    +0.158 A 
BRANCH   7  14
ATOM     13  C   UNL A   1      40.100 -22.542 -37.172  0.00  0.00    +0.079 C 
ATOM     14  O   UNL A   1      39.293 -21.826 -36.244  0.00  0.00    -0.491 OA
ENDBRANCH   7  14
BRANCH  12  15
ATOM     15  O   UNL A   1      37.975 -22.073 -33.903  0.00  0.00    -0.503 OA
ATOM     16  H   UNL A   1      37.553 -22.268 -34.717  0.00  0.00    +0.000 HD
ENDBRANCH  12  15
ENDBRANCH   5   9
BRANCH   6  17
ATOM     17  C   UNL A   1      42.501 -17.558 -34.388  0.00  0.00    +0.165 C 
ATOM     18  C   UNL A   1      41.864 -16.896 -33.196  0.00  0.00    -0.001 C 
ATOM     19  O   UNL A   1      42.173 -17.279 -35.541  0.00  0.00    -0.292 OA
ENDBRANCH   6  17
ENDBRANCH   1   6
BRANCH   3  20
ATOM     20  C   UNL A   1      46.773 -17.711 -35.871  0.00  0.00    +0.013 C 
BRANCH  20  21
ATOM     21  C   UNL A   1      47.628 -18.943 -36.147  0.00  0.00    -0.022 C 
BRANCH  21  22
ATOM     22  C   UNL A   1      47.437 -19.422 -37.584  0.00  0.00    +0.011 C 
BRANCH  22  23
ATOM     23  N   UNL A   1      46.893 -20.786 -37.570  0.00  0.00    -0.343 N 
ATOM     24  H   UNL A   1      46.989 -21.412 -36.815  0.00  0.00    +0.000 HD
BRANCH  23  25
ATOM     25  C   UNL A   1      46.208 -21.093 -38.785  0.00  0.00    +0.041 A 
ATOM     26  C   UNL A   1      46.858 -21.779 -39.831  0.00  0.00    -0.005 A 
ATOM     27  C   UNL A   1      46.081 -22.166 -40.928  0.00  0.00    +0.047 A 
ATOM     28  N   UNL A   1      44.760 -21.887 -41.040  0.00  0.00    -0.251 NA
ATOM     29  C   UNL A   1      44.148 -21.223 -40.051  0.00  0.00    +0.073 A 
ATOM     30  C   UNL A   1      42.794 -20.945 -40.182  0.00  0.00    -0.036 A 
ATOM     31  C   UNL A   1      42.080 -20.257 -39.199  0.00  0.00    -0.060 A 
ATOM     32  C   UNL A   1      42.733 -19.830 -38.052  0.00  0.00    -0.061 A 
ATOM     33  C   UNL A   1      44.092 -20.098 -37.899  0.00  0.00    -0.051 A 
ATOM     34  C   UNL A   1      44.820 -20.802 -38.889  0.00  0.00    +0.021 A 
ATOM     35  C   UNL A   1      46.673 -22.895 -42.107  0.00  0.00    -0.010 C 
ATOM     36  C   UNL A   1      47.991 -23.589 -41.784  0.00  0.00    -0.047 C 
ATOM     37  C   UNL A   1      48.923 -22.613 -41.085  0.00  0.00    -0.049 C 
ATOM     38  C   UNL A   1      48.320 -22.155 -39.757  0.00  0.00    -0.024 C 
ENDBRANCH  23  25
ENDBRANCH  22  23
ENDBRANCH  21  22
ENDBRANCH  20  21
ENDBRANCH   3  20
TORSDOF 10
ENDMDL
MODEL 3
REMARK VINA RESULT:    -7.573     16.789     19.865
REMARK INTER + INTRA:         -13.741
REMARK INTER:                 -11.508
REMARK INTRA:                  -2.233
REMARK UNBOUND:                -1.962
REMARK  Name = cpd338.pdb
REMARK  12 active torsions:
REMARK  status: ('A' for Active; 'I' for Inactive)
REMARK    1  A    between atoms: C_1  and  O_2
REMARK    2  A    between atoms: O_2  and  C_3
REMARK    3  A    between atoms: C_5  and  C_6
REMARK    4  A    between atoms: C_7  and  C_8
REMARK    5  A    between atoms: C_7  and  C_11
REMARK    6  A    between atoms: C_8  and  C_9
REMARK    7  A    between atoms: N_13  and  C_14
REMARK    8  A    between atoms: C_14  and  C_15
REMARK    9  A    between atoms: C_15  and  C_16
REMARK   10  A    between atoms: C_16  and  N_17
REMARK   11  A    between atoms: N_17  and  C_18
REMARK   12  A    between atoms: C_34  and  O_35
REMARK                            x       y       z     vdW  Elec       q    Type
REMARK                         _______ _______ _______ _____ _____    ______ ____
ROOT
ATOM      1  C   UNL A   1      45.747 -17.875 -37.112  0.00  0.00    +0.247 C 
ATOM      2  O   UNL A   1      45.774 -16.649 -37.131  0.00  0.00    -0.270 OA
ATOM      3  N   UNL A   1      45.621 -18.620 -35.961  0.00  0.00    -0.311 N 
ATOM      4  H   UNL A   1      45.586 -19.601 -36.030  0.00  0.00    +0.000 HD
ENDROOT
BRANCH   1   6
ATOM      5  C   UNL A   1      45.814 -20.002 -38.349  0.00  0.00    -0.039 C 
ATOM      6  C   UNL A   1      45.823 -18.655 -38.379  0.00  0.00    +0.079 C 
BRANCH   5   9
ATOM      7  C   UNL A   1      47.449 -22.484 -40.661  0.00  0.00    +0.162 A 
ATOM      8  C   UNL A   1      47.234 -21.579 -39.616  0.00  0.00    -0.009 A 
ATOM      9  C   UNL A   1      46.001 -20.919 -39.484  0.00  0.00    -0.021 A 
ATOM     10  C   UNL A   1      44.979 -21.194 -40.397  0.00  0.00    -0.051 A 
ATOM     11  C   UNL A   1      45.196 -22.073 -41.462  0.00  0.00    -0.016 A 
ATOM     12  C   UNL A   1      46.430 -22.704 -41.594  0.00  0.00    +0.158 A 
BRANCH   7  14
ATOM     13  C   UNL A   1      49.800 -22.386 -40.534  0.00  0.00    +0.079 C 
ATOM     14  O   UNL A   1      48.637 -23.137 -40.861  0.00  0.00    -0.491 OA
ENDBRANCH   7  14
BRANCH  12  15
ATOM     15  O   UNL A   1      46.648 -23.567 -42.633  0.00  0.00    -0.503 OA
ATOM     16  H   UNL A   1      46.467 -23.298 -43.512  0.00  0.00    +0.000 HD
ENDBRANCH  12  15
ENDBRANCH   5   9
BRANCH   6  17
ATOM     17  C   UNL A   1      46.088 -17.909 -39.638  0.00  0.00    +0.165 C 
ATOM     18  C   UNL A   1      44.902 -17.489 -40.463  0.00  0.00    -0.001 C 
ATOM     19  O   UNL A   1      47.244 -17.685 -39.996  0.00  0.00    -0.292 OA
ENDBRANCH   6  17
ENDBRANCH   1   6
BRANCH   3  20
ATOM     20  C   UNL A   1      45.538 -18.004 -34.650  0.00  0.00    +0.013 C 
BRANCH  20  21
ATOM     21  C   UNL A   1      44.498 -18.698 -33.777  0.00  0.00    -0.022 C 
BRANCH  21  22
ATOM     22  C   UNL A   1      43.835 -19.846 -34.535  0.00  0.00    +0.011 C 
BRANCH  22  23
ATOM     23  N   UNL A   1      42.452 -19.474 -34.861  0.00  0.00    -0.343 N 
ATOM     24  H   UNL A   1      42.093 -18.561 -34.787  0.00  0.00    +0.000 HD
BRANCH  23  25
ATOM     25  C   UNL A   1      41.693 -20.602 -35.298  0.00  0.00    +0.041 A 
ATOM     26  C   UNL A   1      41.565 -20.903 -36.670  0.00  0.00    -0.005 A 
ATOM     27  C   UNL A   1      40.926 -22.101 -37.009  0.00  0.00    +0.047 A 
ATOM     28  N   UNL A   1      40.407 -22.954 -36.093  0.00  0.00    -0.251 NA
ATOM     29  C   UNL A   1      40.518 -22.658 -34.791  0.00  0.00    +0.073 A 
ATOM     30  C   UNL A   1      39.980 -23.544 -33.866  0.00  0.00    -0.036 A 
ATOM     31  C   UNL A   1      40.052 -23.311 -32.491  0.00  0.00    -0.060 A 
ATOM     32  C   UNL A   1      40.674 -22.164 -32.022  0.00  0.00    -0.061 A 
ATOM     33  C   UNL A   1      41.221 -21.262 -32.933  0.00  0.00    -0.051 A 
ATOM     34  C   UNL A   1      41.158 -21.495 -34.329  0.00  0.00    +0.021 A 
ATOM     35  C   UNL A   1      40.725 -22.518 -38.444  0.00  0.00    -0.010 C 
ATOM     36  C   UNL A   1      41.678 -21.826 -39.411  0.00  0.00    -0.047 C 
ATOM     37  C   UNL A   1      41.659 -20.327 -39.158  0.00  0.00    -0.049 C 
ATOM     38  C   UNL A   1      42.150 -20.017 -37.744  0.00  0.00    -0.024 C 
ENDBRANCH  23  25
ENDBRANCH  22  23
ENDBRANCH  21  22
ENDBRANCH  20  21
ENDBRANCH   3  20
TORSDOF 10
ENDMDL
MODEL 4
REMARK VINA RESULT:    -7.538     16.671     19.682
REMARK INTER + INTRA:         -13.686
REMARK INTER:                 -11.326
REMARK INTRA:                  -2.361
REMARK UNBOUND:                -1.962
REMARK  Name = cpd338.pdb
REMARK  12 active torsions:
REMARK  status: ('A' for Active; 'I' for Inactive)
REMARK    1  A    between atoms: C_1  and  O_2
REMARK    2  A    between atoms: O_2  and  C_3
REMARK    3  A    between atoms: C_5  and  C_6
REMARK    4  A    between atoms: C_7  and  C_8
REMARK    5  A    between atoms: C_7  and  C_11
REMARK    6  A    between atoms: C_8  and  C_9
REMARK    7  A    between atoms: N_13  and  C_14
REMARK    8  A    between atoms: C_14  and  C_15
REMARK    9  A    between atoms: C_15  and  C_16
REMARK   10  A    between atoms: C_16  and  N_17
REMARK   11  A    between atoms: N_17  and  C_18
REMARK   12  A    between atoms: C_34  and  O_35
REMARK                            x       y       z     vdW  Elec       q    Type
REMARK                         _______ _______ _______ _____ _____    ______ ____
ROOT
ATOM      1  C   UNL A   1      45.347 -18.798 -34.814  0.00  0.00    +0.247 C 
ATOM      2  O   UNL A   1      45.902 -19.375 -33.885  0.00  0.00    -0.270 OA
ATOM      3  N   UNL A   1      44.184 -18.075 -34.679  0.00  0.00    -0.311 N 
ATOM      4  H   UNL A   1      43.809 -17.622 -35.469  0.00  0.00    +0.000 HD
ENDROOT
BRANCH   1   6
ATOM      5  C   UNL A   1      45.323 -19.507 -37.171  0.00  0.00    -0.039 C 
ATOM      6  C   UNL A   1      45.934 -18.825 -36.182  0.00  0.00    +0.079 C 
BRANCH   5   9
ATOM      7  C   UNL A   1      46.837 -21.264 -40.137  0.00  0.00    +0.162 A 
ATOM      8  C   UNL A   1      46.377 -20.988 -38.845  0.00  0.00    -0.009 A 
ATOM      9  C   UNL A   1      45.822 -19.736 -38.535  0.00  0.00    -0.021 A 
ATOM     10  C   UNL A   1      45.712 -18.771 -39.541  0.00  0.00    -0.051 A 
ATOM     11  C   UNL A   1      46.199 -19.027 -40.826  0.00  0.00    -0.016 A 
ATOM     12  C   UNL A   1      46.766 -20.266 -41.115  0.00  0.00    +0.158 A 
BRANCH   7  14
ATOM     13  C   UNL A   1      48.784 -22.591 -40.136  0.00  0.00    +0.079 C 
ATOM     14  O   UNL A   1      47.414 -22.454 -40.495  0.00  0.00    -0.491 OA
ENDBRANCH   7  14
BRANCH  12  15
ATOM     15  O   UNL A   1      47.241 -20.523 -42.371  0.00  0.00    -0.503 OA
ATOM     16  H   UNL A   1      46.644 -20.608 -43.089  0.00  0.00    +0.000 HD
ENDBRANCH  12  15
ENDBRANCH   5   9
BRANCH   6  17
ATOM     17  C   UNL A   1      47.287 -18.236 -36.369  0.00  0.00    +0.165 C 
ATOM     18  C   UNL A   1      47.368 -16.780 -36.745  0.00  0.00    -0.001 C 
ATOM     19  O   UNL A   1      48.292 -18.936 -36.251  0.00  0.00    -0.292 OA
ENDBRANCH   6  17
ENDBRANCH   1   6
BRANCH   3  20
ATOM     20  C   UNL A   1      43.492 -17.957 -33.410  0.00  0.00    +0.013 C 
BRANCH  20  21
ATOM     21  C   UNL A   1      42.015 -18.310 -33.548  0.00  0.00    -0.022 C 
BRANCH  21  22
ATOM     22  C   UNL A   1      41.840 -19.588 -34.365  0.00  0.00    +0.011 C 
BRANCH  22  23
ATOM     23  N   UNL A   1      40.676 -19.439 -35.249  0.00  0.00    -0.343 N 
ATOM     24  H   UNL A   1      40.130 -18.623 -35.313  0.00  0.00    +0.000 HD
BRANCH  23  25
ATOM     25  C   UNL A   1      40.435 -20.627 -36.005  0.00  0.00    +0.041 A 
ATOM     26  C   UNL A   1      41.043 -20.824 -37.262  0.00  0.00    -0.005 A 
ATOM     27  C   UNL A   1      40.869 -22.070 -37.873  0.00  0.00    +0.047 A 
ATOM     28  N   UNL A   1      40.128 -23.068 -37.333  0.00  0.00    -0.251 NA
ATOM     29  C   UNL A   1      39.539 -22.872 -36.145  0.00  0.00    +0.073 A 
ATOM     30  C   UNL A   1      38.783 -23.906 -35.607  0.00  0.00    -0.036 A 
ATOM     31  C   UNL A   1      38.136 -23.785 -34.375  0.00  0.00    -0.060 A 
ATOM     32  C   UNL A   1      38.242 -22.602 -33.659  0.00  0.00    -0.061 A 
ATOM     33  C   UNL A   1      38.996 -21.553 -34.181  0.00  0.00    -0.051 A 
ATOM     34  C   UNL A   1      39.661 -21.670 -35.426  0.00  0.00    +0.021 A 
ATOM     35  C   UNL A   1      41.466 -22.388 -39.220  0.00  0.00    -0.010 C 
ATOM     36  C   UNL A   1      42.632 -21.478 -39.590  0.00  0.00    -0.047 C 
ATOM     37  C   UNL A   1      42.232 -20.027 -39.378  0.00  0.00    -0.049 C 
ATOM     38  C   UNL A   1      41.912 -19.770 -37.906  0.00  0.00    -0.024 C 
ENDBRANCH  23  25
ENDBRANCH  22  23
ENDBRANCH  21  22
ENDBRANCH  20  21
ENDBRANCH   3  20
TORSDOF 10
ENDMDL
MODEL 5
REMARK VINA RESULT:    -7.532      3.220      6.112
REMARK INTER + INTRA:         -13.677
REMARK INTER:                 -10.758
REMARK INTRA:                  -2.919
REMARK UNBOUND:                -1.962
REMARK  Name = cpd338.pdb
REMARK  12 active torsions:
REMARK  status: ('A' for Active; 'I' for Inactive)
REMARK    1  A    between atoms: C_1  and  O_2
REMARK    2  A    between atoms: O_2  and  C_3
REMARK    3  A    between atoms: C_5  and  C_6
REMARK    4  A    between atoms: C_7  and  C_8
REMARK    5  A    between atoms: C_7  and  C_11
REMARK    6  A    between atoms: C_8  and  C_9
REMARK    7  A    between atoms: N_13  and  C_14
REMARK    8  A    between atoms: C_14  and  C_15
REMARK    9  A    between atoms: C_15  and  C_16
REMARK   10  A    between atoms: C_16  and  N_17
REMARK   11  A    between atoms: N_17  and  C_18
REMARK   12  A    between atoms: C_34  and  O_35
REMARK                            x       y       z     vdW  Elec       q    Type
REMARK                         _______ _______ _______ _____ _____    ______ ____
ROOT
ATOM      1  C   UNL A   1      32.163 -38.117 -30.870  0.00  0.00    +0.247 C 
ATOM      2  O   UNL A   1      31.043 -37.811 -30.476  0.00  0.00    -0.270 OA
ATOM      3  N   UNL A   1      32.905 -37.349 -31.738  0.00  0.00    -0.311 N 
ATOM      4  H   UNL A   1      33.807 -37.652 -31.993  0.00  0.00    +0.000 HD
ENDROOT
BRANCH   1   6
ATOM      5  C   UNL A   1      32.431 -39.940 -29.238  0.00  0.00    -0.039 C 
ATOM      6  C   UNL A   1      32.820 -39.366 -30.393  0.00  0.00    +0.079 C 
BRANCH   5   9
ATOM      7  C   UNL A   1      34.102 -42.006 -26.570  0.00  0.00    +0.162 A 
ATOM      8  C   UNL A   1      33.537 -40.929 -27.261  0.00  0.00    -0.009 A 
ATOM      9  C   UNL A   1      33.046 -41.095 -28.567  0.00  0.00    -0.021 A 
ATOM     10  C   UNL A   1      33.109 -42.359 -29.163  0.00  0.00    -0.051 A 
ATOM     11  C   UNL A   1      33.701 -43.432 -28.492  0.00  0.00    -0.016 A 
ATOM     12  C   UNL A   1      34.203 -43.248 -27.205  0.00  0.00    +0.158 A 
BRANCH   7  14
ATOM     13  C   UNL A   1      33.719 -41.418 -24.320  0.00  0.00    +0.079 C 
ATOM     14  O   UNL A   1      34.623 -41.902 -25.307  0.00  0.00    -0.491 OA
ENDBRANCH   7  14
BRANCH  12  15
ATOM     15  O   UNL A   1      34.780 -44.295 -26.542  0.00  0.00    -0.503 OA
ATOM     16  H   UNL A   1      34.397 -45.149 -26.589  0.00  0.00    +0.000 HD
ENDBRANCH  12  15
ENDBRANCH   5   9
BRANCH   6  17
ATOM     17  C   UNL A   1      34.020 -39.843 -31.131  0.00  0.00    +0.165 C 
ATOM     18  C   UNL A   1      35.371 -39.521 -30.550  0.00  0.00    -0.001 C 
ATOM     19  O   UNL A   1      33.896 -40.448 -32.196  0.00  0.00    -0.292 OA
ENDBRANCH   6  17
ENDBRANCH   1   6
BRANCH   3  20
ATOM     20  C   UNL A   1      32.401 -36.106 -32.292  0.00  0.00    +0.013 C 
BRANCH  20  21
ATOM     21  C   UNL A   1      33.532 -35.116 -32.552  0.00  0.00    -0.022 C 
BRANCH  21  22
ATOM     22  C   UNL A   1      34.862 -35.670 -32.046  0.00  0.00    +0.011 C 
BRANCH  22  23
ATOM     23  N   UNL A   1      35.313 -34.869 -30.901  0.00  0.00    -0.343 N 
ATOM     24  H   UNL A   1      35.279 -33.886 -30.865  0.00  0.00    +0.000 HD
BRANCH  23  25
ATOM     25  C   UNL A   1      35.808 -35.693 -29.845  0.00  0.00    +0.041 A 
ATOM     26  C   UNL A   1      34.978 -36.072 -28.769  0.00  0.00    -0.005 A 
ATOM     27  C   UNL A   1      35.494 -36.993 -27.851  0.00  0.00    +0.047 A 
ATOM     28  N   UNL A   1      36.745 -37.505 -27.933  0.00  0.00    -0.251 NA
ATOM     29  C   UNL A   1      37.536 -37.132 -28.948  0.00  0.00    +0.073 A 
ATOM     30  C   UNL A   1      38.817 -37.667 -29.015  0.00  0.00    -0.036 A 
ATOM     31  C   UNL A   1      39.705 -37.331 -30.040  0.00  0.00    -0.060 A 
ATOM     32  C   UNL A   1      39.310 -36.437 -31.023  0.00  0.00    -0.061 A 
ATOM     33  C   UNL A   1      38.030 -35.890 -30.974  0.00  0.00    -0.051 A 
ATOM     34  C   UNL A   1      37.121 -36.231 -29.943  0.00  0.00    +0.021 A 
ATOM     35  C   UNL A   1      34.698 -37.460 -26.659  0.00  0.00    -0.010 C 
ATOM     36  C   UNL A   1      33.197 -37.257 -26.820  0.00  0.00    -0.047 C 
ATOM     37  C   UNL A   1      32.922 -35.832 -27.271  0.00  0.00    -0.049 C 
ATOM     38  C   UNL A   1      33.560 -35.569 -28.636  0.00  0.00    -0.024 C 
ENDBRANCH  23  25
ENDBRANCH  22  23
ENDBRANCH  21  22
ENDBRANCH  20  21
ENDBRANCH   3  20
TORSDOF 10
ENDMDL
MODEL 6
REMARK VINA RESULT:    -7.527     16.507     19.481
REMARK INTER + INTRA:         -13.669
REMARK INTER:                 -11.680
REMARK INTRA:                  -1.990
REMARK UNBOUND:                -1.962
REMARK  Name = cpd338.pdb
REMARK  12 active torsions:
REMARK  status: ('A' for Active; 'I' for Inactive)
REMARK    1  A    between atoms: C_1  and  O_2
REMARK    2  A    between atoms: O_2  and  C_3
REMARK    3  A    between atoms: C_5  and  C_6
REMARK    4  A    between atoms: C_7  and  C_8
REMARK    5  A    between atoms: C_7  and  C_11
REMARK    6  A    between atoms: C_8  and  C_9
REMARK    7  A    between atoms: N_13  and  C_14
REMARK    8  A    between atoms: C_14  and  C_15
REMARK    9  A    between atoms: C_15  and  C_16
REMARK   10  A    between atoms: C_16  and  N_17
REMARK   11  A    between atoms: N_17  and  C_18
REMARK   12  A    between atoms: C_34  and  O_35
REMARK                            x       y       z     vdW  Elec       q    Type
REMARK                         _______ _______ _______ _____ _____    ______ ____
ROOT
ATOM      1  C   UNL A   1      45.222 -19.531 -35.414  0.00  0.00    +0.247 C 
ATOM      2  O   UNL A   1      45.291 -20.579 -34.781  0.00  0.00    -0.270 OA
ATOM      3  N   UNL A   1      44.471 -18.448 -35.018  0.00  0.00    -0.311 N 
ATOM      4  H   UNL A   1      44.482 -17.632 -35.570  0.00  0.00    +0.000 HD
ENDROOT
BRANCH   1   6
ATOM      5  C   UNL A   1      45.647 -20.033 -37.786  0.00  0.00    -0.039 C 
ATOM      6  C   UNL A   1      45.993 -19.353 -36.675  0.00  0.00    +0.079 C 
BRANCH   5   9
ATOM      7  C   UNL A   1      47.704 -21.340 -40.656  0.00  0.00    +0.162 A 
ATOM      8  C   UNL A   1      47.033 -21.248 -39.432  0.00  0.00    -0.009 A 
ATOM      9  C   UNL A   1      46.365 -20.067 -39.069  0.00  0.00    -0.021 A 
ATOM     10  C   UNL A   1      46.358 -18.987 -39.957  0.00  0.00    -0.051 A 
ATOM     11  C   UNL A   1      47.052 -19.059 -41.168  0.00  0.00    -0.016 A 
ATOM     12  C   UNL A   1      47.728 -20.229 -41.506  0.00  0.00    +0.158 A 
BRANCH   7  14
ATOM     13  C   UNL A   1      47.595 -23.513 -41.561  0.00  0.00    +0.079 C 
ATOM     14  O   UNL A   1      48.397 -22.452 -41.055  0.00  0.00    -0.491 OA
ENDBRANCH   7  14
BRANCH  12  15
ATOM     15  O   UNL A   1      48.407 -20.307 -42.691  0.00  0.00    -0.503 OA
ATOM     16  H   UNL A   1      48.365 -21.089 -43.205  0.00  0.00    +0.000 HD
ENDBRANCH  12  15
ENDBRANCH   5   9
BRANCH   6  17
ATOM     17  C   UNL A   1      47.246 -18.554 -36.615  0.00  0.00    +0.165 C 
ATOM     18  C   UNL A   1      47.162 -17.096 -36.980  0.00  0.00    -0.001 C 
ATOM     19  O   UNL A   1      48.312 -19.089 -36.310  0.00  0.00    -0.292 OA
ENDBRANCH   6  17
ENDBRANCH   1   6
BRANCH   3  20
ATOM     20  C   UNL A   1      43.663 -18.468 -33.813  0.00  0.00    +0.013 C 
BRANCH  20  21
ATOM     21  C   UNL A   1      42.174 -18.479 -34.142  0.00  0.00    -0.022 C 
BRANCH  21  22
ATOM     22  C   UNL A   1      41.544 -19.813 -33.747  0.00  0.00    +0.011 C 
BRANCH  22  23
ATOM     23  N   UNL A   1      42.214 -20.898 -34.476  0.00  0.00    -0.343 N 
ATOM     24  H   UNL A   1      43.169 -21.118 -34.385  0.00  0.00    +0.000 HD
BRANCH  23  25
ATOM     25  C   UNL A   1      41.308 -21.594 -35.332  0.00  0.00    +0.041 A 
ATOM     26  C   UNL A   1      40.368 -22.506 -34.808  0.00  0.00    -0.005 A 
ATOM     27  C   UNL A   1      39.425 -23.039 -35.693  0.00  0.00    +0.047 A 
ATOM     28  N   UNL A   1      39.395 -22.745 -37.016  0.00  0.00    -0.251 NA
ATOM     29  C   UNL A   1      40.298 -21.890 -37.513  0.00  0.00    +0.073 A 
ATOM     30  C   UNL A   1      40.254 -21.601 -38.872  0.00  0.00    -0.036 A 
ATOM     31  C   UNL A   1      41.158 -20.721 -39.471  0.00  0.00    -0.060 A 
ATOM     32  C   UNL A   1      42.136 -20.113 -38.699  0.00  0.00    -0.061 A 
ATOM     33  C   UNL A   1      42.198 -20.389 -37.334  0.00  0.00    -0.051 A 
ATOM     34  C   UNL A   1      41.280 -21.274 -36.718  0.00  0.00    +0.021 A 
ATOM     35  C   UNL A   1      38.380 -24.029 -35.244  0.00  0.00    -0.010 C 
ATOM     36  C   UNL A   1      38.129 -23.997 -33.741  0.00  0.00    -0.047 C 
ATOM     37  C   UNL A   1      39.455 -24.066 -33.002  0.00  0.00    -0.049 C 
ATOM     38  C   UNL A   1      40.320 -22.851 -33.338  0.00  0.00    -0.024 C 
ENDBRANCH  23  25
ENDBRANCH  22  23
ENDBRANCH  21  22
ENDBRANCH  20  21
ENDBRANCH   3  20
TORSDOF 10
ENDMDL
MODEL 7
REMARK VINA RESULT:    -7.397     17.416     20.422
REMARK INTER + INTRA:         -13.468
REMARK INTER:                 -10.220
REMARK INTRA:                  -3.248
REMARK UNBOUND:                -1.962
REMARK  Name = cpd338.pdb
REMARK  12 active torsions:
REMARK  status: ('A' for Active; 'I' for Inactive)
REMARK    1  A    between atoms: C_1  and  O_2
REMARK    2  A    between atoms: O_2  and  C_3
REMARK    3  A    between atoms: C_5  and  C_6
REMARK    4  A    between atoms: C_7  and  C_8
REMARK    5  A    between atoms: C_7  and  C_11
REMARK    6  A    between atoms: C_8  and  C_9
REMARK    7  A    between atoms: N_13  and  C_14
REMARK    8  A    between atoms: C_14  and  C_15
REMARK    9  A    between atoms: C_15  and  C_16
REMARK   10  A    between atoms: C_16  and  N_17
REMARK   11  A    between atoms: N_17  and  C_18
REMARK   12  A    between atoms: C_34  and  O_35
REMARK                            x       y       z     vdW  Elec       q    Type
REMARK                         _______ _______ _______ _____ _____    ______ ____
ROOT
ATOM      1  C   UNL A   1      46.407 -19.837 -37.640  0.00  0.00    +0.247 C 
ATOM      2  O   UNL A   1      47.024 -18.812 -37.909  0.00  0.00    -0.270 OA
ATOM      3  N   UNL A   1      46.560 -21.023 -38.321  0.00  0.00    -0.311 N 
ATOM      4  H   UNL A   1      46.043 -21.809 -38.032  0.00  0.00    +0.000 HD
ENDROOT
BRANCH   1   6
ATOM      5  C   UNL A   1      44.118 -19.915 -36.737  0.00  0.00    -0.039 C 
ATOM      6  C   UNL A   1      45.445 -19.866 -36.504  0.00  0.00    +0.079 C 
BRANCH   5   9
ATOM      7  C   UNL A   1      41.464 -20.994 -34.295  0.00  0.00    +0.162 A 
ATOM      8  C   UNL A   1      42.473 -21.023 -35.263  0.00  0.00    -0.009 A 
ATOM      9  C   UNL A   1      43.036 -19.830 -35.745  0.00  0.00    -0.021 A 
ATOM     10  C   UNL A   1      42.590 -18.608 -35.230  0.00  0.00    -0.051 A 
ATOM     11  C   UNL A   1      41.560 -18.570 -34.287  0.00  0.00    -0.016 A 
ATOM     12  C   UNL A   1      40.996 -19.759 -33.833  0.00  0.00    +0.158 A 
BRANCH   7  14
ATOM     13  C   UNL A   1      39.972 -22.770 -34.713  0.00  0.00    +0.079 C 
ATOM     14  O   UNL A   1      40.855 -22.120 -33.805  0.00  0.00    -0.491 OA
ENDBRANCH   7  14
BRANCH  12  15
ATOM     15  O   UNL A   1      39.989 -19.728 -32.907  0.00  0.00    -0.503 OA
ATOM     16  H   UNL A   1      40.128 -19.316 -32.077  0.00  0.00    +0.000 HD
ENDBRANCH  12  15
ENDBRANCH   5   9
BRANCH   6  17
ATOM     17  C   UNL A   1      45.983 -19.659 -35.133  0.00  0.00    +0.165 C 
ATOM     18  C   UNL A   1      46.271 -18.246 -34.702  0.00  0.00    -0.001 C 
ATOM     19  O   UNL A   1      46.214 -20.623 -34.403  0.00  0.00    -0.292 OA
ENDBRANCH   6  17
ENDBRANCH   1   6
BRANCH   3  20
ATOM     20  C   UNL A   1      47.459 -21.152 -39.453  0.00  0.00    +0.013 C 
BRANCH  20  21
ATOM     21  C   UNL A   1      46.748 -21.752 -40.661  0.00  0.00    -0.022 C 
BRANCH  21  22
ATOM     22  C   UNL A   1      45.297 -22.089 -40.321  0.00  0.00    +0.011 C 
BRANCH  22  23
ATOM     23  N   UNL A   1      44.406 -21.335 -41.213  0.00  0.00    -0.343 N 
ATOM     24  H   UNL A   1      44.322 -21.501 -42.180  0.00  0.00    +0.000 HD
BRANCH  23  25
ATOM     25  C   UNL A   1      43.676 -20.334 -40.504  0.00  0.00    +0.041 A 
ATOM     26  C   UNL A   1      44.076 -18.982 -40.539  0.00  0.00    -0.005 A 
ATOM     27  C   UNL A   1      43.231 -18.044 -39.937  0.00  0.00    +0.047 A 
ATOM     28  N   UNL A   1      42.079 -18.377 -39.306  0.00  0.00    -0.251 NA
ATOM     29  C   UNL A   1      41.709 -19.663 -39.261  0.00  0.00    +0.073 A 
ATOM     30  C   UNL A   1      40.526 -19.987 -38.609  0.00  0.00    -0.036 A 
ATOM     31  C   UNL A   1      40.068 -21.303 -38.516  0.00  0.00    -0.060 A 
ATOM     32  C   UNL A   1      40.808 -22.327 -39.086  0.00  0.00    -0.061 A 
ATOM     33  C   UNL A   1      41.998 -22.025 -39.745  0.00  0.00    -0.051 A 
ATOM     34  C   UNL A   1      42.465 -20.692 -39.850  0.00  0.00    +0.021 A 
ATOM     35  C   UNL A   1      43.564 -16.574 -39.908  0.00  0.00    -0.010 C 
ATOM     36  C   UNL A   1      44.571 -16.164 -40.975  0.00  0.00    -0.047 C 
ATOM     37  C   UNL A   1      45.764 -17.105 -40.938  0.00  0.00    -0.049 C 
ATOM     38  C   UNL A   1      45.328 -18.535 -41.257  0.00  0.00    -0.024 C 
ENDBRANCH  23  25
ENDBRANCH  22  23
ENDBRANCH  21  22
ENDBRANCH  20  21
ENDBRANCH   3  20
TORSDOF 10
ENDMDL
MODEL 8
REMARK VINA RESULT:    -7.397     16.886     19.939
REMARK INTER + INTRA:         -13.467
REMARK INTER:                 -10.344
REMARK INTRA:                  -3.123
REMARK UNBOUND:                -1.962
REMARK  Name = cpd338.pdb
REMARK  12 active torsions:
REMARK  status: ('A' for Active; 'I' for Inactive)
REMARK    1  A    between atoms: C_1  and  O_2
REMARK    2  A    between atoms: O_2  and  C_3
REMARK    3  A    between atoms: C_5  and  C_6
REMARK    4  A    between atoms: C_7  and  C_8
REMARK    5  A    between atoms: C_7  and  C_11
REMARK    6  A    between atoms: C_8  and  C_9
REMARK    7  A    between atoms: N_13  and  C_14
REMARK    8  A    between atoms: C_14  and  C_15
REMARK    9  A    between atoms: C_15  and  C_16
REMARK   10  A    between atoms: C_16  and  N_17
REMARK   11  A    between atoms: N_17  and  C_18
REMARK   12  A    between atoms: C_34  and  O_35
REMARK                            x       y       z     vdW  Elec       q    Type
REMARK                         _______ _______ _______ _____ _____    ______ ____
ROOT
ATOM      1  C   UNL A   1      45.137 -19.326 -35.960  0.00  0.00    +0.247 C 
ATOM      2  O   UNL A   1      44.890 -20.288 -35.241  0.00  0.00    -0.270 OA
ATOM      3  N   UNL A   1      45.361 -18.054 -35.483  0.00  0.00    -0.311 N 
ATOM      4  H   UNL A   1      45.575 -17.336 -36.122  0.00  0.00    +0.000 HD
ENDROOT
BRANCH   1   6
ATOM      5  C   UNL A   1      44.828 -20.626 -38.026  0.00  0.00    -0.039 C 
ATOM      6  C   UNL A   1      45.241 -19.487 -37.436  0.00  0.00    +0.079 C 
BRANCH   5   9
ATOM      7  C   UNL A   1      46.353 -21.948 -41.205  0.00  0.00    +0.162 A 
ATOM      8  C   UNL A   1      46.183 -21.551 -39.874  0.00  0.00    -0.009 A 
ATOM      9  C   UNL A   1      44.967 -20.996 -39.443  0.00  0.00    -0.021 A 
ATOM     10  C   UNL A   1      43.916 -20.864 -40.356  0.00  0.00    -0.051 A 
ATOM     11  C   UNL A   1      44.088 -21.229 -41.694  0.00  0.00    -0.016 A 
ATOM     12  C   UNL A   1      45.307 -21.758 -42.113  0.00  0.00    +0.158 A 
BRANCH   7  14
ATOM     13  C   UNL A   1      48.423 -22.959 -40.706  0.00  0.00    +0.079 C 
ATOM     14  O   UNL A   1      47.523 -22.469 -41.693  0.00  0.00    -0.491 OA
ENDBRANCH   7  14
BRANCH  12  15
ATOM     15  O   UNL A   1      45.480 -22.119 -43.421  0.00  0.00    -0.503 OA
ATOM     16  H   UNL A   1      46.032 -21.608 -43.979  0.00  0.00    +0.000 HD
ENDBRANCH  12  15
ENDBRANCH   5   9
BRANCH   6  17
ATOM     17  C   UNL A   1      45.973 -18.440 -38.199  0.00  0.00    +0.165 C 
ATOM     18  C   UNL A   1      45.162 -17.510 -39.061  0.00  0.00    -0.001 C 
ATOM     19  O   UNL A   1      47.201 -18.375 -38.145  0.00  0.00    -0.292 OA
ENDBRANCH   6  17
ENDBRANCH   1   6
BRANCH   3  20
ATOM     20  C   UNL A   1      45.293 -17.737 -34.069  0.00  0.00    +0.013 C 
BRANCH  20  21
ATOM     21  C   UNL A   1      43.918 -17.202 -33.686  0.00  0.00    -0.022 C 
BRANCH  21  22
ATOM     22  C   UNL A   1      43.064 -18.305 -33.063  0.00  0.00    +0.011 C 
BRANCH  22  23
ATOM     23  N   UNL A   1      41.722 -18.270 -33.658  0.00  0.00    -0.343 N 
ATOM     24  H   UNL A   1      41.056 -17.566 -33.482  0.00  0.00    +0.000 HD
BRANCH  23  25
ATOM     25  C   UNL A   1      41.502 -19.383 -34.525  0.00  0.00    +0.041 A 
ATOM     26  C   UNL A   1      41.181 -20.655 -34.006  0.00  0.00    -0.005 A 
ATOM     27  C   UNL A   1      40.842 -21.657 -34.921  0.00  0.00    +0.047 A 
ATOM     28  N   UNL A   1      40.838 -21.470 -36.263  0.00  0.00    -0.251 NA
ATOM     29  C   UNL A   1      41.158 -20.265 -36.754  0.00  0.00    +0.073 A 
ATOM     30  C   UNL A   1      41.149 -20.091 -38.132  0.00  0.00    -0.036 A 
ATOM     31  C   UNL A   1      41.470 -18.869 -38.725  0.00  0.00    -0.060 A 
ATOM     32  C   UNL A   1      41.810 -17.788 -37.926  0.00  0.00    -0.061 A 
ATOM     33  C   UNL A   1      41.825 -17.940 -36.541  0.00  0.00    -0.051 A 
ATOM     34  C   UNL A   1      41.494 -19.175 -35.932  0.00  0.00    +0.021 A 
ATOM     35  C   UNL A   1      40.491 -23.055 -34.479  0.00  0.00    -0.010 C 
ATOM     36  C   UNL A   1      40.057 -23.133 -33.020  0.00  0.00    -0.047 C 
ATOM     37  C   UNL A   1      41.069 -22.406 -32.149  0.00  0.00    -0.049 C 
ATOM     38  C   UNL A   1      41.129 -20.925 -32.521  0.00  0.00    -0.024 C 
ENDBRANCH  23  25
ENDBRANCH  22  23
ENDBRANCH  21  22
ENDBRANCH  20  21
ENDBRANCH   3  20
TORSDOF 10
ENDMDL
MODEL 9
REMARK VINA RESULT:    -7.353     16.864     19.865
REMARK INTER + INTRA:         -13.400
REMARK INTER:                 -10.463
REMARK INTRA:                  -2.936
REMARK UNBOUND:                -1.962
REMARK  Name = cpd338.pdb
REMARK  12 active torsions:
REMARK  status: ('A' for Active; 'I' for Inactive)
REMARK    1  A    between atoms: C_1  and  O_2
REMARK    2  A    between atoms: O_2  and  C_3
REMARK    3  A    between atoms: C_5  and  C_6
REMARK    4  A    between atoms: C_7  and  C_8
REMARK    5  A    between atoms: C_7  and  C_11
REMARK    6  A    between atoms: C_8  and  C_9
REMARK    7  A    between atoms: N_13  and  C_14
REMARK    8  A    between atoms: C_14  and  C_15
REMARK    9  A    between atoms: C_15  and  C_16
REMARK   10  A    between atoms: C_16  and  N_17
REMARK   11  A    between atoms: N_17  and  C_18
REMARK   12  A    between atoms: C_34  and  O_35
REMARK                            x       y       z     vdW  Elec       q    Type
REMARK                         _______ _______ _______ _____ _____    ______ ____
ROOT
ATOM      1  C   UNL A   1      44.976 -19.511 -36.090  0.00  0.00    +0.247 C 
ATOM      2  O   UNL A   1      44.500 -20.432 -35.436  0.00  0.00    -0.270 OA
ATOM      3  N   UNL A   1      45.432 -18.336 -35.537  0.00  0.00    -0.311 N 
ATOM      4  H   UNL A   1      45.820 -17.650 -36.127  0.00  0.00    +0.000 HD
ENDROOT
BRANCH   1   6
ATOM      5  C   UNL A   1      44.701 -20.734 -38.208  0.00  0.00    -0.039 C 
ATOM      6  C   UNL A   1      45.118 -19.624 -37.568  0.00  0.00    +0.079 C 
BRANCH   5   9
ATOM      7  C   UNL A   1      46.238 -22.085 -41.369  0.00  0.00    +0.162 A 
ATOM      8  C   UNL A   1      46.043 -21.727 -40.031  0.00  0.00    -0.009 A 
ATOM      9  C   UNL A   1      44.874 -21.058 -39.633  0.00  0.00    -0.021 A 
ATOM     10  C   UNL A   1      43.893 -20.771 -40.588  0.00  0.00    -0.051 A 
ATOM     11  C   UNL A   1      44.095 -21.096 -41.932  0.00  0.00    -0.016 A 
ATOM     12  C   UNL A   1      45.268 -21.741 -42.317  0.00  0.00    +0.158 A 
BRANCH   7  14
ATOM     13  C   UNL A   1      48.360 -22.960 -40.837  0.00  0.00    +0.079 C 
ATOM     14  O   UNL A   1      47.367 -22.713 -41.826  0.00  0.00    -0.491 OA
ENDBRANCH   7  14
BRANCH  12  15
ATOM     15  O   UNL A   1      45.469 -22.065 -43.630  0.00  0.00    -0.503 OA
ATOM     16  H   UNL A   1      46.271 -21.828 -44.053  0.00  0.00    +0.000 HD
ENDBRANCH  12  15
ENDBRANCH   5   9
BRANCH   6  17
ATOM     17  C   UNL A   1      45.888 -18.565 -38.274  0.00  0.00    +0.165 C 
ATOM     18  C   UNL A   1      45.109 -17.523 -39.032  0.00  0.00    -0.001 C 
ATOM     19  O   UNL A   1      47.119 -18.576 -38.260  0.00  0.00    -0.292 OA
ENDBRANCH   6  17
ENDBRANCH   1   6
BRANCH   3  20
ATOM     20  C   UNL A   1      45.360 -18.076 -34.112  0.00  0.00    +0.013 C 
BRANCH  20  21
ATOM     21  C   UNL A   1      44.028 -17.440 -33.730  0.00  0.00    -0.022 C 
BRANCH  21  22
ATOM     22  C   UNL A   1      43.114 -18.463 -33.059  0.00  0.00    +0.011 C 
BRANCH  22  23
ATOM     23  N   UNL A   1      41.734 -18.250 -33.515  0.00  0.00    -0.343 N 
ATOM     24  H   UNL A   1      41.165 -17.500 -33.225  0.00  0.00    +0.000 HD
BRANCH  23  25
ATOM     25  C   UNL A   1      41.319 -19.263 -34.431  0.00  0.00    +0.041 A 
ATOM     26  C   UNL A   1      41.278 -19.016 -35.819  0.00  0.00    -0.005 A 
ATOM     27  C   UNL A   1      40.999 -20.099 -36.658  0.00  0.00    +0.047 A 
ATOM     28  N   UNL A   1      40.740 -21.348 -36.201  0.00  0.00    -0.251 NA
ATOM     29  C   UNL A   1      40.766 -21.578 -34.882  0.00  0.00    +0.073 A 
ATOM     30  C   UNL A   1      40.498 -22.864 -34.431  0.00  0.00    -0.036 A 
ATOM     31  C   UNL A   1      40.503 -23.188 -33.072  0.00  0.00    -0.060 A 
ATOM     32  C   UNL A   1      40.781 -22.205 -32.135  0.00  0.00    -0.061 A 
ATOM     33  C   UNL A   1      41.053 -20.908 -32.566  0.00  0.00    -0.051 A 
ATOM     34  C   UNL A   1      41.056 -20.573 -33.942  0.00  0.00    +0.021 A 
ATOM     35  C   UNL A   1      40.921 -19.948 -38.156  0.00  0.00    -0.010 C 
ATOM     36  C   UNL A   1      41.641 -18.708 -38.673  0.00  0.00    -0.047 C 
ATOM     37  C   UNL A   1      41.205 -17.494 -37.870  0.00  0.00    -0.049 C 
ATOM     38  C   UNL A   1      41.592 -17.657 -36.400  0.00  0.00    -0.024 C 
ENDBRANCH  23  25
ENDBRANCH  22  23
ENDBRANCH  21  22
ENDBRANCH  20  21
ENDBRANCH   3  20
TORSDOF 10
ENDMDL
MODEL 10
REMARK VINA RESULT:    -7.344     17.370     20.575
REMARK INTER + INTRA:         -13.384
REMARK INTER:                 -12.117
REMARK INTRA:                  -1.268
REMARK UNBOUND:                -1.962
REMARK  Name = cpd338.pdb
REMARK  12 active torsions:
REMARK  status: ('A' for Active; 'I' for Inactive)
REMARK    1  A    between atoms: C_1  and  O_2
REMARK    2  A    between atoms: O_2  and  C_3
REMARK    3  A    between atoms: C_5  and  C_6
REMARK    4  A    between atoms: C_7  and  C_8
REMARK    5  A    between atoms: C_7  and  C_11
REMARK    6  A    between atoms: C_8  and  C_9
REMARK    7  A    between atoms: N_13  and  C_14
REMARK    8  A    between atoms: C_14  and  C_15
REMARK    9  A    between atoms: C_15  and  C_16
REMARK   10  A    between atoms: C_16  and  N_17
REMARK   11  A    between atoms: N_17  and  C_18
REMARK   12  A    between atoms: C_34  and  O_35
REMARK                            x       y       z     vdW  Elec       q    Type
REMARK                         _______ _______ _______ _____ _____    ______ ____
ROOT
ATOM      1  C   UNL A   1      44.695 -19.700 -34.293  0.00  0.00    +0.247 C 
ATOM      2  O   UNL A   1      45.359 -20.594 -33.780  0.00  0.00    -0.270 OA
ATOM      3  N   UNL A   1      45.244 -18.591 -34.897  0.00  0.00    -0.311 N 
ATOM      4  H   UNL A   1      44.644 -17.925 -35.305  0.00  0.00    +0.000 HD
ENDROOT
BRANCH   1   6
ATOM      5  C   UNL A   1      42.521 -20.010 -33.182  0.00  0.00    -0.039 C 
ATOM      6  C   UNL A   1      43.208 -19.777 -34.318  0.00  0.00    +0.079 C 
BRANCH   5   9
ATOM      7  C   UNL A   1      39.241 -21.818 -32.796  0.00  0.00    +0.162 A 
ATOM      8  C   UNL A   1      40.605 -21.555 -32.957  0.00  0.00    -0.009 A 
ATOM      9  C   UNL A   1      41.073 -20.234 -33.048  0.00  0.00    -0.021 A 
ATOM     10  C   UNL A   1      40.160 -19.179 -32.955  0.00  0.00    -0.051 A 
ATOM     11  C   UNL A   1      38.792 -19.434 -32.828  0.00  0.00    -0.016 A 
ATOM     12  C   UNL A   1      38.339 -20.749 -32.759  0.00  0.00    +0.158 A 
BRANCH   7  14
ATOM     13  C   UNL A   1      38.623 -23.762 -33.976  0.00  0.00    +0.079 C 
ATOM     14  O   UNL A   1      38.719 -23.084 -32.729  0.00  0.00    -0.491 OA
ENDBRANCH   7  14
BRANCH  12  15
ATOM     15  O   UNL A   1      37.002 -21.005 -32.631  0.00  0.00    -0.503 OA
ATOM     16  H   UNL A   1      36.481 -20.495 -32.042  0.00  0.00    +0.000 HD
ENDBRANCH  12  15
ENDBRANCH   5   9
BRANCH   6  17
ATOM     17  C   UNL A   1      42.535 -19.771 -35.644  0.00  0.00    +0.165 C 
ATOM     18  C   UNL A   1      42.304 -21.098 -36.316  0.00  0.00    -0.001 C 
ATOM     19  O   UNL A   1      42.218 -18.707 -36.176  0.00  0.00    -0.292 OA
ENDBRANCH   6  17
ENDBRANCH   1   6
BRANCH   3  20
ATOM     20  C   UNL A   1      46.677 -18.372 -34.953  0.00  0.00    +0.013 C 
BRANCH  20  21
ATOM     21  C   UNL A   1      47.150 -18.157 -36.386  0.00  0.00    -0.022 C 
BRANCH  21  22
ATOM     22  C   UNL A   1      46.616 -19.256 -37.302  0.00  0.00    +0.011 C 
BRANCH  22  23
ATOM     23  N   UNL A   1      47.394 -19.267 -38.547  0.00  0.00    -0.343 N 
ATOM     24  H   UNL A   1      48.364 -19.102 -38.595  0.00  0.00    +0.000 HD
BRANCH  23  25
ATOM     25  C   UNL A   1      46.571 -19.547 -39.680  0.00  0.00    +0.041 A 
ATOM     26  C   UNL A   1      45.651 -18.594 -40.163  0.00  0.00    -0.005 A 
ATOM     27  C   UNL A   1      44.986 -18.888 -41.357  0.00  0.00    +0.047 A 
ATOM     28  N   UNL A   1      45.161 -20.044 -42.042  0.00  0.00    -0.251 NA
ATOM     29  C   UNL A   1      46.025 -20.954 -41.574  0.00  0.00    +0.073 A 
ATOM     30  C   UNL A   1      46.192 -22.134 -42.288  0.00  0.00    -0.036 A 
ATOM     31  C   UNL A   1      47.071 -23.135 -41.869  0.00  0.00    -0.060 A 
ATOM     32  C   UNL A   1      47.804 -22.959 -40.705  0.00  0.00    -0.061 A 
ATOM     33  C   UNL A   1      47.652 -21.783 -39.973  0.00  0.00    -0.051 A 
ATOM     34  C   UNL A   1      46.768 -20.760 -40.396  0.00  0.00    +0.021 A 
ATOM     35  C   UNL A   1      43.975 -17.946 -41.960  0.00  0.00    -0.010 C 
ATOM     36  C   UNL A   1      44.121 -16.512 -41.466  0.00  0.00    -0.047 C 
ATOM     37  C   UNL A   1      44.200 -16.502 -39.948  0.00  0.00    -0.049 C 
ATOM     38  C   UNL A   1      45.433 -17.269 -39.471  0.00  0.00    -0.024 C 
ENDBRANCH  23  25
ENDBRANCH  22  23
ENDBRANCH  21  22
ENDBRANCH  20  21
ENDBRANCH   3  20
TORSDOF 10
ENDMDL
MODEL 11
REMARK VINA RESULT:    -7.309     16.256     18.935
REMARK INTER + INTRA:         -13.331
REMARK INTER:                 -11.798
REMARK INTRA:                  -1.533
REMARK UNBOUND:                -1.962
REMARK  Name = cpd338.pdb
REMARK  12 active torsions:
REMARK  status: ('A' for Active; 'I' for Inactive)
REMARK    1  A    between atoms: C_1  and  O_2
REMARK    2  A    between atoms: O_2  and  C_3
REMARK    3  A    between atoms: C_5  and  C_6
REMARK    4  A    between atoms: C_7  and  C_8
REMARK    5  A    between atoms: C_7  and  C_11
REMARK    6  A    between atoms: C_8  and  C_9
REMARK    7  A    between atoms: N_13  and  C_14
REMARK    8  A    between atoms: C_14  and  C_15
REMARK    9  A    between atoms: C_15  and  C_16
REMARK   10  A    between atoms: C_16  and  N_17
REMARK   11  A    between atoms: N_17  and  C_18
REMARK   12  A    between atoms: C_34  and  O_35
REMARK                            x       y       z     vdW  Elec       q    Type
REMARK                         _______ _______ _______ _____ _____    ______ ____
ROOT
ATOM      1  C   UNL A   1      45.023 -19.667 -36.027  0.00  0.00    +0.247 C 
ATOM      2  O   UNL A   1      45.887 -19.167 -35.315  0.00  0.00    -0.270 OA
ATOM      3  N   UNL A   1      43.851 -20.204 -35.545  0.00  0.00    -0.311 N 
ATOM      4  H   UNL A   1      43.196 -20.570 -36.182  0.00  0.00    +0.000 HD
ENDROOT
BRANCH   1   6
ATOM      5  C   UNL A   1      44.596 -20.669 -38.234  0.00  0.00    -0.039 C 
ATOM      6  C   UNL A   1      45.185 -19.699 -37.507  0.00  0.00    +0.079 C 
BRANCH   5   9
ATOM      7  C   UNL A   1      45.847 -22.168 -41.454  0.00  0.00    +0.162 A 
ATOM      8  C   UNL A   1      45.688 -21.874 -40.096  0.00  0.00    -0.009 A 
ATOM      9  C   UNL A   1      44.749 -20.917 -39.676  0.00  0.00    -0.021 A 
ATOM     10  C   UNL A   1      43.956 -20.275 -40.632  0.00  0.00    -0.051 A 
ATOM     11  C   UNL A   1      44.131 -20.540 -41.993  0.00  0.00    -0.016 A 
ATOM     12  C   UNL A   1      45.081 -21.475 -42.397  0.00  0.00    +0.158 A 
BRANCH   7  14
ATOM     13  C   UNL A   1      47.869 -23.315 -41.065  0.00  0.00    +0.079 C 
ATOM     14  O   UNL A   1      46.765 -23.069 -41.928  0.00  0.00    -0.491 OA
ENDBRANCH   7  14
BRANCH  12  15
ATOM     15  O   UNL A   1      45.255 -21.741 -43.727  0.00  0.00    -0.503 OA
ATOM     16  H   UNL A   1      45.874 -21.245 -44.227  0.00  0.00    +0.000 HD
ENDBRANCH  12  15
ENDBRANCH   5   9
BRANCH   6  17
ATOM     17  C   UNL A   1      46.151 -18.748 -38.120  0.00  0.00    +0.165 C 
ATOM     18  C   UNL A   1      45.619 -17.422 -38.593  0.00  0.00    -0.001 C 
ATOM     19  O   UNL A   1      47.331 -19.065 -38.261  0.00  0.00    -0.292 OA
ENDBRANCH   6  17
ENDBRANCH   1   6
BRANCH   3  20
ATOM     20  C   UNL A   1      43.549 -20.248 -34.126  0.00  0.00    +0.013 C 
BRANCH  20  21
ATOM     21  C   UNL A   1      42.044 -20.234 -33.879  0.00  0.00    -0.022 C 
BRANCH  21  22
ATOM     22  C   UNL A   1      41.605 -21.502 -33.149  0.00  0.00    +0.011 C 
BRANCH  22  23
ATOM     23  N   UNL A   1      41.063 -22.457 -34.125  0.00  0.00    -0.343 N 
ATOM     24  H   UNL A   1      41.353 -23.395 -34.201  0.00  0.00    +0.000 HD
BRANCH  23  25
ATOM     25  C   UNL A   1      40.065 -21.856 -34.950  0.00  0.00    +0.041 A 
ATOM     26  C   UNL A   1      38.914 -21.268 -34.386  0.00  0.00    -0.005 A 
ATOM     27  C   UNL A   1      38.055 -20.578 -35.248  0.00  0.00    +0.047 A 
ATOM     28  N   UNL A   1      38.262 -20.478 -36.583  0.00  0.00    -0.251 NA
ATOM     29  C   UNL A   1      39.349 -21.050 -37.118  0.00  0.00    +0.073 A 
ATOM     30  C   UNL A   1      39.545 -20.938 -38.489  0.00  0.00    -0.036 A 
ATOM     31  C   UNL A   1      40.651 -21.504 -39.127  0.00  0.00    -0.060 A 
ATOM     32  C   UNL A   1      41.587 -22.204 -38.381  0.00  0.00    -0.061 A 
ATOM     33  C   UNL A   1      41.410 -22.328 -37.005  0.00  0.00    -0.051 A 
ATOM     34  C   UNL A   1      40.295 -21.750 -36.349  0.00  0.00    +0.021 A 
ATOM     35  C   UNL A   1      36.791 -19.919 -34.755  0.00  0.00    -0.010 C 
ATOM     36  C   UNL A   1      36.803 -19.642 -33.257  0.00  0.00    -0.047 C 
ATOM     37  C   UNL A   1      37.219 -20.898 -32.510  0.00  0.00    -0.049 C 
ATOM     38  C   UNL A   1      38.638 -21.309 -32.901  0.00  0.00    -0.024 C 
ENDBRANCH  23  25
ENDBRANCH  22  23
ENDBRANCH  21  22
ENDBRANCH  20  21
ENDBRANCH   3  20
TORSDOF 10
ENDMDL
MODEL 12
REMARK VINA RESULT:    -7.288     18.607     21.734
REMARK INTER + INTRA:         -13.298
REMARK INTER:                 -10.001
REMARK INTRA:                  -3.297
REMARK UNBOUND:                -1.962
REMARK  Name = cpd338.pdb
REMARK  12 active torsions:
REMARK  status: ('A' for Active; 'I' for Inactive)
REMARK    1  A    between atoms: C_1  and  O_2
REMARK    2  A    between atoms: O_2  and  C_3
REMARK    3  A    between atoms: C_5  and  C_6
REMARK    4  A    between atoms: C_7  and  C_8
REMARK    5  A    between atoms: C_7  and  C_11
REMARK    6  A    between atoms: C_8  and  C_9
REMARK    7  A    between atoms: N_13  and  C_14
REMARK    8  A    between atoms: C_14  and  C_15
REMARK    9  A    between atoms: C_15  and  C_16
REMARK   10  A    between atoms: C_16  and  N_17
REMARK   11  A    between atoms: N_17  and  C_18
REMARK   12  A    between atoms: C_34  and  O_35
REMARK                            x       y       z     vdW  Elec       q    Type
REMARK                         _______ _______ _______ _____ _____    ______ ____
ROOT
ATOM      1  C   UNL A   1      41.944 -16.253 -39.815  0.00  0.00    +0.247 C 
ATOM      2  O   UNL A   1      41.147 -15.357 -40.071  0.00  0.00    -0.270 OA
ATOM      3  N   UNL A   1      43.231 -16.293 -40.303  0.00  0.00    -0.311 N 
ATOM      4  H   UNL A   1      43.819 -17.036 -40.036  0.00  0.00    +0.000 HD
ENDROOT
BRANCH   1   6
ATOM      5  C   UNL A   1      42.407 -18.404 -38.712  0.00  0.00    -0.039 C 
ATOM      6  C   UNL A   1      41.563 -17.372 -38.910  0.00  0.00    +0.079 C 
BRANCH   5   9
ATOM      7  C   UNL A   1      41.379 -21.948 -37.967  0.00  0.00    +0.162 A 
ATOM      8  C   UNL A   1      41.617 -20.744 -38.638  0.00  0.00    -0.009 A 
ATOM      9  C   UNL A   1      42.144 -19.637 -37.954  0.00  0.00    -0.021 A 
ATOM     10  C   UNL A   1      42.451 -19.757 -36.595  0.00  0.00    -0.051 A 
ATOM     11  C   UNL A   1      42.187 -20.946 -35.910  0.00  0.00    -0.016 A 
ATOM     12  C   UNL A   1      41.644 -22.030 -36.596  0.00  0.00    +0.158 A 
BRANCH   7  14
ATOM     13  C   UNL A   1      40.654 -22.943 -39.976  0.00  0.00    +0.079 C 
ATOM     14  O   UNL A   1      40.841 -23.055 -38.570  0.00  0.00    -0.491 OA
ENDBRANCH   7  14
BRANCH  12  15
ATOM     15  O   UNL A   1      41.386 -23.198 -35.931  0.00  0.00    -0.503 OA
ATOM     16  H   UNL A   1      42.036 -23.570 -35.369  0.00  0.00    +0.000 HD
ENDBRANCH  12  15
ENDBRANCH   5   9
BRANCH   6  17
ATOM     17  C   UNL A   1      40.171 -17.398 -38.387  0.00  0.00    +0.165 C 
ATOM     18  C   UNL A   1      39.926 -16.805 -37.025  0.00  0.00    -0.001 C 
ATOM     19  O   UNL A   1      39.270 -17.923 -39.041  0.00  0.00    -0.292 OA
ENDBRANCH   6  17
ENDBRANCH   1   6
BRANCH   3  20
ATOM     20  C   UNL A   1      43.748 -15.275 -41.198  0.00  0.00    +0.013 C 
BRANCH  20  21
ATOM     21  C   UNL A   1      45.270 -15.198 -41.129  0.00  0.00    -0.022 C 
BRANCH  21  22
ATOM     22  C   UNL A   1      45.791 -15.909 -39.882  0.00  0.00    +0.011 C 
BRANCH  22  23
ATOM     23  N   UNL A   1      46.649 -17.029 -40.288  0.00  0.00    -0.343 N 
ATOM     24  H   UNL A   1      47.460 -16.934 -40.838  0.00  0.00    +0.000 HD
BRANCH  23  25
ATOM     25  C   UNL A   1      46.162 -18.274 -39.787  0.00  0.00    +0.041 A 
ATOM     26  C   UNL A   1      45.477 -19.177 -40.626  0.00  0.00    -0.005 A 
ATOM     27  C   UNL A   1      45.157 -20.431 -40.097  0.00  0.00    +0.047 A 
ATOM     28  N   UNL A   1      45.444 -20.799 -38.825  0.00  0.00    -0.251 NA
ATOM     29  C   UNL A   1      46.082 -19.934 -38.025  0.00  0.00    +0.073 A 
ATOM     30  C   UNL A   1      46.369 -20.327 -36.724  0.00  0.00    -0.036 A 
ATOM     31  C   UNL A   1      47.030 -19.487 -35.826  0.00  0.00    -0.060 A 
ATOM     32  C   UNL A   1      47.416 -18.219 -36.232  0.00  0.00    -0.061 A 
ATOM     33  C   UNL A   1      47.139 -17.804 -37.533  0.00  0.00    -0.051 A 
ATOM     34  C   UNL A   1      46.475 -18.653 -38.452  0.00  0.00    +0.021 A 
ATOM     35  C   UNL A   1      44.417 -21.471 -40.901  0.00  0.00    -0.010 C 
ATOM     36  C   UNL A   1      44.508 -21.243 -42.405  0.00  0.00    -0.047 C 
ATOM     37  C   UNL A   1      44.157 -19.799 -42.724  0.00  0.00    -0.049 C 
ATOM     38  C   UNL A   1      45.156 -18.848 -42.065  0.00  0.00    -0.024 C 
ENDBRANCH  23  25
ENDBRANCH  22  23
ENDBRANCH  21  22
ENDBRANCH  20  21
ENDBRANCH   3  20
TORSDOF 10
ENDMDL
MODEL 13
REMARK VINA RESULT:    -7.181      2.337      3.336
REMARK INTER + INTRA:         -13.131
REMARK INTER:                 -11.266
REMARK INTRA:                  -1.865
REMARK UNBOUND:                -1.962
REMARK  Name = cpd338.pdb
REMARK  12 active torsions:
REMARK  status: ('A' for Active; 'I' for Inactive)
REMARK    1  A    between atoms: C_1  and  O_2
REMARK    2  A    between atoms: O_2  and  C_3
REMARK    3  A    between atoms: C_5  and  C_6
REMARK    4  A    between atoms: C_7  and  C_8
REMARK    5  A    between atoms: C_7  and  C_11
REMARK    6  A    between atoms: C_8  and  C_9
REMARK    7  A    between atoms: N_13  and  C_14
REMARK    8  A    between atoms: C_14  and  C_15
REMARK    9  A    between atoms: C_15  and  C_16
REMARK   10  A    between atoms: C_16  and  N_17
REMARK   11  A    between atoms: N_17  and  C_18
REMARK   12  A    between atoms: C_34  and  O_35
REMARK                            x       y       z     vdW  Elec       q    Type
REMARK                         _______ _______ _______ _____ _____    ______ ____
ROOT
ATOM      1  C   UNL A   1      35.433 -38.721 -27.873  0.00  0.00    +0.247 C 
ATOM      2  O   UNL A   1      35.114 -39.894 -27.708  0.00  0.00    -0.270 OA
ATOM      3  N   UNL A   1      35.078 -37.705 -27.015  0.00  0.00    -0.311 N 
ATOM      4  H   UNL A   1      35.390 -36.790 -27.205  0.00  0.00    +0.000 HD
ENDROOT
BRANCH   1   6
ATOM      5  C   UNL A   1      37.370 -37.557 -28.847  0.00  0.00    -0.039 C 
ATOM      6  C   UNL A   1      36.275 -38.320 -29.033  0.00  0.00    +0.079 C 
BRANCH   5   9
ATOM      7  C   UNL A   1      40.470 -36.761 -30.831  0.00  0.00    +0.162 A 
ATOM      8  C   UNL A   1      39.611 -37.265 -29.849  0.00  0.00    -0.009 A 
ATOM      9  C   UNL A   1      38.237 -36.975 -29.884  0.00  0.00    -0.021 A 
ATOM     10  C   UNL A   1      37.731 -36.194 -30.928  0.00  0.00    -0.051 A 
ATOM     11  C   UNL A   1      38.587 -35.661 -31.895  0.00  0.00    -0.016 A 
ATOM     12  C   UNL A   1      39.951 -35.938 -31.836  0.00  0.00    +0.158 A 
BRANCH   7  14
ATOM     13  C   UNL A   1      42.226 -38.228 -31.395  0.00  0.00    +0.079 C 
ATOM     14  O   UNL A   1      41.822 -36.983 -30.837  0.00  0.00    -0.491 OA
ENDBRANCH   7  14
BRANCH  12  15
ATOM     15  O   UNL A   1      40.794 -35.421 -32.781  0.00  0.00    -0.503 OA
ATOM     16  H   UNL A   1      40.463 -35.187 -33.626  0.00  0.00    +0.000 HD
ENDBRANCH  12  15
ENDBRANCH   5   9
BRANCH   6  17
ATOM     17  C   UNL A   1      35.771 -38.632 -30.397  0.00  0.00    +0.165 C 
ATOM     18  C   UNL A   1      34.588 -37.848 -30.901  0.00  0.00    -0.001 C 
ATOM     19  O   UNL A   1      36.290 -39.528 -31.063  0.00  0.00    -0.292 OA
ENDBRANCH   6  17
ENDBRANCH   1   6
BRANCH   3  20
ATOM     20  C   UNL A   1      34.258 -37.937 -25.841  0.00  0.00    +0.013 C 
BRANCH  20  21
ATOM     21  C   UNL A   1      33.226 -36.830 -25.657  0.00  0.00    -0.022 C 
BRANCH  21  22
ATOM     22  C   UNL A   1      32.478 -36.567 -26.963  0.00  0.00    +0.011 C 
BRANCH  22  23
ATOM     23  N   UNL A   1      32.188 -35.131 -27.071  0.00  0.00    -0.343 N 
ATOM     24  H   UNL A   1      32.255 -34.495 -26.322  0.00  0.00    +0.000 HD
BRANCH  23  25
ATOM     25  C   UNL A   1      31.797 -34.771 -28.396  0.00  0.00    +0.041 A 
ATOM     26  C   UNL A   1      30.436 -34.648 -28.744  0.00  0.00    -0.005 A 
ATOM     27  C   UNL A   1      30.139 -34.156 -30.019  0.00  0.00    +0.047 A 
ATOM     28  N   UNL A   1      31.086 -33.828 -30.930  0.00  0.00    -0.251 NA
ATOM     29  C   UNL A   1      32.379 -33.960 -30.603  0.00  0.00    +0.073 A 
ATOM     30  C   UNL A   1      33.337 -33.619 -31.549  0.00  0.00    -0.036 A 
ATOM     31  C   UNL A   1      34.705 -33.727 -31.289  0.00  0.00    -0.060 A 
ATOM     32  C   UNL A   1      35.133 -34.189 -30.054  0.00  0.00    -0.061 A 
ATOM     33  C   UNL A   1      34.188 -34.536 -29.090  0.00  0.00    -0.051 A 
ATOM     34  C   UNL A   1      32.799 -34.422 -29.343  0.00  0.00    +0.021 A 
ATOM     35  C   UNL A   1      28.719 -33.992 -30.500  0.00  0.00    -0.010 C 
ATOM     36  C   UNL A   1      27.705 -33.918 -29.365  0.00  0.00    -0.047 C 
ATOM     37  C   UNL A   1      27.939 -35.066 -28.397  0.00  0.00    -0.049 C 
ATOM     38  C   UNL A   1      29.328 -34.961 -27.766  0.00  0.00    -0.024 C 
ENDBRANCH  23  25
ENDBRANCH  22  23
ENDBRANCH  21  22
ENDBRANCH  20  21
ENDBRANCH   3  20
TORSDOF 10
ENDMDL
MODEL 14
REMARK VINA RESULT:    -7.180     16.742     19.754
REMARK INTER + INTRA:         -13.130
REMARK INTER:                 -11.430
REMARK INTRA:                  -1.700
REMARK UNBOUND:                -1.962
REMARK  Name = cpd338.pdb
REMARK  12 active torsions:
REMARK  status: ('A' for Active; 'I' for Inactive)
REMARK    1  A    between atoms: C_1  and  O_2
REMARK    2  A    between atoms: O_2  and  C_3
REMARK    3  A    between atoms: C_5  and  C_6
REMARK    4  A    between atoms: C_7  and  C_8
REMARK    5  A    between atoms: C_7  and  C_11
REMARK    6  A    between atoms: C_8  and  C_9
REMARK    7  A    between atoms: N_13  and  C_14
REMARK    8  A    between atoms: C_14  and  C_15
REMARK    9  A    between atoms: C_15  and  C_16
REMARK   10  A    between atoms: C_16  and  N_17
REMARK   11  A    between atoms: N_17  and  C_18
REMARK   12  A    between atoms: C_34  and  O_35
REMARK                            x       y       z     vdW  Elec       q    Type
REMARK                         _______ _______ _______ _____ _____    ______ ____
ROOT
ATOM      1  C   UNL A   1      46.484 -18.423 -36.972  0.00  0.00    +0.247 C 
ATOM      2  O   UNL A   1      47.306 -17.524 -36.836  0.00  0.00    -0.270 OA
ATOM      3  N   UNL A   1      45.565 -18.771 -36.007  0.00  0.00    -0.311 N 
ATOM      4  H   UNL A   1      44.922 -19.492 -36.198  0.00  0.00    +0.000 HD
ENDROOT
BRANCH   1   6
ATOM      5  C   UNL A   1      46.685 -20.517 -38.249  0.00  0.00    -0.039 C 
ATOM      6  C   UNL A   1      46.409 -19.198 -38.241  0.00  0.00    +0.079 C 
BRANCH   5   9
ATOM      7  C   UNL A   1      45.719 -22.292 -41.426  0.00  0.00    +0.162 A 
ATOM      8  C   UNL A   1      45.669 -21.490 -40.281  0.00  0.00    -0.009 A 
ATOM      9  C   UNL A   1      46.776 -21.401 -39.421  0.00  0.00    -0.021 A 
ATOM     10  C   UNL A   1      47.942 -22.107 -39.735  0.00  0.00    -0.051 A 
ATOM     11  C   UNL A   1      47.989 -22.935 -40.859  0.00  0.00    -0.016 A 
ATOM     12  C   UNL A   1      46.876 -23.032 -41.692  0.00  0.00    +0.158 A 
BRANCH   7  14
ATOM     13  C   UNL A   1      43.741 -21.361 -42.305  0.00  0.00    +0.079 C 
ATOM     14  O   UNL A   1      44.664 -22.444 -42.287  0.00  0.00    -0.491 OA
ENDBRANCH   7  14
BRANCH  12  15
ATOM     15  O   UNL A   1      46.917 -23.838 -42.795  0.00  0.00    -0.503 OA
ATOM     16  H   UNL A   1      46.837 -24.767 -42.700  0.00  0.00    +0.000 HD
ENDBRANCH  12  15
ENDBRANCH   5   9
BRANCH   6  17
ATOM     17  C   UNL A   1      46.203 -18.442 -39.505  0.00  0.00    +0.165 C 
ATOM     18  C   UNL A   1      44.797 -18.031 -39.851  0.00  0.00    -0.001 C 
ATOM     19  O   UNL A   1      47.154 -18.200 -40.248  0.00  0.00    -0.292 OA
ENDBRANCH   6  17
ENDBRANCH   1   6
BRANCH   3  20
ATOM     20  C   UNL A   1      45.513 -18.109 -34.717  0.00  0.00    +0.013 C 
BRANCH  20  21
ATOM     21  C   UNL A   1      44.717 -18.926 -33.706  0.00  0.00    -0.022 C 
BRANCH  21  22
ATOM     22  C   UNL A   1      43.312 -19.214 -34.231  0.00  0.00    +0.011 C 
BRANCH  22  23
ATOM     23  N   UNL A   1      43.173 -20.656 -34.474  0.00  0.00    -0.343 N 
ATOM     24  H   UNL A   1      43.869 -21.321 -34.267  0.00  0.00    +0.000 HD
BRANCH  23  25
ATOM     25  C   UNL A   1      41.905 -20.973 -35.048  0.00  0.00    +0.041 A 
ATOM     26  C   UNL A   1      40.758 -21.116 -34.241  0.00  0.00    -0.005 A 
ATOM     27  C   UNL A   1      39.531 -21.286 -34.890  0.00  0.00    +0.047 A 
ATOM     28  N   UNL A   1      39.403 -21.350 -36.237  0.00  0.00    -0.251 NA
ATOM     29  C   UNL A   1      40.497 -21.228 -37.001  0.00  0.00    +0.073 A 
ATOM     30  C   UNL A   1      40.348 -21.296 -38.381  0.00  0.00    -0.036 A 
ATOM     31  C   UNL A   1      41.436 -21.179 -39.249  0.00  0.00    -0.060 A 
ATOM     32  C   UNL A   1      42.708 -20.991 -38.731  0.00  0.00    -0.061 A 
ATOM     33  C   UNL A   1      42.880 -20.920 -37.350  0.00  0.00    -0.051 A 
ATOM     34  C   UNL A   1      41.781 -21.031 -36.463  0.00  0.00    +0.021 A 
ATOM     35  C   UNL A   1      38.242 -21.459 -34.127  0.00  0.00    -0.010 C 
ATOM     36  C   UNL A   1      38.317 -20.941 -32.696  0.00  0.00    -0.047 C 
ATOM     37  C   UNL A   1      39.558 -21.497 -32.017  0.00  0.00    -0.049 C 
ATOM     38  C   UNL A   1      40.820 -21.020 -32.734  0.00  0.00    -0.024 C 
ENDBRANCH  23  25
ENDBRANCH  22  23
ENDBRANCH  21  22
ENDBRANCH  20  21
ENDBRANCH   3  20
TORSDOF 10
ENDMDL
MODEL 15
REMARK VINA RESULT:    -7.074      2.204      3.890
REMARK INTER + INTRA:         -12.965
REMARK INTER:                 -11.215
REMARK INTRA:                  -1.750
REMARK UNBOUND:                -1.962
REMARK  Name = cpd338.pdb
REMARK  12 active torsions:
REMARK  status: ('A' for Active; 'I' for Inactive)
REMARK    1  A    between atoms: C_1  and  O_2
REMARK    2  A    between atoms: O_2  and  C_3
REMARK    3  A    between atoms: C_5  and  C_6
REMARK    4  A    between atoms: C_7  and  C_8
REMARK    5  A    between atoms: C_7  and  C_11
REMARK    6  A    between atoms: C_8  and  C_9
REMARK    7  A    between atoms: N_13  and  C_14
REMARK    8  A    between atoms: C_14  and  C_15
REMARK    9  A    between atoms: C_15  and  C_16
REMARK   10  A    between atoms: C_16  and  N_17
REMARK   11  A    between atoms: N_17  and  C_18
REMARK   12  A    between atoms: C_34  and  O_35
REMARK                            x       y       z     vdW  Elec       q    Type
REMARK                         _______ _______ _______ _____ _____    ______ ____
ROOT
ATOM      1  C   UNL A   1      34.523 -38.821 -27.700  0.00  0.00    +0.247 C 
ATOM      2  O   UNL A   1      33.950 -39.891 -27.521  0.00  0.00    -0.270 OA
ATOM      3  N   UNL A   1      34.090 -37.625 -27.174  0.00  0.00    -0.311 N 
ATOM      4  H   UNL A   1      34.616 -36.810 -27.346  0.00  0.00    +0.000 HD
ENDROOT
BRANCH   1   6
ATOM      5  C   UNL A   1      36.662 -37.761 -28.299  0.00  0.00    -0.039 C 
ATOM      6  C   UNL A   1      35.776 -38.756 -28.502  0.00  0.00    +0.079 C 
BRANCH   5   9
ATOM      7  C   UNL A   1      38.910 -36.334 -30.961  0.00  0.00    +0.162 A 
ATOM      8  C   UNL A   1      37.776 -36.655 -30.208  0.00  0.00    -0.009 A 
ATOM      9  C   UNL A   1      37.879 -37.480 -29.076  0.00  0.00    -0.021 A 
ATOM     10  C   UNL A   1      39.135 -37.962 -28.695  0.00  0.00    -0.051 A 
ATOM     11  C   UNL A   1      40.268 -37.672 -29.460  0.00  0.00    -0.016 A 
ATOM     12  C   UNL A   1      40.149 -36.870 -30.592  0.00  0.00    +0.158 A 
BRANCH   7  14
ATOM     13  C   UNL A   1      38.587 -34.182 -31.866  0.00  0.00    +0.079 C 
ATOM     14  O   UNL A   1      38.872 -35.559 -32.090  0.00  0.00    -0.491 OA
ENDBRANCH   7  14
BRANCH  12  15
ATOM     15  O   UNL A   1      41.255 -36.580 -31.343  0.00  0.00    -0.503 OA
ATOM     16  H   UNL A   1      41.550 -37.185 -31.995  0.00  0.00    +0.000 HD
ENDBRANCH  12  15
ENDBRANCH   5   9
BRANCH   6  17
ATOM     17  C   UNL A   1      35.924 -39.706 -29.637  0.00  0.00    +0.165 C 
ATOM     18  C   UNL A   1      35.280 -39.335 -30.946  0.00  0.00    -0.001 C 
ATOM     19  O   UNL A   1      36.523 -40.770 -29.483  0.00  0.00    -0.292 OA
ENDBRANCH   6  17
ENDBRANCH   1   6
BRANCH   3  20
ATOM     20  C   UNL A   1      32.884 -37.526 -26.373  0.00  0.00    +0.013 C 
BRANCH  20  21
ATOM     21  C   UNL A   1      32.205 -36.174 -26.558  0.00  0.00    -0.022 C 
BRANCH  21  22
ATOM     22  C   UNL A   1      30.908 -36.325 -27.350  0.00  0.00    +0.011 C 
BRANCH  22  23
ATOM     23  N   UNL A   1      31.159 -35.986 -28.757  0.00  0.00    -0.343 N 
ATOM     24  H   UNL A   1      31.163 -36.641 -29.492  0.00  0.00    +0.000 HD
BRANCH  23  25
ATOM     25  C   UNL A   1      31.396 -34.588 -28.927  0.00  0.00    +0.041 A 
ATOM     26  C   UNL A   1      32.647 -34.113 -29.370  0.00  0.00    -0.005 A 
ATOM     27  C   UNL A   1      32.755 -32.746 -29.646  0.00  0.00    +0.047 A 
ATOM     28  N   UNL A   1      31.736 -31.869 -29.480  0.00  0.00    -0.251 NA
ATOM     29  C   UNL A   1      30.552 -32.321 -29.045  0.00  0.00    +0.073 A 
ATOM     30  C   UNL A   1      29.518 -31.409 -28.880  0.00  0.00    -0.036 A 
ATOM     31  C   UNL A   1      28.254 -31.797 -28.430  0.00  0.00    -0.060 A 
ATOM     32  C   UNL A   1      28.011 -33.129 -28.135  0.00  0.00    -0.061 A 
ATOM     33  C   UNL A   1      29.035 -34.062 -28.294  0.00  0.00    -0.051 A 
ATOM     34  C   UNL A   1      30.317 -33.677 -28.756  0.00  0.00    +0.021 A 
ATOM     35  C   UNL A   1      34.048 -32.127 -30.116  0.00  0.00    -0.010 C 
ATOM     36  C   UNL A   1      35.012 -33.138 -30.725  0.00  0.00    -0.047 C 
ATOM     37  C   UNL A   1      35.158 -34.328 -29.790  0.00  0.00    -0.049 C 
ATOM     38  C   UNL A   1      33.816 -35.038 -29.612  0.00  0.00    -0.024 C 
ENDBRANCH  23  25
ENDBRANCH  22  23
ENDBRANCH  21  22
ENDBRANCH  20  21
ENDBRANCH   3  20
TORSDOF 10
ENDMDL
MODEL 16
REMARK VINA RESULT:    -6.998     17.777     20.816
REMARK INTER + INTRA:         -12.848
REMARK INTER:                  -9.847
REMARK INTRA:                  -3.001
REMARK UNBOUND:                -1.962
REMARK  Name = cpd338.pdb
REMARK  12 active torsions:
REMARK  status: ('A' for Active; 'I' for Inactive)
REMARK    1  A    between atoms: C_1  and  O_2
REMARK    2  A    between atoms: O_2  and  C_3
REMARK    3  A    between atoms: C_5  and  C_6
REMARK    4  A    between atoms: C_7  and  C_8
REMARK    5  A    between atoms: C_7  and  C_11
REMARK    6  A    between atoms: C_8  and  C_9
REMARK    7  A    between atoms: N_13  and  C_14
REMARK    8  A    between atoms: C_14  and  C_15
REMARK    9  A    between atoms: C_15  and  C_16
REMARK   10  A    between atoms: C_16  and  N_17
REMARK   11  A    between atoms: N_17  and  C_18
REMARK   12  A    between atoms: C_34  and  O_35
REMARK                            x       y       z     vdW  Elec       q    Type
REMARK                         _______ _______ _______ _____ _____    ______ ____
ROOT
ATOM      1  C   UNL A   1      43.060 -19.842 -38.481  0.00  0.00    +0.247 C 
ATOM      2  O   UNL A   1      43.350 -18.794 -39.047  0.00  0.00    -0.270 OA
ATOM      3  N   UNL A   1      43.388 -21.088 -38.965  0.00  0.00    -0.311 N 
ATOM      4  H   UNL A   1      43.137 -21.884 -38.442  0.00  0.00    +0.000 HD
ENDROOT
BRANCH   1   6
ATOM      5  C   UNL A   1      42.331 -20.920 -36.391  0.00  0.00    -0.039 C 
ATOM      6  C   UNL A   1      42.337 -19.827 -37.179  0.00  0.00    +0.079 C 
BRANCH   5   9
ATOM      7  C   UNL A   1      39.575 -21.971 -34.051  0.00  0.00    +0.162 A 
ATOM      8  C   UNL A   1      40.317 -21.735 -35.213  0.00  0.00    -0.009 A 
ATOM      9  C   UNL A   1      41.576 -21.115 -35.145  0.00  0.00    -0.021 A 
ATOM     10  C   UNL A   1      42.091 -20.755 -33.896  0.00  0.00    -0.051 A 
ATOM     11  C   UNL A   1      41.342 -20.958 -32.733  0.00  0.00    -0.016 A 
ATOM     12  C   UNL A   1      40.086 -21.554 -32.818  0.00  0.00    +0.158 A 
BRANCH   7  14
ATOM     13  C   UNL A   1      38.319 -23.956 -34.241  0.00  0.00    +0.079 C 
ATOM     14  O   UNL A   1      38.331 -22.546 -34.055  0.00  0.00    -0.491 OA
ENDBRANCH   7  14
BRANCH  12  15
ATOM     15  O   UNL A   1      39.350 -21.759 -31.684  0.00  0.00    -0.503 OA
ATOM     16  H   UNL A   1      39.160 -21.041 -31.112  0.00  0.00    +0.000 HD
ENDBRANCH  12  15
ENDBRANCH   5   9
BRANCH   6  17
ATOM     17  C   UNL A   1      41.486 -18.646 -36.872  0.00  0.00    +0.165 C 
ATOM     18  C   UNL A   1      40.129 -18.576 -37.521  0.00  0.00    -0.001 C 
ATOM     19  O   UNL A   1      41.906 -17.750 -36.140  0.00  0.00    -0.292 OA
ENDBRANCH   6  17
ENDBRANCH   1   6
BRANCH   3  20
ATOM     20  C   UNL A   1      44.091 -21.267 -40.221  0.00  0.00    +0.013 C 
BRANCH  20  21
ATOM     21  C   UNL A   1      45.578 -21.513 -39.995  0.00  0.00    -0.022 C 
BRANCH  21  22
ATOM     22  C   UNL A   1      46.401 -20.312 -40.459  0.00  0.00    +0.011 C 
BRANCH  22  23
ATOM     23  N   UNL A   1      47.342 -19.934 -39.397  0.00  0.00    -0.343 N 
ATOM     24  H   UNL A   1      48.184 -20.409 -39.208  0.00  0.00    +0.000 HD
BRANCH  23  25
ATOM     25  C   UNL A   1      46.887 -18.790 -38.673  0.00  0.00    +0.041 A 
ATOM     26  C   UNL A   1      46.837 -17.519 -39.280  0.00  0.00    -0.005 A 
ATOM     27  C   UNL A   1      46.247 -16.480 -38.552  0.00  0.00    +0.047 A 
ATOM     28  N   UNL A   1      45.759 -16.634 -37.298  0.00  0.00    -0.251 NA
ATOM     29  C   UNL A   1      45.821 -17.840 -36.718  0.00  0.00    +0.073 A 
ATOM     30  C   UNL A   1      45.316 -17.979 -35.431  0.00  0.00    -0.036 A 
ATOM     31  C   UNL A   1      45.342 -19.201 -34.754  0.00  0.00    -0.060 A 
ATOM     32  C   UNL A   1      45.888 -20.315 -35.373  0.00  0.00    -0.061 A 
ATOM     33  C   UNL A   1      46.400 -20.197 -36.664  0.00  0.00    -0.051 A 
ATOM     34  C   UNL A   1      46.370 -18.964 -37.359  0.00  0.00    +0.021 A 
ATOM     35  C   UNL A   1      46.148 -15.079 -39.099  0.00  0.00    -0.010 C 
ATOM     36  C   UNL A   1      46.264 -15.017 -40.617  0.00  0.00    -0.047 C 
ATOM     37  C   UNL A   1      47.480 -15.810 -41.068  0.00  0.00    -0.049 C 
ATOM     38  C   UNL A   1      47.329 -17.283 -40.689  0.00  0.00    -0.024 C 
ENDBRANCH  23  25
ENDBRANCH  22  23
ENDBRANCH  21  22
ENDBRANCH  20  21
ENDBRANCH   3  20
TORSDOF 10
ENDMDL
MODEL 17
REMARK VINA RESULT:    -6.962     15.611     18.441
REMARK INTER + INTRA:         -12.791
REMARK INTER:                  -9.833
REMARK INTRA:                  -2.957
REMARK UNBOUND:                -1.962
REMARK  Name = cpd338.pdb
REMARK  12 active torsions:
REMARK  status: ('A' for Active; 'I' for Inactive)
REMARK    1  A    between atoms: C_1  and  O_2
REMARK    2  A    between atoms: O_2  and  C_3
REMARK    3  A    between atoms: C_5  and  C_6
REMARK    4  A    between atoms: C_7  and  C_8
REMARK    5  A    between atoms: C_7  and  C_11
REMARK    6  A    between atoms: C_8  and  C_9
REMARK    7  A    between atoms: N_13  and  C_14
REMARK    8  A    between atoms: C_14  and  C_15
REMARK    9  A    between atoms: C_15  and  C_16
REMARK   10  A    between atoms: C_16  and  N_17
REMARK   11  A    between atoms: N_17  and  C_18
REMARK   12  A    between atoms: C_34  and  O_35
REMARK                            x       y       z     vdW  Elec       q    Type
REMARK                         _______ _______ _______ _____ _____    ______ ____
ROOT
ATOM      1  C   UNL A   1      42.793 -19.922 -33.931  0.00  0.00    +0.247 C 
ATOM      2  O   UNL A   1      43.041 -19.190 -32.980  0.00  0.00    -0.270 OA
ATOM      3  N   UNL A   1      41.977 -21.028 -33.852  0.00  0.00    -0.311 N 
ATOM      4  H   UNL A   1      41.809 -21.556 -34.666  0.00  0.00    +0.000 HD
ENDROOT
BRANCH   1   6
ATOM      5  C   UNL A   1      42.657 -19.942 -36.389  0.00  0.00    -0.039 C 
ATOM      6  C   UNL A   1      43.356 -19.633 -35.279  0.00  0.00    +0.079 C 
BRANCH   5   9
ATOM      7  C   UNL A   1      43.393 -18.453 -39.768  0.00  0.00    +0.162 A 
ATOM      8  C   UNL A   1      42.949 -18.611 -38.451  0.00  0.00    -0.009 A 
ATOM      9  C   UNL A   1      43.111 -19.837 -37.785  0.00  0.00    -0.021 A 
ATOM     10  C   UNL A   1      43.742 -20.895 -38.446  0.00  0.00    -0.051 A 
ATOM     11  C   UNL A   1      44.159 -20.755 -39.772  0.00  0.00    -0.016 A 
ATOM     12  C   UNL A   1      43.974 -19.540 -40.429  0.00  0.00    +0.158 A 
BRANCH   7  14
ATOM     13  C   UNL A   1      44.112 -16.234 -40.104  0.00  0.00    +0.079 C 
ATOM     14  O   UNL A   1      43.239 -17.293 -40.481  0.00  0.00    -0.491 OA
ENDBRANCH   7  14
BRANCH  12  15
ATOM     15  O   UNL A   1      44.383 -19.396 -41.726  0.00  0.00    -0.503 OA
ATOM     16  H   UNL A   1      45.123 -18.858 -41.927  0.00  0.00    +0.000 HD
ENDBRANCH  12  15
ENDBRANCH   5   9
BRANCH   6  17
ATOM     17  C   UNL A   1      44.768 -19.169 -35.356  0.00  0.00    +0.165 C 
ATOM     18  C   UNL A   1      45.851 -20.212 -35.270  0.00  0.00    -0.001 C 
ATOM     19  O   UNL A   1      45.024 -17.969 -35.449  0.00  0.00    -0.292 OA
ENDBRANCH   6  17
ENDBRANCH   1   6
BRANCH   3  20
ATOM     20  C   UNL A   1      41.355 -21.441 -32.608  0.00  0.00    +0.013 C 
BRANCH  20  21
ATOM     21  C   UNL A   1      40.618 -22.765 -32.769  0.00  0.00    -0.022 C 
BRANCH  21  22
ATOM     22  C   UNL A   1      40.508 -23.147 -34.243  0.00  0.00    +0.011 C 
BRANCH  22  23
ATOM     23  N   UNL A   1      39.091 -23.195 -34.626  0.00  0.00    -0.343 N 
ATOM     24  H   UNL A   1      38.498 -23.962 -34.456  0.00  0.00    +0.000 HD
BRANCH  23  25
ATOM     25  C   UNL A   1      38.680 -21.991 -35.274  0.00  0.00    +0.041 A 
ATOM     26  C   UNL A   1      37.887 -21.038 -34.603  0.00  0.00    -0.005 A 
ATOM     27  C   UNL A   1      37.646 -19.825 -35.256  0.00  0.00    +0.047 A 
ATOM     28  N   UNL A   1      38.109 -19.543 -36.498  0.00  0.00    -0.251 NA
ATOM     29  C   UNL A   1      38.850 -20.456 -37.140  0.00  0.00    +0.073 A 
ATOM     30  C   UNL A   1      39.315 -20.151 -38.413  0.00  0.00    -0.036 A 
ATOM     31  C   UNL A   1      40.093 -21.046 -39.151  0.00  0.00    -0.060 A 
ATOM     32  C   UNL A   1      40.416 -22.281 -38.609  0.00  0.00    -0.061 A 
ATOM     33  C   UNL A   1      39.960 -22.607 -37.333  0.00  0.00    -0.051 A 
ATOM     34  C   UNL A   1      39.176 -21.702 -36.576  0.00  0.00    +0.021 A 
ATOM     35  C   UNL A   1      36.804 -18.739 -34.636  0.00  0.00    -0.010 C 
ATOM     36  C   UNL A   1      36.685 -18.862 -33.121  0.00  0.00    -0.047 C 
ATOM     37  C   UNL A   1      36.291 -20.283 -32.756  0.00  0.00    -0.049 C 
ATOM     38  C   UNL A   1      37.370 -21.270 -33.203  0.00  0.00    -0.024 C 
ENDBRANCH  23  25
ENDBRANCH  22  23
ENDBRANCH  21  22
ENDBRANCH  20  21
ENDBRANCH   3  20
TORSDOF 10
ENDMDL
MODEL 18
REMARK VINA RESULT:    -6.933     17.674     20.927
REMARK INTER + INTRA:         -12.745
REMARK INTER:                 -11.272
REMARK INTRA:                  -1.474
REMARK UNBOUND:                -1.962
REMARK  Name = cpd338.pdb
REMARK  12 active torsions:
REMARK  status: ('A' for Active; 'I' for Inactive)
REMARK    1  A    between atoms: C_1  and  O_2
REMARK    2  A    between atoms: O_2  and  C_3
REMARK    3  A    between atoms: C_5  and  C_6
REMARK    4  A    between atoms: C_7  and  C_8
REMARK    5  A    between atoms: C_7  and  C_11
REMARK    6  A    between atoms: C_8  and  C_9
REMARK    7  A    between atoms: N_13  and  C_14
REMARK    8  A    between atoms: C_14  and  C_15
REMARK    9  A    between atoms: C_15  and  C_16
REMARK   10  A    between atoms: C_16  and  N_17
REMARK   11  A    between atoms: N_17  and  C_18
REMARK   12  A    between atoms: C_34  and  O_35
REMARK                            x       y       z     vdW  Elec       q    Type
REMARK                         _______ _______ _______ _____ _____    ______ ____
ROOT
ATOM      1  C   UNL A   1      44.289 -19.120 -33.879  0.00  0.00    +0.247 C 
ATOM      2  O   UNL A   1      44.785 -18.517 -32.934  0.00  0.00    -0.270 OA
ATOM      3  N   UNL A   1      45.024 -19.685 -34.896  0.00  0.00    -0.311 N 
ATOM      4  H   UNL A   1      44.553 -20.172 -35.611  0.00  0.00    +0.000 HD
ENDROOT
BRANCH   1   6
ATOM      5  C   UNL A   1      42.083 -19.504 -32.855  0.00  0.00    -0.039 C 
ATOM      6  C   UNL A   1      42.814 -19.306 -33.970  0.00  0.00    +0.079 C 
BRANCH   5   9
ATOM      7  C   UNL A   1      38.912 -21.524 -32.656  0.00  0.00    +0.162 A 
ATOM      8  C   UNL A   1      40.262 -21.172 -32.763  0.00  0.00    -0.009 A 
ATOM      9  C   UNL A   1      40.649 -19.822 -32.775  0.00  0.00    -0.021 A 
ATOM     10  C   UNL A   1      39.671 -18.830 -32.657  0.00  0.00    -0.051 A 
ATOM     11  C   UNL A   1      38.318 -19.173 -32.583  0.00  0.00    -0.016 A 
ATOM     12  C   UNL A   1      37.946 -20.515 -32.593  0.00  0.00    +0.158 A 
BRANCH   7  14
ATOM     13  C   UNL A   1      39.093 -23.663 -33.628  0.00  0.00    +0.079 C 
ATOM     14  O   UNL A   1      38.468 -22.821 -32.667  0.00  0.00    -0.491 OA
ENDBRANCH   7  14
BRANCH  12  15
ATOM     15  O   UNL A   1      36.623 -20.857 -32.517  0.00  0.00    -0.503 OA
ATOM     16  H   UNL A   1      35.981 -20.205 -32.317  0.00  0.00    +0.000 HD
ENDBRANCH  12  15
ENDBRANCH   5   9
BRANCH   6  17
ATOM     17  C   UNL A   1      42.215 -19.445 -35.324  0.00  0.00    +0.165 C 
ATOM     18  C   UNL A   1      41.617 -18.214 -35.953  0.00  0.00    -0.001 C 
ATOM     19  O   UNL A   1      42.184 -20.542 -35.882  0.00  0.00    -0.292 OA
ENDBRANCH   6  17
ENDBRANCH   1   6
BRANCH   3  20
ATOM     20  C   UNL A   1      46.470 -19.588 -34.949  0.00  0.00    +0.013 C 
BRANCH  20  21
ATOM     21  C   UNL A   1      47.014 -20.118 -36.271  0.00  0.00    -0.022 C 
BRANCH  21  22
ATOM     22  C   UNL A   1      46.194 -19.588 -37.445  0.00  0.00    +0.011 C 
BRANCH  22  23
ATOM     23  N   UNL A   1      47.090 -19.318 -38.576  0.00  0.00    -0.343 N 
ATOM     24  H   UNL A   1      48.072 -19.368 -38.529  0.00  0.00    +0.000 HD
BRANCH  23  25
ATOM     25  C   UNL A   1      46.361 -18.973 -39.755  0.00  0.00    +0.041 A 
ATOM     26  C   UNL A   1      46.022 -19.952 -40.711  0.00  0.00    -0.005 A 
ATOM     27  C   UNL A   1      45.187 -19.562 -41.764  0.00  0.00    +0.047 A 
ATOM     28  N   UNL A   1      44.723 -18.299 -41.918  0.00  0.00    -0.251 NA
ATOM     29  C   UNL A   1      45.058 -17.367 -41.015  0.00  0.00    +0.073 A 
ATOM     30  C   UNL A   1      44.574 -16.077 -41.189  0.00  0.00    -0.036 A 
ATOM     31  C   UNL A   1      44.875 -15.047 -40.295  0.00  0.00    -0.060 A 
ATOM     32  C   UNL A   1      45.683 -15.307 -39.198  0.00  0.00    -0.061 A 
ATOM     33  C   UNL A   1      46.180 -16.594 -39.005  0.00  0.00    -0.051 A 
ATOM     34  C   UNL A   1      45.872 -17.646 -39.903  0.00  0.00    +0.021 A 
ATOM     35  C   UNL A   1      44.769 -20.524 -42.848  0.00  0.00    -0.010 C 
ATOM     36  C   UNL A   1      44.899 -21.985 -42.438  0.00  0.00    -0.047 C 
ATOM     37  C   UNL A   1      46.278 -22.227 -41.846  0.00  0.00    -0.049 C 
ATOM     38  C   UNL A   1      46.474 -21.388 -40.583  0.00  0.00    -0.024 C 
ENDBRANCH  23  25
ENDBRANCH  22  23
ENDBRANCH  21  22
ENDBRANCH  20  21
ENDBRANCH   3  20
TORSDOF 10
ENDMDL
MODEL 19
REMARK VINA RESULT:    -6.854     17.669     20.384
REMARK INTER + INTRA:         -12.623
REMARK INTER:                 -10.065
REMARK INTRA:                  -2.557
REMARK UNBOUND:                -1.962
REMARK  Name = cpd338.pdb
REMARK  12 active torsions:
REMARK  status: ('A' for Active; 'I' for Inactive)
REMARK    1  A    between atoms: C_1  and  O_2
REMARK    2  A    between atoms: O_2  and  C_3
REMARK    3  A    between atoms: C_5  and  C_6
REMARK    4  A    between atoms: C_7  and  C_8
REMARK    5  A    between atoms: C_7  and  C_11
REMARK    6  A    between atoms: C_8  and  C_9
REMARK    7  A    between atoms: N_13  and  C_14
REMARK    8  A    between atoms: C_14  and  C_15
REMARK    9  A    between atoms: C_15  and  C_16
REMARK   10  A    between atoms: C_16  and  N_17
REMARK   11  A    between atoms: N_17  and  C_18
REMARK   12  A    between atoms: C_34  and  O_35
REMARK                            x       y       z     vdW  Elec       q    Type
REMARK                         _______ _______ _______ _____ _____    ______ ____
ROOT
ATOM      1  C   UNL A   1      41.152 -21.693 -36.808  0.00  0.00    +0.247 C 
ATOM      2  O   UNL A   1      40.101 -22.323 -36.784  0.00  0.00    -0.270 OA
ATOM      3  N   UNL A   1      41.744 -21.149 -35.690  0.00  0.00    -0.311 N 
ATOM      4  H   UNL A   1      42.600 -20.673 -35.788  0.00  0.00    +0.000 HD
ENDROOT
BRANCH   1   6
ATOM      5  C   UNL A   1      43.191 -21.150 -38.076  0.00  0.00    -0.039 C 
ATOM      6  C   UNL A   1      41.888 -21.494 -38.087  0.00  0.00    +0.079 C 
BRANCH   5   9
ATOM      7  C   UNL A   1      45.526 -21.548 -41.002  0.00  0.00    +0.162 A 
ATOM      8  C   UNL A   1      44.740 -21.825 -39.879  0.00  0.00    -0.009 A 
ATOM      9  C   UNL A   1      44.030 -20.801 -39.232  0.00  0.00    -0.021 A 
ATOM     10  C   UNL A   1      44.099 -19.499 -39.738  0.00  0.00    -0.051 A 
ATOM     11  C   UNL A   1      44.907 -19.208 -40.840  0.00  0.00    -0.016 A 
ATOM     12  C   UNL A   1      45.623 -20.230 -41.459  0.00  0.00    +0.158 A 
BRANCH   7  14
ATOM     13  C   UNL A   1      47.398 -22.979 -40.946  0.00  0.00    +0.079 C 
ATOM     14  O   UNL A   1      46.265 -22.497 -41.659  0.00  0.00    -0.491 OA
ENDBRANCH   7  14
BRANCH  12  15
ATOM     15  O   UNL A   1      46.414 -19.951 -42.540  0.00  0.00    -0.503 OA
ATOM     16  H   UNL A   1      46.564 -20.608 -43.192  0.00  0.00    +0.000 HD
ENDBRANCH  12  15
ENDBRANCH   5   9
BRANCH   6  17
ATOM     17  C   UNL A   1      41.102 -21.510 -39.350  0.00  0.00    +0.165 C 
ATOM     18  C   UNL A   1      40.231 -20.318 -39.645  0.00  0.00    -0.001 C 
ATOM     19  O   UNL A   1      41.145 -22.487 -40.098  0.00  0.00    -0.292 OA
ENDBRANCH   6  17
ENDBRANCH   1   6
BRANCH   3  20
ATOM     20  C   UNL A   1      41.147 -21.257 -34.372  0.00  0.00    +0.013 C 
BRANCH  20  21
ATOM     21  C   UNL A   1      42.150 -20.905 -33.279  0.00  0.00    -0.022 C 
BRANCH  21  22
ATOM     22  C   UNL A   1      42.381 -19.396 -33.224  0.00  0.00    +0.011 C 
BRANCH  22  23
ATOM     23  N   UNL A   1      43.816 -19.134 -33.054  0.00  0.00    -0.343 N 
ATOM     24  H   UNL A   1      44.384 -19.577 -32.383  0.00  0.00    +0.000 HD
BRANCH  23  25
ATOM     25  C   UNL A   1      44.286 -18.156 -33.983  0.00  0.00    +0.041 A 
ATOM     26  C   UNL A   1      44.000 -16.787 -33.803  0.00  0.00    -0.005 A 
ATOM     27  C   UNL A   1      44.613 -15.882 -34.675  0.00  0.00    +0.047 A 
ATOM     28  N   UNL A   1      45.431 -16.259 -35.687  0.00  0.00    -0.251 NA
ATOM     29  C   UNL A   1      45.689 -17.561 -35.865  0.00  0.00    +0.073 A 
ATOM     30  C   UNL A   1      46.529 -17.931 -36.908  0.00  0.00    -0.036 A 
ATOM     31  C   UNL A   1      46.849 -19.266 -37.163  0.00  0.00    -0.060 A 
ATOM     32  C   UNL A   1      46.317 -20.263 -36.359  0.00  0.00    -0.061 A 
ATOM     33  C   UNL A   1      45.472 -19.915 -35.308  0.00  0.00    -0.051 A 
ATOM     34  C   UNL A   1      45.149 -18.562 -35.038  0.00  0.00    +0.021 A 
ATOM     35  C   UNL A   1      44.372 -14.396 -34.581  0.00  0.00    -0.010 C 
ATOM     36  C   UNL A   1      43.853 -13.957 -33.217  0.00  0.00    -0.047 C 
ATOM     37  C   UNL A   1      42.682 -14.836 -32.810  0.00  0.00    -0.049 C 
ATOM     38  C   UNL A   1      43.127 -16.292 -32.674  0.00  0.00    -0.024 C 
ENDBRANCH  23  25
ENDBRANCH  22  23
ENDBRANCH  21  22
ENDBRANCH  20  21
ENDBRANCH   3  20
TORSDOF 10
ENDMDL
MODEL 20
REMARK VINA RESULT:    -6.800     15.690     18.418
REMARK INTER + INTRA:         -12.539
REMARK INTER:                  -9.268
REMARK INTRA:                  -3.271
REMARK UNBOUND:                -1.962
REMARK  Name = cpd338.pdb
REMARK  12 active torsions:
REMARK  status: ('A' for Active; 'I' for Inactive)
REMARK    1  A    between atoms: C_1  and  O_2
REMARK    2  A    between atoms: O_2  and  C_3
REMARK    3  A    between atoms: C_5  and  C_6
REMARK    4  A    between atoms: C_7  and  C_8
REMARK    5  A    between atoms: C_7  and  C_11
REMARK    6  A    between atoms: C_8  and  C_9
REMARK    7  A    between atoms: N_13  and  C_14
REMARK    8  A    between atoms: C_14  and  C_15
REMARK    9  A    between atoms: C_15  and  C_16
REMARK   10  A    between atoms: C_16  and  N_17
REMARK   11  A    between atoms: N_17  and  C_18
REMARK   12  A    between atoms: C_34  and  O_35
REMARK                            x       y       z     vdW  Elec       q    Type
REMARK                         _______ _______ _______ _____ _____    ______ ____
ROOT
ATOM      1  C   UNL A   1      41.620 -19.882 -33.120  0.00  0.00    +0.247 C 
ATOM      2  O   UNL A   1      40.796 -19.190 -32.532  0.00  0.00    -0.270 OA
ATOM      3  N   UNL A   1      41.724 -21.246 -32.963  0.00  0.00    -0.311 N 
ATOM      4  H   UNL A   1      42.399 -21.736 -33.486  0.00  0.00    +0.000 HD
ENDROOT
BRANCH   1   6
ATOM      5  C   UNL A   1      43.319 -20.054 -34.892  0.00  0.00    -0.039 C 
ATOM      6  C   UNL A   1      42.569 -19.272 -34.092  0.00  0.00    +0.079 C 
BRANCH   5   9
ATOM      7  C   UNL A   1      46.757 -19.252 -36.201  0.00  0.00    +0.162 A 
ATOM      8  C   UNL A   1      45.709 -19.622 -35.353  0.00  0.00    -0.009 A 
ATOM      9  C   UNL A   1      44.382 -19.624 -35.814  0.00  0.00    -0.021 A 
ATOM     10  C   UNL A   1      44.121 -19.273 -37.142  0.00  0.00    -0.051 A 
ATOM     11  C   UNL A   1      45.159 -18.871 -37.987  0.00  0.00    -0.016 A 
ATOM     12  C   UNL A   1      46.468 -18.853 -37.510  0.00  0.00    +0.158 A 
BRANCH   7  14
ATOM     13  C   UNL A   1      48.334 -18.325 -34.716  0.00  0.00    +0.079 C 
ATOM     14  O   UNL A   1      48.068 -19.202 -35.804  0.00  0.00    -0.491 OA
ENDBRANCH   7  14
BRANCH  12  15
ATOM     15  O   UNL A   1      47.489 -18.463 -38.333  0.00  0.00    -0.503 OA
ATOM     16  H   UNL A   1      47.357 -18.430 -39.260  0.00  0.00    +0.000 HD
ENDBRANCH  12  15
ENDBRANCH   5   9
BRANCH   6  17
ATOM     17  C   UNL A   1      42.786 -17.802 -34.019  0.00  0.00    +0.165 C 
ATOM     18  C   UNL A   1      42.033 -16.936 -34.993  0.00  0.00    -0.001 C 
ATOM     19  O   UNL A   1      43.585 -17.331 -33.209  0.00  0.00    -0.292 OA
ENDBRANCH   6  17
ENDBRANCH   1   6
BRANCH   3  20
ATOM     20  C   UNL A   1      40.872 -21.985 -32.051  0.00  0.00    +0.013 C 
BRANCH  20  21
ATOM     21  C   UNL A   1      40.339 -23.258 -32.698  0.00  0.00    -0.022 C 
BRANCH  21  22
ATOM     22  C   UNL A   1      40.476 -23.190 -34.218  0.00  0.00    +0.011 C 
BRANCH  22  23
ATOM     23  N   UNL A   1      39.154 -22.951 -34.812  0.00  0.00    -0.343 N 
ATOM     24  H   UNL A   1      38.457 -23.639 -34.904  0.00  0.00    +0.000 HD
BRANCH  23  25
ATOM     25  C   UNL A   1      39.007 -21.596 -35.238  0.00  0.00    +0.041 A 
ATOM     26  C   UNL A   1      38.227 -20.683 -34.498  0.00  0.00    -0.005 A 
ATOM     27  C   UNL A   1      38.248 -19.344 -34.902  0.00  0.00    +0.047 A 
ATOM     28  N   UNL A   1      38.947 -18.900 -35.974  0.00  0.00    -0.251 NA
ATOM     29  C   UNL A   1      39.675 -19.772 -36.684  0.00  0.00    +0.073 A 
ATOM     30  C   UNL A   1      40.385 -19.299 -37.780  0.00  0.00    -0.036 A 
ATOM     31  C   UNL A   1      41.168 -20.141 -38.573  0.00  0.00    -0.060 A 
ATOM     32  C   UNL A   1      41.245 -21.492 -38.269  0.00  0.00    -0.061 A 
ATOM     33  C   UNL A   1      40.540 -21.987 -37.174  0.00  0.00    -0.051 A 
ATOM     34  C   UNL A   1      39.750 -21.138 -36.360  0.00  0.00    +0.021 A 
ATOM     35  C   UNL A   1      37.445 -18.284 -34.190  0.00  0.00    -0.010 C 
ATOM     36  C   UNL A   1      37.053 -18.679 -32.771  0.00  0.00    -0.047 C 
ATOM     37  C   UNL A   1      36.437 -20.068 -32.782  0.00  0.00    -0.049 C 
ATOM     38  C   UNL A   1      37.452 -21.101 -33.271  0.00  0.00    -0.024 C 
ENDBRANCH  23  25
ENDBRANCH  22  23
ENDBRANCH  21  22
ENDBRANCH  20  21
ENDBRANCH   3  20
TORSDOF 10
ENDMDL
