REMARK  Name = cpd338.pdb
REMARK  12 active torsions:
REMARK  status: ('A' for Active; 'I' for Inactive)
REMARK    1  A    between atoms: C_1  and  O_2
REMARK    2  A    between atoms: O_2  and  C_3
REMARK    3  A    between atoms: C_5  and  C_6
REMARK    4  A    between atoms: C_7  and  C_8
REMARK    5  A    between atoms: C_7  and  C_11
REMARK    6  A    between atoms: C_8  and  C_9
REMARK    7  A    between atoms: N_13  and  C_14
REMARK    8  A    between atoms: C_14  and  C_15
REMARK    9  A    between atoms: C_15  and  C_16
REMARK   10  A    between atoms: C_16  and  N_17
REMARK   11  A    between atoms: N_17  and  C_18
REMARK   12  A    between atoms: C_34  and  O_35
REMARK                            x       y       z     vdW  Elec       q    Type
REMARK                         _______ _______ _______ _____ _____    ______ ____
ROOT
ATOM      1  C   UNL A   1      -3.704  -0.611   0.995  0.00  0.00    +0.247 C 
ATOM      2  O   UNL A   1      -4.321  -0.150   1.949  0.00  0.00    -0.270 OA
ATOM      3  N   UNL A   1      -4.085  -1.745   0.314  0.00  0.00    -0.311 N 
ATOM      4  H   UNL A   1      -3.548  -2.042  -0.456  0.00  0.00    +0.000 HD
ENDROOT
BRANCH   1   6
ATOM      5  C   UNL A   1      -1.412  -0.658   0.099  0.00  0.00    -0.039 C 
ATOM      6  C   UNL A   1      -2.481   0.067   0.483  0.00  0.00    +0.079 C 
BRANCH   5   9
ATOM      7  C   UNL A   1       2.325  -0.219  -0.041  0.00  0.00    +0.162 A 
ATOM      8  C   UNL A   1       1.048  -0.647   0.337  0.00  0.00    -0.009 A 
ATOM      9  C   UNL A   1      -0.094  -0.151  -0.313  0.00  0.00    -0.021 A 
ATOM     10  C   UNL A   1       0.060   0.762  -1.361  0.00  0.00    -0.051 A 
ATOM     11  C   UNL A   1       1.330   1.219  -1.723  0.00  0.00    -0.016 A 
ATOM     12  C   UNL A   1       2.453   0.735  -1.056  0.00  0.00    +0.158 A 
BRANCH   7  14
ATOM     13  C   UNL A   1       3.484  -2.014   0.953  0.00  0.00    +0.079 C 
ATOM     14  O   UNL A   1       3.475  -0.643   0.572  0.00  0.00    -0.491 OA
ENDBRANCH   7  14
BRANCH  12  15
ATOM     15  O   UNL A   1       3.699   1.176  -1.408  0.00  0.00    -0.503 OA
ATOM     16  H   UNL A   1       4.455   0.851  -0.960  0.00  0.00    +0.000 HD
ENDBRANCH  12  15
ENDBRANCH   5   9
BRANCH   6  17
ATOM     17  C   UNL A   1      -2.417   1.550   0.582  0.00  0.00    +0.165 C 
ATOM     18  C   UNL A   1      -2.270   2.152   1.954  0.00  0.00    -0.001 C 
ATOM     19  O   UNL A   1      -2.519   2.246  -0.428  0.00  0.00    -0.292 OA
ENDBRANCH   6  17
ENDBRANCH   1   6
BRANCH   3  20
ATOM     20  C   UNL A   1      -5.253  -2.517   0.694  0.00  0.00    +0.013 C 
BRANCH  20  21
ATOM     21  C   UNL A   1      -6.295  -2.531  -0.419  0.00  0.00    -0.022 C 
BRANCH  21  22
ATOM     22  C   UNL A   1      -7.555  -3.268   0.030  0.00  0.00    +0.011 C 
BRANCH  22  23
ATOM     23  N   UNL A   1      -8.458  -3.423  -1.118  0.00  0.00    -0.343 N 
ATOM     24  H   UNL A   1      -8.198  -3.257  -2.053  0.00  0.00    +0.000 HD
BRANCH  23  25
ATOM     25  C   UNL A   1      -9.760  -3.844  -0.710  0.00  0.00    +0.041 A 
ATOM     26  C   UNL A   1     -10.078  -5.213  -0.595  0.00  0.00    -0.005 A 
ATOM     27  C   UNL A   1     -11.326  -5.541  -0.055  0.00  0.00    +0.047 A 
ATOM     28  N   UNL A   1     -12.239  -4.616   0.327  0.00  0.00    -0.251 NA
ATOM     29  C   UNL A   1     -11.940  -3.316   0.203  0.00  0.00    +0.073 A 
ATOM     30  C   UNL A   1     -12.888  -2.381   0.599  0.00  0.00    -0.036 A 
ATOM     31  C   UNL A   1     -12.657  -1.007   0.503  0.00  0.00    -0.060 A 
ATOM     32  C   UNL A   1     -11.450  -0.549  -0.003  0.00  0.00    -0.061 A 
ATOM     33  C   UNL A   1     -10.485  -1.470  -0.406  0.00  0.00    -0.051 A 
ATOM     34  C   UNL A   1     -10.709  -2.865  -0.305  0.00  0.00    +0.021 A 
ATOM     35  C   UNL A   1     -11.774  -6.972   0.105  0.00  0.00    -0.010 C 
ATOM     36  C   UNL A   1     -10.619  -7.966   0.115  0.00  0.00    -0.047 C 
ATOM     37  C   UNL A   1      -9.705  -7.696  -1.069  0.00  0.00    -0.049 C 
ATOM     38  C   UNL A   1      -9.095  -6.298  -0.967  0.00  0.00    -0.024 C 
ENDBRANCH  23  25
ENDBRANCH  22  23
ENDBRANCH  21  22
ENDBRANCH  20  21
ENDBRANCH   3  20
TORSDOF 10
