REMARK  Name = cpd196.pdb
REMARK  14 active torsions:
REMARK  status: ('A' for Active; 'I' for Inactive)
REMARK    1  A    between atoms: C_1  and  C_2
REMARK    2  A    between atoms: C_2  and  C_32
REMARK    3  A    between atoms: C_3  and  C_4
REMARK    4  A    between atoms: N_6  and  C_7
REMARK    5  A    between atoms: N_6  and  C_8
REMARK    6  A    between atoms: C_11  and  C_12
REMARK    7  A    between atoms: C_20  and  C_21
REMARK    8  A    between atoms: C_22  and  C_23
REMARK    9  A    between atoms: C_23  and  C_24
REMARK   10  A    between atoms: C_23  and  N_25
REMARK   11  A    between atoms: N_25  and  C_26
REMARK   12  A    between atoms: N_25  and  C_27
REMARK   13  A    between atoms: C_32  and  C_33
REMARK   14  A    between atoms: C_32  and  C_34
REMARK                            x       y       z     vdW  Elec       q    Type
REMARK                         _______ _______ _______ _____ _____    ______ ____
ROOT
ATOM      1  C   UNL     1       2.255   0.475  -0.045  0.00  0.00    +0.026 C 
ATOM      2  C   UNL     1       2.245   2.005  -0.192  0.00  0.00    -0.034 C 
ATOM      3  C   UNL     1       0.957   2.630   0.356  0.00  0.00    -0.045 C 
ATOM      4  C   UNL     1      -0.338   2.040  -0.281  0.00  0.00    -0.026 C 
ATOM      5  C   UNL     1      -0.339   2.413  -1.780  0.00  0.00    -0.059 C 
ATOM      6  C   UNL     1      -0.281   0.495  -0.077  0.00  0.00    -0.034 C 
ATOM      7  C   UNL     1      -1.549  -0.185  -0.594  0.00  0.00    -0.049 C 
ATOM      8  C   UNL     1      -2.758   0.297   0.197  0.00  0.00    -0.049 C 
ATOM      9  C   UNL     1      -2.945   1.830   0.210  0.00  0.00    -0.034 C 
ATOM     10  C   UNL     1      -1.613   2.578   0.487  0.00  0.00    -0.032 C 
ATOM     11  C   UNL     1      -1.855   4.095   0.459  0.00  0.00    -0.049 C 
ATOM     12  C   UNL     1      -2.543   4.606  -0.795  0.00  0.00    -0.043 C 
ATOM     13  C   UNL     1      -3.850   3.891  -1.170  0.00  0.00    -0.006 C 
ATOM     14  C   UNL     1      -4.167   4.250  -2.643  0.00  0.00    -0.056 C 
ATOM     15  C   UNL     1      -5.070   4.200  -0.298  0.00  0.00    -0.051 C 
ATOM     16  C   UNL     1      -5.837   3.100  -0.176  0.00  0.00    -0.082 C 
ATOM     17  C   UNL     1      -5.251   1.919  -0.872  0.00  0.00    -0.031 C 
ATOM     18  C   UNL     1      -3.766   2.333  -1.020  0.00  0.00    -0.025 C 
ATOM     19  C   UNL     1       0.988  -0.158  -0.648  0.00  0.00    -0.031 C 
ENDROOT
BRANCH   1  22
ATOM     20  C   UNL     1       4.022  -1.348  -0.084  0.00  0.00    +0.239 C 
ATOM     21  O   UNL     1       4.939  -1.967  -0.619  0.00  0.00    -0.271 OA
ATOM     22  N   UNL     1       3.478  -0.166  -0.582  0.00  0.00    -0.298 N 
ATOM     23  C   UNL     1       3.995   0.306  -1.862  0.00  0.00    +0.004 C 
BRANCH  20  26
ATOM     24  C   UNL     1       2.419  -3.499   2.705  0.00  0.00    -0.043 C 
ATOM     25  C   UNL     1       2.892  -3.067   1.340  0.00  0.00    -0.065 C 
ATOM     26  C   UNL     1       3.461  -1.853   1.195  0.00  0.00    -0.000 C 
BRANCH  25  27
ATOM     27  C   UNL     1       2.705  -4.055   0.191  0.00  0.00    -0.025 C 
ATOM     28  C   UNL     1       1.269  -4.580   0.093  0.00  0.00    -0.059 C 
ATOM     29  C   UNL     1       3.695  -5.218   0.292  0.00  0.00    -0.059 C 
ENDBRANCH  25  27
ENDBRANCH  20  26
ENDBRANCH   1  22
BRANCH  15  30
ATOM     30  C   UNL     1      -5.389   5.565   0.294  0.00  0.00    +0.029 C 
ATOM     31  C   UNL     1      -6.238   6.342  -0.730  0.00  0.00    -0.046 C 
BRANCH  30  32
ATOM     32  N   UNL     1      -6.064   5.454   1.619  0.00  0.00    -0.302 N 
ATOM     33  C   UNL     1      -6.600   6.729   2.103  0.00  0.00    -0.012 C 
ATOM     34  C   UNL     1      -5.145   4.920   2.634  0.00  0.00    -0.012 C 
ATOM     35  H   UNL     1      -6.846   4.816   1.474  0.00  0.00    +0.000 HD
ENDBRANCH  30  32
ENDBRANCH  15  30
TORSDOF 5
