MODEL 1
REMARK VINA RESULT:    -8.923      0.000      0.000
REMARK INTER + INTRA:         -11.805
REMARK INTER:                 -11.531
REMARK INTRA:                  -0.274
REMARK UNBOUND:                -0.274
REMARK  Name = cpd196.pdb
REMARK  14 active torsions:
REMARK  status: ('A' for Active; 'I' for Inactive)
REMARK    1  A    between atoms: C_1  and  C_2
REMARK    2  A    between atoms: C_2  and  C_32
REMARK    3  A    between atoms: C_3  and  C_4
REMARK    4  A    between atoms: N_6  and  C_7
REMARK    5  A    between atoms: N_6  and  C_8
REMARK    6  A    between atoms: C_11  and  C_12
REMARK    7  A    between atoms: C_20  and  C_21
REMARK    8  A    between atoms: C_22  and  C_23
REMARK    9  A    between atoms: C_23  and  C_24
REMARK   10  A    between atoms: C_23  and  N_25
REMARK   11  A    between atoms: N_25  and  C_26
REMARK   12  A    between atoms: N_25  and  C_27
REMARK   13  A    between atoms: C_32  and  C_33
REMARK   14  A    between atoms: C_32  and  C_34
REMARK                            x       y       z     vdW  Elec       q    Type
REMARK                         _______ _______ _______ _____ _____    ______ ____
ROOT
ATOM      1  C   UNL     1      36.240 -36.761 -30.224  0.00  0.00    +0.026 C 
ATOM      2  C   UNL     1      34.881 -37.450 -30.017  0.00  0.00    -0.034 C 
ATOM      3  C   UNL     1      33.753 -36.743 -30.777  0.00  0.00    -0.045 C 
ATOM      4  C   UNL     1      33.625 -35.229 -30.428  0.00  0.00    -0.026 C 
ATOM      5  C   UNL     1      33.213 -35.120 -28.943  0.00  0.00    -0.059 C 
ATOM      6  C   UNL     1      35.022 -34.584 -30.682  0.00  0.00    -0.034 C 
ATOM      7  C   UNL     1      34.992 -33.073 -30.448  0.00  0.00    -0.049 C 
ATOM      8  C   UNL     1      34.040 -32.412 -31.437  0.00  0.00    -0.049 C 
ATOM      9  C   UNL     1      32.605 -32.981 -31.422  0.00  0.00    -0.034 C 
ATOM     10  C   UNL     1      32.592 -34.533 -31.405  0.00  0.00    -0.032 C 
ATOM     11  C   UNL     1      31.142 -35.039 -31.361  0.00  0.00    -0.049 C 
ATOM     12  C   UNL     1      30.297 -34.452 -30.243  0.00  0.00    -0.043 C 
ATOM     13  C   UNL     1      30.287 -32.918 -30.158  0.00  0.00    -0.006 C 
ATOM     14  C   UNL     1      29.740 -32.536 -28.760  0.00  0.00    -0.056 C 
ATOM     15  C   UNL     1      29.487 -32.181 -31.236  0.00  0.00    -0.051 C 
ATOM     16  C   UNL     1      30.099 -31.023 -31.549  0.00  0.00    -0.082 C 
ATOM     17  C   UNL     1      31.376 -30.835 -30.803  0.00  0.00    -0.031 C 
ATOM     18  C   UNL     1      31.706 -32.280 -30.354  0.00  0.00    -0.025 C 
ATOM     19  C   UNL     1      36.164 -35.257 -29.904  0.00  0.00    -0.031 C 
ENDROOT
BRANCH   1  22
ATOM     20  C   UNL     1      38.693 -37.303 -29.852  0.00  0.00    +0.239 C 
ATOM     21  O   UNL     1      39.630 -37.701 -29.164  0.00  0.00    -0.271 OA
ATOM     22  N   UNL     1      37.352 -37.407 -29.488  0.00  0.00    -0.298 N 
ATOM     23  C   UNL     1      37.072 -37.957 -28.166  0.00  0.00    +0.004 C 
BRANCH  20  26
ATOM     24  C   UNL     1      40.384 -35.960 -33.063  0.00  0.00    -0.043 C 
ATOM     25  C   UNL     1      40.220 -36.523 -31.674  0.00  0.00    -0.065 C 
ATOM     26  C   UNL     1      38.978 -36.698 -31.178  0.00  0.00    -0.000 C 
BRANCH  25  27
ATOM     27  C   UNL     1      41.493 -36.877 -30.909  0.00  0.00    -0.025 C 
ATOM     28  C   UNL     1      42.371 -35.653 -30.628  0.00  0.00    -0.059 C 
ATOM     29  C   UNL     1      42.296 -37.958 -31.636  0.00  0.00    -0.059 C 
ENDBRANCH  25  27
ENDBRANCH  20  26
ENDBRANCH   1  22
BRANCH  15  30
ATOM     30  C   UNL     1      28.169 -32.666 -31.820  0.00  0.00    +0.029 C 
ATOM     31  C   UNL     1      27.052 -31.733 -31.316  0.00  0.00    -0.046 C 
BRANCH  30  32
ATOM     32  N   UNL     1      28.214 -32.741 -33.309  0.00  0.00    -0.302 N 
ATOM     33  C   UNL     1      27.036 -32.153 -33.953  0.00  0.00    -0.012 C 
ATOM     34  C   UNL     1      28.346 -34.133 -33.762  0.00  0.00    -0.012 C 
ATOM     35  H   UNL     1      29.030 -32.197 -33.585  0.00  0.00    +0.000 HD
ENDBRANCH  30  32
ENDBRANCH  15  30
TORSDOF 5
ENDMDL
MODEL 2
REMARK VINA RESULT:    -8.892      1.457      2.819
REMARK INTER + INTRA:         -11.765
REMARK INTER:                 -11.937
REMARK INTRA:                   0.171
REMARK UNBOUND:                -0.274
REMARK  Name = cpd196.pdb
REMARK  14 active torsions:
REMARK  status: ('A' for Active; 'I' for Inactive)
REMARK    1  A    between atoms: C_1  and  C_2
REMARK    2  A    between atoms: C_2  and  C_32
REMARK    3  A    between atoms: C_3  and  C_4
REMARK    4  A    between atoms: N_6  and  C_7
REMARK    5  A    between atoms: N_6  and  C_8
REMARK    6  A    between atoms: C_11  and  C_12
REMARK    7  A    between atoms: C_20  and  C_21
REMARK    8  A    between atoms: C_22  and  C_23
REMARK    9  A    between atoms: C_23  and  C_24
REMARK   10  A    between atoms: C_23  and  N_25
REMARK   11  A    between atoms: N_25  and  C_26
REMARK   12  A    between atoms: N_25  and  C_27
REMARK   13  A    between atoms: C_32  and  C_33
REMARK   14  A    between atoms: C_32  and  C_34
REMARK                            x       y       z     vdW  Elec       q    Type
REMARK                         _______ _______ _______ _____ _____    ______ ____
ROOT
ATOM      1  C   UNL     1      37.538 -36.666 -29.306  0.00  0.00    +0.026 C 
ATOM      2  C   UNL     1      37.356 -36.017 -30.687  0.00  0.00    -0.034 C 
ATOM      3  C   UNL     1      36.281 -34.925 -30.676  0.00  0.00    -0.045 C 
ATOM      4  C   UNL     1      34.899 -35.420 -30.151  0.00  0.00    -0.026 C 
ATOM      5  C   UNL     1      34.365 -36.473 -31.147  0.00  0.00    -0.059 C 
ATOM      6  C   UNL     1      35.145 -36.041 -28.742  0.00  0.00    -0.034 C 
ATOM      7  C   UNL     1      33.836 -36.489 -28.091  0.00  0.00    -0.049 C 
ATOM      8  C   UNL     1      32.928 -35.287 -27.866  0.00  0.00    -0.049 C 
ATOM      9  C   UNL     1      32.634 -34.460 -29.137  0.00  0.00    -0.034 C 
ATOM     10  C   UNL     1      33.917 -34.192 -29.969  0.00  0.00    -0.032 C 
ATOM     11  C   UNL     1      33.559 -33.393 -31.231  0.00  0.00    -0.049 C 
ATOM     12  C   UNL     1      32.451 -34.000 -32.075  0.00  0.00    -0.043 C 
ATOM     13  C   UNL     1      31.156 -34.338 -31.321  0.00  0.00    -0.006 C 
ATOM     14  C   UNL     1      30.335 -35.296 -32.219  0.00  0.00    -0.056 C 
ATOM     15  C   UNL     1      30.279 -33.153 -30.908  0.00  0.00    -0.051 C 
ATOM     16  C   UNL     1      29.688 -33.410 -29.725  0.00  0.00    -0.082 C 
ATOM     17  C   UNL     1      30.099 -34.727 -29.159  0.00  0.00    -0.031 C 
ATOM     18  C   UNL     1      31.410 -35.017 -29.931  0.00  0.00    -0.025 C 
ATOM     19  C   UNL     1      36.197 -37.162 -28.735  0.00  0.00    -0.031 C 
ENDROOT
BRANCH   1  22
ATOM     20  C   UNL     1      39.888 -37.562 -29.653  0.00  0.00    +0.239 C 
ATOM     21  O   UNL     1      40.770 -38.401 -29.490  0.00  0.00    -0.271 OA
ATOM     22  N   UNL     1      38.557 -37.741 -29.283  0.00  0.00    -0.298 N 
ATOM     23  C   UNL     1      38.230 -38.982 -28.589  0.00  0.00    +0.004 C 
BRANCH  20  26
ATOM     24  C   UNL     1      41.514 -34.769 -31.782  0.00  0.00    -0.043 C 
ATOM     25  C   UNL     1      41.308 -36.101 -31.105  0.00  0.00    -0.065 C 
ATOM     26  C   UNL     1      40.228 -36.278 -30.317  0.00  0.00    -0.000 C 
BRANCH  25  27
ATOM     27  C   UNL     1      42.347 -37.187 -31.371  0.00  0.00    -0.025 C 
ATOM     28  C   UNL     1      43.779 -36.709 -31.111  0.00  0.00    -0.059 C 
ATOM     29  C   UNL     1      42.217 -37.745 -32.790  0.00  0.00    -0.059 C 
ENDBRANCH  25  27
ENDBRANCH  20  26
ENDBRANCH   1  22
BRANCH  15  30
ATOM     30  C   UNL     1      30.068 -31.898 -31.742  0.00  0.00    +0.029 C 
ATOM     31  C   UNL     1      28.748 -32.058 -32.519  0.00  0.00    -0.046 C 
BRANCH  30  32
ATOM     32  N   UNL     1      30.086 -30.664 -30.905  0.00  0.00    -0.302 N 
ATOM     33  C   UNL     1      29.484 -29.506 -31.572  0.00  0.00    -0.012 C 
ATOM     34  C   UNL     1      31.458 -30.314 -30.512  0.00  0.00    -0.012 C 
ATOM     35  H   UNL     1      29.524 -30.883 -30.083  0.00  0.00    +0.000 HD
ENDBRANCH  30  32
ENDBRANCH  15  30
TORSDOF 5
ENDMDL
MODEL 3
REMARK VINA RESULT:    -8.802     16.554     19.760
REMARK INTER + INTRA:         -11.649
REMARK INTER:                 -10.377
REMARK INTRA:                  -1.272
REMARK UNBOUND:                -0.274
REMARK  Name = cpd196.pdb
REMARK  14 active torsions:
REMARK  status: ('A' for Active; 'I' for Inactive)
REMARK    1  A    between atoms: C_1  and  C_2
REMARK    2  A    between atoms: C_2  and  C_32
REMARK    3  A    between atoms: C_3  and  C_4
REMARK    4  A    between atoms: N_6  and  C_7
REMARK    5  A    between atoms: N_6  and  C_8
REMARK    6  A    between atoms: C_11  and  C_12
REMARK    7  A    between atoms: C_20  and  C_21
REMARK    8  A    between atoms: C_22  and  C_23
REMARK    9  A    between atoms: C_23  and  C_24
REMARK   10  A    between atoms: C_23  and  N_25
REMARK   11  A    between atoms: N_25  and  C_26
REMARK   12  A    between atoms: N_25  and  C_27
REMARK   13  A    between atoms: C_32  and  C_33
REMARK   14  A    between atoms: C_32  and  C_34
REMARK                            x       y       z     vdW  Elec       q    Type
REMARK                         _______ _______ _______ _____ _____    ______ ____
ROOT
ATOM      1  C   UNL     1      40.298 -20.414 -35.392  0.00  0.00    +0.026 C 
ATOM      2  C   UNL     1      40.218 -21.202 -36.709  0.00  0.00    -0.034 C 
ATOM      3  C   UNL     1      41.596 -21.393 -37.353  0.00  0.00    -0.045 C 
ATOM      4  C   UNL     1      42.357 -20.054 -37.596  0.00  0.00    -0.026 C 
ATOM      5  C   UNL     1      41.558 -19.239 -38.636  0.00  0.00    -0.059 C 
ATOM      6  C   UNL     1      42.428 -19.317 -36.224  0.00  0.00    -0.034 C 
ATOM      7  C   UNL     1      43.231 -18.020 -36.326  0.00  0.00    -0.049 C 
ATOM      8  C   UNL     1      44.672 -18.329 -36.710  0.00  0.00    -0.049 C 
ATOM      9  C   UNL     1      44.827 -19.153 -38.006  0.00  0.00    -0.034 C 
ATOM     10  C   UNL     1      43.842 -20.352 -38.057  0.00  0.00    -0.032 C 
ATOM     11  C   UNL     1      44.021 -21.115 -39.378  0.00  0.00    -0.049 C 
ATOM     12  C   UNL     1      43.933 -20.254 -40.627  0.00  0.00    -0.043 C 
ATOM     13  C   UNL     1      44.845 -19.018 -40.643  0.00  0.00    -0.006 C 
ATOM     14  C   UNL     1      44.327 -18.076 -41.759  0.00  0.00    -0.056 C 
ATOM     15  C   UNL     1      46.340 -19.276 -40.850  0.00  0.00    -0.051 C 
ATOM     16  C   UNL     1      47.062 -18.389 -40.139  0.00  0.00    -0.082 C 
ATOM     17  C   UNL     1      46.203 -17.471 -39.338  0.00  0.00    -0.031 C 
ATOM     18  C   UNL     1      44.864 -18.247 -39.278  0.00  0.00    -0.025 C 
ATOM     19  C   UNL     1      41.054 -19.086 -35.574  0.00  0.00    -0.031 C 
ENDROOT
BRANCH   1  22
ATOM     20  C   UNL     1      38.612 -20.735 -33.520  0.00  0.00    +0.239 C 
ATOM     21  O   UNL     1      37.590 -20.432 -32.909  0.00  0.00    -0.271 OA
ATOM     22  N   UNL     1      38.981 -20.194 -34.750  0.00  0.00    -0.298 N 
ATOM     23  C   UNL     1      38.120 -19.148 -35.291  0.00  0.00    +0.004 C 
BRANCH  20  26
ATOM     24  C   UNL     1      40.381 -24.041 -32.561  0.00  0.00    -0.043 C 
ATOM     25  C   UNL     1      39.360 -23.091 -33.136  0.00  0.00    -0.065 C 
ATOM     26  C   UNL     1      39.516 -21.765 -32.947  0.00  0.00    -0.000 C 
BRANCH  25  27
ATOM     27  C   UNL     1      38.200 -23.703 -33.919  0.00  0.00    -0.025 C 
ATOM     28  C   UNL     1      37.671 -24.990 -33.279  0.00  0.00    -0.059 C 
ATOM     29  C   UNL     1      38.586 -23.950 -35.379  0.00  0.00    -0.059 C 
ENDBRANCH  25  27
ENDBRANCH  20  26
ENDBRANCH   1  22
BRANCH  15  30
ATOM     30  C   UNL     1      46.916 -20.345 -41.767  0.00  0.00    +0.029 C 
ATOM     31  C   UNL     1      48.217 -19.795 -42.382  0.00  0.00    -0.046 C 
BRANCH  30  32
ATOM     32  N   UNL     1      47.130 -21.636 -41.053  0.00  0.00    -0.302 N 
ATOM     33  C   UNL     1      48.546 -21.961 -40.858  0.00  0.00    -0.012 C 
ATOM     34  C   UNL     1      46.493 -22.748 -41.774  0.00  0.00    -0.012 C 
ATOM     35  H   UNL     1      46.704 -21.514 -40.135  0.00  0.00    +0.000 HD
ENDBRANCH  30  32
ENDBRANCH  15  30
TORSDOF 5
ENDMDL
MODEL 4
REMARK VINA RESULT:    -8.077     16.639     18.674
REMARK INTER + INTRA:         -10.712
REMARK INTER:                  -9.487
REMARK INTRA:                  -1.225
REMARK UNBOUND:                -0.274
REMARK  Name = cpd196.pdb
REMARK  14 active torsions:
REMARK  status: ('A' for Active; 'I' for Inactive)
REMARK    1  A    between atoms: C_1  and  C_2
REMARK    2  A    between atoms: C_2  and  C_32
REMARK    3  A    between atoms: C_3  and  C_4
REMARK    4  A    between atoms: N_6  and  C_7
REMARK    5  A    between atoms: N_6  and  C_8
REMARK    6  A    between atoms: C_11  and  C_12
REMARK    7  A    between atoms: C_20  and  C_21
REMARK    8  A    between atoms: C_22  and  C_23
REMARK    9  A    between atoms: C_23  and  C_24
REMARK   10  A    between atoms: C_23  and  N_25
REMARK   11  A    between atoms: N_25  and  C_26
REMARK   12  A    between atoms: N_25  and  C_27
REMARK   13  A    between atoms: C_32  and  C_33
REMARK   14  A    between atoms: C_32  and  C_34
REMARK                            x       y       z     vdW  Elec       q    Type
REMARK                         _______ _______ _______ _____ _____    ______ ____
ROOT
ATOM      1  C   UNL     1      44.948 -18.959 -38.867  0.00  0.00    +0.026 C 
ATOM      2  C   UNL     1      45.226 -19.488 -37.451  0.00  0.00    -0.034 C 
ATOM      3  C   UNL     1      44.052 -20.304 -36.898  0.00  0.00    -0.045 C 
ATOM      4  C   UNL     1      42.700 -19.527 -36.905  0.00  0.00    -0.026 C 
ATOM      5  C   UNL     1      42.833 -18.338 -35.928  0.00  0.00    -0.059 C 
ATOM      6  C   UNL     1      42.463 -19.041 -38.368  0.00  0.00    -0.034 C 
ATOM      7  C   UNL     1      41.116 -18.333 -38.511  0.00  0.00    -0.049 C 
ATOM      8  C   UNL     1      39.982 -19.303 -38.204  0.00  0.00    -0.049 C 
ATOM      9  C   UNL     1      40.079 -19.984 -36.822  0.00  0.00    -0.034 C 
ATOM     10  C   UNL     1      41.513 -20.503 -36.526  0.00  0.00    -0.032 C 
ATOM     11  C   UNL     1      41.555 -21.143 -35.130  0.00  0.00    -0.049 C 
ATOM     12  C   UNL     1      41.028 -20.262 -34.011  0.00  0.00    -0.043 C 
ATOM     13  C   UNL     1      39.630 -19.668 -34.239  0.00  0.00    -0.006 C 
ATOM     14  C   UNL     1      39.449 -18.509 -33.228  0.00  0.00    -0.056 C 
ATOM     15  C   UNL     1      38.450 -20.637 -34.118  0.00  0.00    -0.051 C 
ATOM     16  C   UNL     1      37.490 -20.302 -35.000  0.00  0.00    -0.082 C 
ATOM     17  C   UNL     1      37.879 -19.141 -35.850  0.00  0.00    -0.031 C 
ATOM     18  C   UNL     1      39.420 -19.127 -35.695  0.00  0.00    -0.025 C 
ATOM     19  C   UNL     1      43.614 -18.193 -38.932  0.00  0.00    -0.031 C 
ENDROOT
BRANCH   1  22
ATOM     20  C   UNL     1      46.405 -18.131 -40.775  0.00  0.00    +0.239 C 
ATOM     21  O   UNL     1      47.213 -17.349 -41.271  0.00  0.00    -0.271 OA
ATOM     22  N   UNL     1      46.055 -18.149 -39.427  0.00  0.00    -0.298 N 
ATOM     23  C   UNL     1      46.642 -17.113 -38.583  0.00  0.00    +0.004 C 
BRANCH  20  26
ATOM     24  C   UNL     1      45.406 -21.410 -42.572  0.00  0.00    -0.043 C 
ATOM     25  C   UNL     1      46.173 -20.442 -41.707  0.00  0.00    -0.065 C 
ATOM     26  C   UNL     1      45.769 -19.157 -41.642  0.00  0.00    -0.000 C 
BRANCH  25  27
ATOM     27  C   UNL     1      47.371 -20.991 -40.937  0.00  0.00    -0.025 C 
ATOM     28  C   UNL     1      48.400 -21.666 -41.850  0.00  0.00    -0.059 C 
ATOM     29  C   UNL     1      46.927 -21.950 -39.830  0.00  0.00    -0.059 C 
ENDBRANCH  25  27
ENDBRANCH  20  26
ENDBRANCH   1  22
BRANCH  15  30
ATOM     30  C   UNL     1      38.361 -21.773 -33.109  0.00  0.00    +0.029 C 
ATOM     31  C   UNL     1      36.902 -21.869 -32.627  0.00  0.00    -0.046 C 
BRANCH  30  32
ATOM     32  N   UNL     1      38.855 -23.061 -33.676  0.00  0.00    -0.302 N 
ATOM     33  C   UNL     1      37.825 -24.102 -33.727  0.00  0.00    -0.012 C 
ATOM     34  C   UNL     1      39.996 -23.572 -32.903  0.00  0.00    -0.012 C 
ATOM     35  H   UNL     1      39.138 -22.848 -34.632  0.00  0.00    +0.000 HD
ENDBRANCH  30  32
ENDBRANCH  15  30
TORSDOF 5
ENDMDL
MODEL 5
REMARK VINA RESULT:    -8.036      3.407     10.029
REMARK INTER + INTRA:         -10.659
REMARK INTER:                  -9.113
REMARK INTRA:                  -1.546
REMARK UNBOUND:                -0.274
REMARK  Name = cpd196.pdb
REMARK  14 active torsions:
REMARK  status: ('A' for Active; 'I' for Inactive)
REMARK    1  A    between atoms: C_1  and  C_2
REMARK    2  A    between atoms: C_2  and  C_32
REMARK    3  A    between atoms: C_3  and  C_4
REMARK    4  A    between atoms: N_6  and  C_7
REMARK    5  A    between atoms: N_6  and  C_8
REMARK    6  A    between atoms: C_11  and  C_12
REMARK    7  A    between atoms: C_20  and  C_21
REMARK    8  A    between atoms: C_22  and  C_23
REMARK    9  A    between atoms: C_23  and  C_24
REMARK   10  A    between atoms: C_23  and  N_25
REMARK   11  A    between atoms: N_25  and  C_26
REMARK   12  A    between atoms: N_25  and  C_27
REMARK   13  A    between atoms: C_32  and  C_33
REMARK   14  A    between atoms: C_32  and  C_34
REMARK                            x       y       z     vdW  Elec       q    Type
REMARK                         _______ _______ _______ _____ _____    ______ ____
ROOT
ATOM      1  C   UNL     1      29.286 -30.470 -31.101  0.00  0.00    +0.026 C 
ATOM      2  C   UNL     1      30.468 -30.083 -30.198  0.00  0.00    -0.034 C 
ATOM      3  C   UNL     1      31.777 -30.745 -30.643  0.00  0.00    -0.045 C 
ATOM      4  C   UNL     1      31.684 -32.299 -30.737  0.00  0.00    -0.026 C 
ATOM      5  C   UNL     1      31.444 -32.845 -29.313  0.00  0.00    -0.059 C 
ATOM      6  C   UNL     1      30.489 -32.625 -31.684  0.00  0.00    -0.034 C 
ATOM      7  C   UNL     1      30.355 -34.130 -31.917  0.00  0.00    -0.049 C 
ATOM      8  C   UNL     1      31.599 -34.662 -32.616  0.00  0.00    -0.049 C 
ATOM      9  C   UNL     1      32.925 -34.354 -31.886  0.00  0.00    -0.034 C 
ATOM     10  C   UNL     1      32.997 -32.879 -31.405  0.00  0.00    -0.032 C 
ATOM     11  C   UNL     1      34.321 -32.640 -30.663  0.00  0.00    -0.049 C 
ATOM     12  C   UNL     1      34.604 -33.620 -29.537  0.00  0.00    -0.043 C 
ATOM     13  C   UNL     1      34.511 -35.106 -29.914  0.00  0.00    -0.006 C 
ATOM     14  C   UNL     1      34.418 -35.913 -28.595  0.00  0.00    -0.056 C 
ATOM     15  C   UNL     1      35.651 -35.663 -30.771  0.00  0.00    -0.051 C 
ATOM     16  C   UNL     1      35.173 -36.590 -31.623  0.00  0.00    -0.082 C 
ATOM     17  C   UNL     1      33.695 -36.754 -31.513  0.00  0.00    -0.031 C 
ATOM     18  C   UNL     1      33.273 -35.437 -30.816  0.00  0.00    -0.025 C 
ATOM     19  C   UNL     1      29.158 -31.998 -31.239  0.00  0.00    -0.031 C 
ENDROOT
BRANCH   1  22
ATOM     20  C   UNL     1      27.119 -29.230 -31.565  0.00  0.00    +0.239 C 
ATOM     21  O   UNL     1      25.985 -28.865 -31.263  0.00  0.00    -0.271 OA
ATOM     22  N   UNL     1      27.999 -29.863 -30.689  0.00  0.00    -0.298 N 
ATOM     23  C   UNL     1      27.490 -30.169 -29.356  0.00  0.00    +0.004 C 
BRANCH  20  26
ATOM     24  C   UNL     1      27.911 -29.369 -35.350  0.00  0.00    -0.043 C 
ATOM     25  C   UNL     1      27.411 -29.779 -33.988  0.00  0.00    -0.065 C 
ATOM     26  C   UNL     1      27.622 -28.962 -32.937  0.00  0.00    -0.000 C 
BRANCH  25  27
ATOM     27  C   UNL     1      26.672 -31.112 -33.888  0.00  0.00    -0.025 C 
ATOM     28  C   UNL     1      27.428 -32.257 -34.570  0.00  0.00    -0.059 C 
ATOM     29  C   UNL     1      25.250 -31.002 -34.443  0.00  0.00    -0.059 C 
ENDBRANCH  25  27
ENDBRANCH  20  26
ENDBRANCH   1  22
BRANCH  15  30
ATOM     30  C   UNL     1      37.113 -35.263 -30.636  0.00  0.00    +0.029 C 
ATOM     31  C   UNL     1      37.901 -36.495 -30.151  0.00  0.00    -0.046 C 
BRANCH  30  32
ATOM     32  N   UNL     1      37.659 -34.708 -31.908  0.00  0.00    -0.302 N 
ATOM     33  C   UNL     1      38.927 -35.323 -32.309  0.00  0.00    -0.012 C 
ATOM     34  C   UNL     1      37.857 -33.255 -31.805  0.00  0.00    -0.012 C 
ATOM     35  H   UNL     1      36.962 -34.924 -32.621  0.00  0.00    +0.000 HD
ENDBRANCH  30  32
ENDBRANCH  15  30
TORSDOF 5
ENDMDL
MODEL 6
REMARK VINA RESULT:    -7.767     17.145     19.130
REMARK INTER + INTRA:         -10.311
REMARK INTER:                  -8.878
REMARK INTRA:                  -1.433
REMARK UNBOUND:                -0.274
REMARK  Name = cpd196.pdb
REMARK  14 active torsions:
REMARK  status: ('A' for Active; 'I' for Inactive)
REMARK    1  A    between atoms: C_1  and  C_2
REMARK    2  A    between atoms: C_2  and  C_32
REMARK    3  A    between atoms: C_3  and  C_4
REMARK    4  A    between atoms: N_6  and  C_7
REMARK    5  A    between atoms: N_6  and  C_8
REMARK    6  A    between atoms: C_11  and  C_12
REMARK    7  A    between atoms: C_20  and  C_21
REMARK    8  A    between atoms: C_22  and  C_23
REMARK    9  A    between atoms: C_23  and  C_24
REMARK   10  A    between atoms: C_23  and  N_25
REMARK   11  A    between atoms: N_25  and  C_26
REMARK   12  A    between atoms: N_25  and  C_27
REMARK   13  A    between atoms: C_32  and  C_33
REMARK   14  A    between atoms: C_32  and  C_34
REMARK                            x       y       z     vdW  Elec       q    Type
REMARK                         _______ _______ _______ _____ _____    ______ ____
ROOT
ATOM      1  C   UNL     1      44.617 -19.023 -39.138  0.00  0.00    +0.026 C 
ATOM      2  C   UNL     1      43.223 -19.384 -39.675  0.00  0.00    -0.034 C 
ATOM      3  C   UNL     1      42.125 -19.163 -38.629  0.00  0.00    -0.045 C 
ATOM      4  C   UNL     1      42.379 -19.926 -37.293  0.00  0.00    -0.026 C 
ATOM      5  C   UNL     1      42.320 -21.440 -37.596  0.00  0.00    -0.059 C 
ATOM      6  C   UNL     1      43.791 -19.499 -36.788  0.00  0.00    -0.034 C 
ATOM      7  C   UNL     1      44.114 -20.128 -35.432  0.00  0.00    -0.049 C 
ATOM      8  C   UNL     1      43.127 -19.636 -34.381  0.00  0.00    -0.049 C 
ATOM      9  C   UNL     1      41.643 -19.873 -34.736  0.00  0.00    -0.034 C 
ATOM     10  C   UNL     1      41.323 -19.476 -36.203  0.00  0.00    -0.032 C 
ATOM     11  C   UNL     1      39.844 -19.760 -36.506  0.00  0.00    -0.049 C 
ATOM     12  C   UNL     1      39.390 -21.174 -36.188  0.00  0.00    -0.043 C 
ATOM     13  C   UNL     1      39.706 -21.667 -34.768  0.00  0.00    -0.006 C 
ATOM     14  C   UNL     1      39.554 -23.208 -34.768  0.00  0.00    -0.056 C 
ATOM     15  C   UNL     1      38.861 -21.073 -33.637  0.00  0.00    -0.051 C 
ATOM     16  C   UNL     1      39.612 -20.933 -32.528  0.00  0.00    -0.082 C 
ATOM     17  C   UNL     1      41.028 -21.342 -32.746  0.00  0.00    -0.031 C 
ATOM     18  C   UNL     1      41.149 -21.286 -34.289  0.00  0.00    -0.025 C 
ATOM     19  C   UNL     1      44.913 -19.742 -37.810  0.00  0.00    -0.031 C 
ENDROOT
BRANCH   1  22
ATOM     20  C   UNL     1      46.348 -18.220 -40.813  0.00  0.00    +0.239 C 
ATOM     21  O   UNL     1      47.352 -18.377 -41.504  0.00  0.00    -0.271 OA
ATOM     22  N   UNL     1      45.707 -19.243 -40.118  0.00  0.00    -0.298 N 
ATOM     23  C   UNL     1      46.329 -20.561 -40.168  0.00  0.00    +0.004 C 
BRANCH  20  26
ATOM     24  C   UNL     1      45.496 -14.557 -39.899  0.00  0.00    -0.043 C 
ATOM     25  C   UNL     1      46.143 -15.918 -39.853  0.00  0.00    -0.065 C 
ATOM     26  C   UNL     1      45.740 -16.868 -40.721  0.00  0.00    -0.000 C 
BRANCH  25  27
ATOM     27  C   UNL     1      47.244 -16.134 -38.817  0.00  0.00    -0.025 C 
ATOM     28  C   UNL     1      46.688 -16.453 -37.425  0.00  0.00    -0.059 C 
ATOM     29  C   UNL     1      48.189 -14.932 -38.753  0.00  0.00    -0.059 C 
ENDBRANCH  25  27
ENDBRANCH  20  26
ENDBRANCH   1  22
BRANCH  15  30
ATOM     30  C   UNL     1      37.379 -20.745 -33.744  0.00  0.00    +0.029 C 
ATOM     31  C   UNL     1      36.654 -21.425 -32.567  0.00  0.00    -0.046 C 
BRANCH  30  32
ATOM     32  N   UNL     1      37.135 -19.274 -33.783  0.00  0.00    -0.302 N 
ATOM     33  C   UNL     1      36.379 -18.783 -32.628  0.00  0.00    -0.012 C 
ATOM     34  C   UNL     1      36.416 -18.893 -35.007  0.00  0.00    -0.012 C 
ATOM     35  H   UNL     1      38.059 -18.844 -33.763  0.00  0.00    +0.000 HD
ENDBRANCH  30  32
ENDBRANCH  15  30
TORSDOF 5
ENDMDL
MODEL 7
REMARK VINA RESULT:    -7.749     16.742     20.172
REMARK INTER + INTRA:         -10.288
REMARK INTER:                  -9.275
REMARK INTRA:                  -1.013
REMARK UNBOUND:                -0.274
REMARK  Name = cpd196.pdb
REMARK  14 active torsions:
REMARK  status: ('A' for Active; 'I' for Inactive)
REMARK    1  A    between atoms: C_1  and  C_2
REMARK    2  A    between atoms: C_2  and  C_32
REMARK    3  A    between atoms: C_3  and  C_4
REMARK    4  A    between atoms: N_6  and  C_7
REMARK    5  A    between atoms: N_6  and  C_8
REMARK    6  A    between atoms: C_11  and  C_12
REMARK    7  A    between atoms: C_20  and  C_21
REMARK    8  A    between atoms: C_22  and  C_23
REMARK    9  A    between atoms: C_23  and  C_24
REMARK   10  A    between atoms: C_23  and  N_25
REMARK   11  A    between atoms: N_25  and  C_26
REMARK   12  A    between atoms: N_25  and  C_27
REMARK   13  A    between atoms: C_32  and  C_33
REMARK   14  A    between atoms: C_32  and  C_34
REMARK                            x       y       z     vdW  Elec       q    Type
REMARK                         _______ _______ _______ _____ _____    ______ ____
ROOT
ATOM      1  C   UNL     1      39.271 -19.850 -36.700  0.00  0.00    +0.026 C 
ATOM      2  C   UNL     1      39.280 -19.948 -38.234  0.00  0.00    -0.034 C 
ATOM      3  C   UNL     1      40.567 -20.588 -38.765  0.00  0.00    -0.045 C 
ATOM      4  C   UNL     1      41.863 -19.866 -38.285  0.00  0.00    -0.026 C 
ATOM      5  C   UNL     1      41.863 -18.445 -38.891  0.00  0.00    -0.059 C 
ATOM      6  C   UNL     1      41.807 -19.822 -36.727  0.00  0.00    -0.034 C 
ATOM      7  C   UNL     1      43.076 -19.204 -36.139  0.00  0.00    -0.049 C 
ATOM      8  C   UNL     1      44.284 -20.061 -36.490  0.00  0.00    -0.049 C 
ATOM      9  C   UNL     1      44.470 -20.318 -38.002  0.00  0.00    -0.034 C 
ATOM     10  C   UNL     1      43.137 -20.710 -38.695  0.00  0.00    -0.032 C 
ATOM     11  C   UNL     1      43.378 -20.924 -40.197  0.00  0.00    -0.049 C 
ATOM     12  C   UNL     1      44.065 -19.767 -40.902  0.00  0.00    -0.043 C 
ATOM     13  C   UNL     1      45.373 -19.283 -40.257  0.00  0.00    -0.006 C 
ATOM     14  C   UNL     1      45.690 -17.886 -40.846  0.00  0.00    -0.056 C 
ATOM     15  C   UNL     1      46.593 -20.193 -40.424  0.00  0.00    -0.051 C 
ATOM     16  C   UNL     1      47.361 -20.139 -39.320  0.00  0.00    -0.082 C 
ATOM     17  C   UNL     1      46.776 -19.264 -38.264  0.00  0.00    -0.031 C 
ATOM     18  C   UNL     1      45.290 -19.184 -38.695  0.00  0.00    -0.025 C 
ATOM     19  C   UNL     1      40.539 -19.154 -36.172  0.00  0.00    -0.031 C 
ENDROOT
BRANCH   1  22
ATOM     20  C   UNL     1      37.455 -19.584 -34.945  0.00  0.00    +0.239 C 
ATOM     21  O   UNL     1      36.539 -18.965 -34.408  0.00  0.00    -0.271 OA
ATOM     22  N   UNL     1      38.049 -19.218 -36.151  0.00  0.00    -0.298 N 
ATOM     23  C   UNL     1      37.588 -17.974 -36.758  0.00  0.00    +0.004 C 
BRANCH  20  26
ATOM     24  C   UNL     1      39.374 -22.169 -32.797  0.00  0.00    -0.043 C 
ATOM     25  C   UNL     1      38.994 -20.859 -33.439  0.00  0.00    -0.065 C 
ATOM     26  C   UNL     1      37.960 -20.825 -34.304  0.00  0.00    -0.000 C 
BRANCH  25  27
ATOM     27  C   UNL     1      39.813 -19.629 -33.053  0.00  0.00    -0.025 C 
ATOM     28  C   UNL     1      41.267 -19.971 -32.715  0.00  0.00    -0.059 C 
ATOM     29  C   UNL     1      39.159 -18.867 -31.898  0.00  0.00    -0.059 C 
ENDBRANCH  25  27
ENDBRANCH  20  26
ENDBRANCH   1  22
BRANCH  15  30
ATOM     30  C   UNL     1      46.910 -20.995 -41.678  0.00  0.00    +0.029 C 
ATOM     31  C   UNL     1      48.341 -20.637 -42.123  0.00  0.00    -0.046 C 
BRANCH  30  32
ATOM     32  N   UNL     1      46.736 -22.460 -41.462  0.00  0.00    -0.302 N 
ATOM     33  C   UNL     1      47.943 -23.116 -40.952  0.00  0.00    -0.012 C 
ATOM     34  C   UNL     1      46.332 -23.130 -42.706  0.00  0.00    -0.012 C 
ATOM     35  H   UNL     1      46.006 -22.547 -40.756  0.00  0.00    +0.000 HD
ENDBRANCH  30  32
ENDBRANCH  15  30
TORSDOF 5
ENDMDL
MODEL 8
REMARK VINA RESULT:    -7.726      3.307      9.234
REMARK INTER + INTRA:         -10.259
REMARK INTER:                  -9.648
REMARK INTRA:                  -0.611
REMARK UNBOUND:                -0.274
REMARK  Name = cpd196.pdb
REMARK  14 active torsions:
REMARK  status: ('A' for Active; 'I' for Inactive)
REMARK    1  A    between atoms: C_1  and  C_2
REMARK    2  A    between atoms: C_2  and  C_32
REMARK    3  A    between atoms: C_3  and  C_4
REMARK    4  A    between atoms: N_6  and  C_7
REMARK    5  A    between atoms: N_6  and  C_8
REMARK    6  A    between atoms: C_11  and  C_12
REMARK    7  A    between atoms: C_20  and  C_21
REMARK    8  A    between atoms: C_22  and  C_23
REMARK    9  A    between atoms: C_23  and  C_24
REMARK   10  A    between atoms: C_23  and  N_25
REMARK   11  A    between atoms: N_25  and  C_26
REMARK   12  A    between atoms: N_25  and  C_27
REMARK   13  A    between atoms: C_32  and  C_33
REMARK   14  A    between atoms: C_32  and  C_34
REMARK                            x       y       z     vdW  Elec       q    Type
REMARK                         _______ _______ _______ _____ _____    ______ ____
ROOT
ATOM      1  C   UNL     1      30.859 -31.126 -29.358  0.00  0.00    +0.026 C 
ATOM      2  C   UNL     1      30.452 -32.489 -28.776  0.00  0.00    -0.034 C 
ATOM      3  C   UNL     1      31.668 -33.342 -28.397  0.00  0.00    -0.045 C 
ATOM      4  C   UNL     1      32.665 -33.559 -29.576  0.00  0.00    -0.026 C 
ATOM      5  C   UNL     1      31.940 -34.386 -30.661  0.00  0.00    -0.059 C 
ATOM      6  C   UNL     1      33.059 -32.145 -30.104  0.00  0.00    -0.034 C 
ATOM      7  C   UNL     1      34.104 -32.234 -31.216  0.00  0.00    -0.049 C 
ATOM      8  C   UNL     1      35.387 -32.852 -30.677  0.00  0.00    -0.049 C 
ATOM      9  C   UNL     1      35.203 -34.232 -30.010  0.00  0.00    -0.034 C 
ATOM     10  C   UNL     1      33.984 -34.258 -29.049  0.00  0.00    -0.032 C 
ATOM     11  C   UNL     1      33.833 -35.660 -28.440  0.00  0.00    -0.049 C 
ATOM     12  C   UNL     1      33.782 -36.791 -29.452  0.00  0.00    -0.043 C 
ATOM     13  C   UNL     1      34.930 -36.817 -30.473  0.00  0.00    -0.006 C 
ATOM     14  C   UNL     1      34.495 -37.747 -31.633  0.00  0.00    -0.056 C 
ATOM     15  C   UNL     1      36.297 -37.264 -29.949  0.00  0.00    -0.051 C 
ATOM     16  C   UNL     1      37.274 -36.581 -30.576  0.00  0.00    -0.082 C 
ATOM     17  C   UNL     1      36.737 -35.577 -31.538  0.00  0.00    -0.031 C 
ATOM     18  C   UNL     1      35.280 -35.400 -31.044  0.00  0.00    -0.025 C 
ATOM     19  C   UNL     1      31.856 -31.283 -30.521  0.00  0.00    -0.031 C 
ENDROOT
BRANCH   1  22
ATOM     20  C   UNL     1      28.879 -30.552 -30.840  0.00  0.00    +0.239 C 
ATOM     21  O   UNL     1      27.835 -29.949 -31.081  0.00  0.00    -0.271 OA
ATOM     22  N   UNL     1      29.709 -30.281 -29.754  0.00  0.00    -0.298 N 
ATOM     23  C   UNL     1      29.249 -29.263 -28.815  0.00  0.00    +0.004 C 
BRANCH  20  26
ATOM     24  C   UNL     1      29.227 -33.810 -32.898  0.00  0.00    -0.043 C 
ATOM     25  C   UNL     1      28.729 -32.827 -31.869  0.00  0.00    -0.065 C 
ATOM     26  C   UNL     1      29.325 -31.622 -31.769  0.00  0.00    -0.000 C 
BRANCH  25  27
ATOM     27  C   UNL     1      27.552 -33.263 -31.000  0.00  0.00    -0.025 C 
ATOM     28  C   UNL     1      27.765 -34.642 -30.367  0.00  0.00    -0.059 C 
ATOM     29  C   UNL     1      26.239 -33.232 -31.786  0.00  0.00    -0.059 C 
ENDBRANCH  25  27
ENDBRANCH  20  26
ENDBRANCH   1  22
BRANCH  15  30
ATOM     30  C   UNL     1      36.514 -38.356 -28.912  0.00  0.00    +0.029 C 
ATOM     31  C   UNL     1      36.575 -37.691 -27.524  0.00  0.00    -0.046 C 
BRANCH  30  32
ATOM     32  N   UNL     1      35.463 -39.412 -28.987  0.00  0.00    -0.302 N 
ATOM     33  C   UNL     1      34.891 -39.750 -27.681  0.00  0.00    -0.012 C 
ATOM     34  C   UNL     1      35.994 -40.640 -29.595  0.00  0.00    -0.012 C 
ATOM     35  H   UNL     1      34.722 -39.018 -29.565  0.00  0.00    +0.000 HD
ENDBRANCH  30  32
ENDBRANCH  15  30
TORSDOF 5
ENDMDL
MODEL 9
REMARK VINA RESULT:    -7.524      2.470      4.700
REMARK INTER + INTRA:          -9.997
REMARK INTER:                  -8.603
REMARK INTRA:                  -1.394
REMARK UNBOUND:                -0.274
REMARK  Name = cpd196.pdb
REMARK  14 active torsions:
REMARK  status: ('A' for Active; 'I' for Inactive)
REMARK    1  A    between atoms: C_1  and  C_2
REMARK    2  A    between atoms: C_2  and  C_32
REMARK    3  A    between atoms: C_3  and  C_4
REMARK    4  A    between atoms: N_6  and  C_7
REMARK    5  A    between atoms: N_6  and  C_8
REMARK    6  A    between atoms: C_11  and  C_12
REMARK    7  A    between atoms: C_20  and  C_21
REMARK    8  A    between atoms: C_22  and  C_23
REMARK    9  A    between atoms: C_23  and  C_24
REMARK   10  A    between atoms: C_23  and  N_25
REMARK   11  A    between atoms: N_25  and  C_26
REMARK   12  A    between atoms: N_25  and  C_27
REMARK   13  A    between atoms: C_32  and  C_33
REMARK   14  A    between atoms: C_32  and  C_34
REMARK                            x       y       z     vdW  Elec       q    Type
REMARK                         _______ _______ _______ _____ _____    ______ ____
ROOT
ATOM      1  C   UNL     1      35.209 -34.766 -29.862  0.00  0.00    +0.026 C 
ATOM      2  C   UNL     1      35.218 -33.286 -30.274  0.00  0.00    -0.034 C 
ATOM      3  C   UNL     1      33.961 -32.546 -29.802  0.00  0.00    -0.045 C 
ATOM      4  C   UNL     1      32.635 -33.209 -30.282  0.00  0.00    -0.026 C 
ATOM      5  C   UNL     1      32.585 -33.103 -31.823  0.00  0.00    -0.059 C 
ATOM      6  C   UNL     1      32.674 -34.696 -29.813  0.00  0.00    -0.034 C 
ATOM      7  C   UNL     1      31.377 -35.427 -30.161  0.00  0.00    -0.049 C 
ATOM      8  C   UNL     1      30.206 -34.788 -29.427  0.00  0.00    -0.049 C 
ATOM      9  C   UNL     1      30.044 -33.273 -29.676  0.00  0.00    -0.034 C 
ATOM     10  C   UNL     1      31.397 -32.518 -29.579  0.00  0.00    -0.032 C 
ATOM     11  C   UNL     1      31.179 -31.024 -29.864  0.00  0.00    -0.049 C 
ATOM     12  C   UNL     1      30.454 -30.724 -31.164  0.00  0.00    -0.043 C 
ATOM     13  C   UNL     1      29.123 -31.464 -31.365  0.00  0.00    -0.006 C 
ATOM     14  C   UNL     1      28.758 -31.360 -32.867  0.00  0.00    -0.056 C 
ATOM     15  C   UNL     1      27.940 -30.981 -30.521  0.00  0.00    -0.051 C 
ATOM     16  C   UNL     1      27.161 -32.026 -30.183  0.00  0.00    -0.082 C 
ATOM     17  C   UNL     1      27.702 -33.323 -30.681  0.00  0.00    -0.031 C 
ATOM     18  C   UNL     1      29.187 -32.974 -30.948  0.00  0.00    -0.025 C 
ATOM     19  C   UNL     1      33.911 -35.467 -30.303  0.00  0.00    -0.031 C 
ENDROOT
BRANCH   1  22
ATOM     20  C   UNL     1      36.943 -36.608 -29.641  0.00  0.00    +0.239 C 
ATOM     21  O   UNL     1      37.830 -37.331 -30.089  0.00  0.00    -0.271 OA
ATOM     22  N   UNL     1      36.401 -35.518 -30.319  0.00  0.00    -0.298 N 
ATOM     23  C   UNL     1      36.880 -35.287 -31.678  0.00  0.00    +0.004 C 
BRANCH  20  26
ATOM     24  C   UNL     1      35.106 -38.046 -26.553  0.00  0.00    -0.043 C 
ATOM     25  C   UNL     1      35.512 -37.825 -27.989  0.00  0.00    -0.065 C 
ATOM     26  C   UNL     1      36.420 -36.871 -28.276  0.00  0.00    -0.000 C 
BRANCH  25  27
ATOM     27  C   UNL     1      34.866 -38.721 -29.043  0.00  0.00    -0.025 C 
ATOM     28  C   UNL     1      33.350 -38.851 -28.857  0.00  0.00    -0.059 C 
ATOM     29  C   UNL     1      35.523 -40.103 -29.075  0.00  0.00    -0.059 C 
ENDBRANCH  25  27
ENDBRANCH  20  26
ENDBRANCH   1  22
BRANCH  15  30
ATOM     30  C   UNL     1      27.665 -29.527 -30.166  0.00  0.00    +0.029 C 
ATOM     31  C   UNL     1      26.598 -28.993 -31.141  0.00  0.00    -0.046 C 
BRANCH  30  32
ATOM     32  N   UNL     1      27.258 -29.368 -28.741  0.00  0.00    -0.302 N 
ATOM     33  C   UNL     1      26.701 -28.046 -28.443  0.00  0.00    -0.012 C 
ATOM     34  C   UNL     1      28.394 -29.609 -27.840  0.00  0.00    -0.012 C 
ATOM     35  H   UNL     1      26.527 -30.062 -28.587  0.00  0.00    +0.000 HD
ENDBRANCH  30  32
ENDBRANCH  15  30
TORSDOF 5
ENDMDL
MODEL 10
REMARK VINA RESULT:    -7.512     16.494     18.580
REMARK INTER + INTRA:          -9.982
REMARK INTER:                  -9.314
REMARK INTRA:                  -0.668
REMARK UNBOUND:                -0.274
REMARK  Name = cpd196.pdb
REMARK  14 active torsions:
REMARK  status: ('A' for Active; 'I' for Inactive)
REMARK    1  A    between atoms: C_1  and  C_2
REMARK    2  A    between atoms: C_2  and  C_32
REMARK    3  A    between atoms: C_3  and  C_4
REMARK    4  A    between atoms: N_6  and  C_7
REMARK    5  A    between atoms: N_6  and  C_8
REMARK    6  A    between atoms: C_11  and  C_12
REMARK    7  A    between atoms: C_20  and  C_21
REMARK    8  A    between atoms: C_22  and  C_23
REMARK    9  A    between atoms: C_23  and  C_24
REMARK   10  A    between atoms: C_23  and  N_25
REMARK   11  A    between atoms: N_25  and  C_26
REMARK   12  A    between atoms: N_25  and  C_27
REMARK   13  A    between atoms: C_32  and  C_33
REMARK   14  A    between atoms: C_32  and  C_34
REMARK                            x       y       z     vdW  Elec       q    Type
REMARK                         _______ _______ _______ _____ _____    ______ ____
ROOT
ATOM      1  C   UNL     1      44.885 -17.914 -38.370  0.00  0.00    +0.026 C 
ATOM      2  C   UNL     1      43.479 -17.915 -38.991  0.00  0.00    -0.034 C 
ATOM      3  C   UNL     1      42.378 -18.010 -37.928  0.00  0.00    -0.045 C 
ATOM      4  C   UNL     1      42.529 -19.243 -36.987  0.00  0.00    -0.026 C 
ATOM      5  C   UNL     1      42.346 -20.516 -37.842  0.00  0.00    -0.059 C 
ATOM      6  C   UNL     1      43.960 -19.170 -36.370  0.00  0.00    -0.034 C 
ATOM      7  C   UNL     1      44.191 -20.294 -35.359  0.00  0.00    -0.049 C 
ATOM      8  C   UNL     1      43.225 -20.151 -34.191  0.00  0.00    -0.049 C 
ATOM      9  C   UNL     1      41.735 -20.098 -34.595  0.00  0.00    -0.034 C 
ATOM     10  C   UNL     1      41.489 -19.147 -35.797  0.00  0.00    -0.032 C 
ATOM     11  C   UNL     1      39.999 -19.158 -36.171  0.00  0.00    -0.049 C 
ATOM     12  C   UNL     1      39.415 -20.540 -36.412  0.00  0.00    -0.043 C 
ATOM     13  C   UNL     1      39.649 -21.561 -35.289  0.00  0.00    -0.006 C 
ATOM     14  C   UNL     1      39.363 -22.966 -35.875  0.00  0.00    -0.056 C 
ATOM     15  C   UNL     1      38.831 -21.368 -34.010  0.00  0.00    -0.051 C 
ATOM     16  C   UNL     1      39.562 -21.728 -32.938  0.00  0.00    -0.082 C 
ATOM     17  C   UNL     1      40.943 -22.151 -33.309  0.00  0.00    -0.031 C 
ATOM     18  C   UNL     1      41.108 -21.524 -34.715  0.00  0.00    -0.025 C 
ATOM     19  C   UNL     1      45.082 -19.108 -37.418  0.00  0.00    -0.031 C 
ENDROOT
BRANCH   1  22
ATOM     20  C   UNL     1      45.902 -18.396 -40.646  0.00  0.00    +0.239 C 
ATOM     21  O   UNL     1      46.733 -18.208 -41.531  0.00  0.00    -0.271 OA
ATOM     22  N   UNL     1      45.976 -17.843 -39.369  0.00  0.00    -0.298 N 
ATOM     23  C   UNL     1      47.081 -16.925 -39.115  0.00  0.00    +0.004 C 
BRANCH  20  26
ATOM     24  C   UNL     1      43.602 -21.447 -41.258  0.00  0.00    -0.043 C 
ATOM     25  C   UNL     1      44.853 -20.630 -41.052  0.00  0.00    -0.065 C 
ATOM     26  C   UNL     1      44.750 -19.293 -40.918  0.00  0.00    -0.000 C 
BRANCH  25  27
ATOM     27  C   UNL     1      46.178 -21.386 -40.994  0.00  0.00    -0.025 C 
ATOM     28  C   UNL     1      46.237 -22.550 -41.989  0.00  0.00    -0.059 C 
ATOM     29  C   UNL     1      46.476 -21.878 -39.576  0.00  0.00    -0.059 C 
ENDBRANCH  25  27
ENDBRANCH  20  26
ENDBRANCH   1  22
BRANCH  15  30
ATOM     30  C   UNL     1      37.386 -20.890 -33.969  0.00  0.00    +0.029 C 
ATOM     31  C   UNL     1      36.709 -21.526 -32.740  0.00  0.00    -0.046 C 
BRANCH  30  32
ATOM     32  N   UNL     1      37.291 -19.402 -33.959  0.00  0.00    -0.302 N 
ATOM     33  C   UNL     1      36.888 -18.857 -32.660  0.00  0.00    -0.012 C 
ATOM     34  C   UNL     1      36.343 -18.929 -34.977  0.00  0.00    -0.012 C 
ATOM     35  H   UNL     1      38.232 -19.068 -34.165  0.00  0.00    +0.000 HD
ENDBRANCH  30  32
ENDBRANCH  15  30
TORSDOF 5
ENDMDL
MODEL 11
REMARK VINA RESULT:    -7.441      4.881      8.171
REMARK INTER + INTRA:          -9.890
REMARK INTER:                 -10.095
REMARK INTRA:                   0.205
REMARK UNBOUND:                -0.274
REMARK  Name = cpd196.pdb
REMARK  14 active torsions:
REMARK  status: ('A' for Active; 'I' for Inactive)
REMARK    1  A    between atoms: C_1  and  C_2
REMARK    2  A    between atoms: C_2  and  C_32
REMARK    3  A    between atoms: C_3  and  C_4
REMARK    4  A    between atoms: N_6  and  C_7
REMARK    5  A    between atoms: N_6  and  C_8
REMARK    6  A    between atoms: C_11  and  C_12
REMARK    7  A    between atoms: C_20  and  C_21
REMARK    8  A    between atoms: C_22  and  C_23
REMARK    9  A    between atoms: C_23  and  C_24
REMARK   10  A    between atoms: C_23  and  N_25
REMARK   11  A    between atoms: N_25  and  C_26
REMARK   12  A    between atoms: N_25  and  C_27
REMARK   13  A    between atoms: C_32  and  C_33
REMARK   14  A    between atoms: C_32  and  C_34
REMARK                            x       y       z     vdW  Elec       q    Type
REMARK                         _______ _______ _______ _____ _____    ______ ____
ROOT
ATOM      1  C   UNL     1      36.648 -36.820 -29.451  0.00  0.00    +0.026 C 
ATOM      2  C   UNL     1      35.448 -36.509 -28.542  0.00  0.00    -0.034 C 
ATOM      3  C   UNL     1      35.084 -37.694 -27.641  0.00  0.00    -0.045 C 
ATOM      4  C   UNL     1      34.809 -39.011 -28.429  0.00  0.00    -0.026 C 
ATOM      5  C   UNL     1      33.551 -38.789 -29.296  0.00  0.00    -0.059 C 
ATOM      6  C   UNL     1      36.068 -39.285 -29.308  0.00  0.00    -0.034 C 
ATOM      7  C   UNL     1      35.943 -40.605 -30.068  0.00  0.00    -0.049 C 
ATOM      8  C   UNL     1      35.859 -41.766 -29.086  0.00  0.00    -0.049 C 
ATOM      9  C   UNL     1      34.725 -41.643 -28.045  0.00  0.00    -0.034 C 
ATOM     10  C   UNL     1      34.656 -40.223 -27.422  0.00  0.00    -0.032 C 
ATOM     11  C   UNL     1      33.494 -40.153 -26.419  0.00  0.00    -0.049 C 
ATOM     12  C   UNL     1      32.150 -40.597 -26.971  0.00  0.00    -0.043 C 
ATOM     13  C   UNL     1      32.136 -41.976 -27.647  0.00  0.00    -0.006 C 
ATOM     14  C   UNL     1      30.837 -42.067 -28.485  0.00  0.00    -0.056 C 
ATOM     15  C   UNL     1      32.227 -43.190 -26.718  0.00  0.00    -0.051 C 
ATOM     16  C   UNL     1      32.935 -44.170 -27.313  0.00  0.00    -0.082 C 
ATOM     17  C   UNL     1      33.451 -43.766 -28.652  0.00  0.00    -0.031 C 
ATOM     18  C   UNL     1      33.374 -42.221 -28.576  0.00  0.00    -0.025 C 
ATOM     19  C   UNL     1      36.433 -38.122 -30.244  0.00  0.00    -0.031 C 
ENDROOT
BRANCH   1  22
ATOM     20  C   UNL     1      38.218 -35.632 -31.055  0.00  0.00    +0.239 C 
ATOM     21  O   UNL     1      38.465 -34.794 -31.919  0.00  0.00    -0.271 OA
ATOM     22  N   UNL     1      37.018 -35.702 -30.351  0.00  0.00    -0.298 N 
ATOM     23  C   UNL     1      35.975 -34.758 -30.736  0.00  0.00    +0.004 C 
BRANCH  20  26
ATOM     24  C   UNL     1      41.456 -37.738 -30.830  0.00  0.00    -0.043 C 
ATOM     25  C   UNL     1      40.446 -36.737 -31.329  0.00  0.00    -0.065 C 
ATOM     26  C   UNL     1      39.261 -36.625 -30.694  0.00  0.00    -0.000 C 
BRANCH  25  27
ATOM     27  C   UNL     1      40.841 -35.888 -32.535  0.00  0.00    -0.025 C 
ATOM     28  C   UNL     1      41.044 -36.724 -33.803  0.00  0.00    -0.059 C 
ATOM     29  C   UNL     1      42.088 -35.050 -32.240  0.00  0.00    -0.059 C 
ENDBRANCH  25  27
ENDBRANCH  20  26
ENDBRANCH   1  22
BRANCH  15  30
ATOM     30  C   UNL     1      31.568 -43.287 -25.350  0.00  0.00    +0.029 C 
ATOM     31  C   UNL     1      32.630 -42.956 -24.285  0.00  0.00    -0.046 C 
BRANCH  30  32
ATOM     32  N   UNL     1      30.369 -42.407 -25.246  0.00  0.00    -0.302 N 
ATOM     33  C   UNL     1      30.299 -41.674 -23.979  0.00  0.00    -0.012 C 
ATOM     34  C   UNL     1      29.131 -43.184 -25.404  0.00  0.00    -0.012 C 
ATOM     35  H   UNL     1      30.463 -41.728 -26.001  0.00  0.00    +0.000 HD
ENDBRANCH  30  32
ENDBRANCH  15  30
TORSDOF 5
ENDMDL
MODEL 12
REMARK VINA RESULT:    -7.420     19.131     21.326
REMARK INTER + INTRA:          -9.862
REMARK INTER:                  -8.398
REMARK INTRA:                  -1.465
REMARK UNBOUND:                -0.274
REMARK  Name = cpd196.pdb
REMARK  14 active torsions:
REMARK  status: ('A' for Active; 'I' for Inactive)
REMARK    1  A    between atoms: C_1  and  C_2
REMARK    2  A    between atoms: C_2  and  C_32
REMARK    3  A    between atoms: C_3  and  C_4
REMARK    4  A    between atoms: N_6  and  C_7
REMARK    5  A    between atoms: N_6  and  C_8
REMARK    6  A    between atoms: C_11  and  C_12
REMARK    7  A    between atoms: C_20  and  C_21
REMARK    8  A    between atoms: C_22  and  C_23
REMARK    9  A    between atoms: C_23  and  C_24
REMARK   10  A    between atoms: C_23  and  N_25
REMARK   11  A    between atoms: N_25  and  C_26
REMARK   12  A    between atoms: N_25  and  C_27
REMARK   13  A    between atoms: C_32  and  C_33
REMARK   14  A    between atoms: C_32  and  C_34
REMARK                            x       y       z     vdW  Elec       q    Type
REMARK                         _______ _______ _______ _____ _____    ______ ____
ROOT
ATOM      1  C   UNL     1      43.526 -19.448 -39.504  0.00  0.00    +0.026 C 
ATOM      2  C   UNL     1      42.590 -18.233 -39.410  0.00  0.00    -0.034 C 
ATOM      3  C   UNL     1      43.089 -17.195 -38.398  0.00  0.00    -0.045 C 
ATOM      4  C   UNL     1      43.320 -17.782 -36.972  0.00  0.00    -0.026 C 
ATOM      5  C   UNL     1      41.950 -18.230 -36.418  0.00  0.00    -0.059 C 
ATOM      6  C   UNL     1      44.294 -18.990 -37.131  0.00  0.00    -0.034 C 
ATOM      7  C   UNL     1      44.659 -19.596 -35.776  0.00  0.00    -0.049 C 
ATOM      8  C   UNL     1      45.400 -18.570 -34.929  0.00  0.00    -0.049 C 
ATOM      9  C   UNL     1      44.644 -17.239 -34.728  0.00  0.00    -0.034 C 
ATOM     10  C   UNL     1      44.034 -16.709 -36.054  0.00  0.00    -0.032 C 
ATOM     11  C   UNL     1      43.272 -15.402 -35.788  0.00  0.00    -0.049 C 
ATOM     12  C   UNL     1      42.236 -15.484 -34.680  0.00  0.00    -0.043 C 
ATOM     13  C   UNL     1      42.743 -16.041 -33.341  0.00  0.00    -0.006 C 
ATOM     14  C   UNL     1      41.501 -16.430 -32.502  0.00  0.00    -0.056 C 
ATOM     15  C   UNL     1      43.644 -15.117 -32.517  0.00  0.00    -0.051 C 
ATOM     16  C   UNL     1      44.575 -15.843 -31.870  0.00  0.00    -0.082 C 
ATOM     17  C   UNL     1      44.483 -17.297 -32.185  0.00  0.00    -0.031 C 
ATOM     18  C   UNL     1      43.673 -17.292 -33.506  0.00  0.00    -0.025 C 
ATOM     19  C   UNL     1      43.798 -20.059 -38.118  0.00  0.00    -0.031 C 
ENDROOT
BRANCH   1  22
ATOM     20  C   UNL     1      43.828 -20.957 -41.524  0.00  0.00    +0.239 C 
ATOM     21  O   UNL     1      43.518 -21.919 -42.223  0.00  0.00    -0.271 OA
ATOM     22  N   UNL     1      43.064 -20.482 -40.460  0.00  0.00    -0.298 N 
ATOM     23  C   UNL     1      41.863 -21.239 -40.126  0.00  0.00    +0.004 C 
BRANCH  20  26
ATOM     24  C   UNL     1      47.506 -19.801 -41.858  0.00  0.00    -0.043 C 
ATOM     25  C   UNL     1      46.302 -20.599 -41.424  0.00  0.00    -0.065 C 
ATOM     26  C   UNL     1      45.076 -20.214 -41.833  0.00  0.00    -0.000 C 
BRANCH  25  27
ATOM     27  C   UNL     1      46.554 -21.822 -40.546  0.00  0.00    -0.025 C 
ATOM     28  C   UNL     1      47.133 -21.454 -39.176  0.00  0.00    -0.059 C 
ATOM     29  C   UNL     1      47.454 -22.838 -41.253  0.00  0.00    -0.059 C 
ENDBRANCH  25  27
ENDBRANCH  20  26
ENDBRANCH   1  22
BRANCH  15  30
ATOM     30  C   UNL     1      43.472 -13.609 -32.408  0.00  0.00    +0.029 C 
ATOM     31  C   UNL     1      43.303 -13.255 -30.918  0.00  0.00    -0.046 C 
BRANCH  30  32
ATOM     32  N   UNL     1      44.603 -12.872 -33.040  0.00  0.00    -0.302 N 
ATOM     33  C   UNL     1      45.174 -11.837 -32.173  0.00  0.00    -0.012 C 
ATOM     34  C   UNL     1      44.183 -12.244 -34.300  0.00  0.00    -0.012 C 
ATOM     35  H   UNL     1      45.323 -13.573 -33.212  0.00  0.00    +0.000 HD
ENDBRANCH  30  32
ENDBRANCH  15  30
TORSDOF 5
ENDMDL
MODEL 13
REMARK VINA RESULT:    -7.389     16.478     19.675
REMARK INTER + INTRA:          -9.823
REMARK INTER:                  -9.030
REMARK INTRA:                  -0.793
REMARK UNBOUND:                -0.274
REMARK  Name = cpd196.pdb
REMARK  14 active torsions:
REMARK  status: ('A' for Active; 'I' for Inactive)
REMARK    1  A    between atoms: C_1  and  C_2
REMARK    2  A    between atoms: C_2  and  C_32
REMARK    3  A    between atoms: C_3  and  C_4
REMARK    4  A    between atoms: N_6  and  C_7
REMARK    5  A    between atoms: N_6  and  C_8
REMARK    6  A    between atoms: C_11  and  C_12
REMARK    7  A    between atoms: C_20  and  C_21
REMARK    8  A    between atoms: C_22  and  C_23
REMARK    9  A    between atoms: C_23  and  C_24
REMARK   10  A    between atoms: C_23  and  N_25
REMARK   11  A    between atoms: N_25  and  C_26
REMARK   12  A    between atoms: N_25  and  C_27
REMARK   13  A    between atoms: C_32  and  C_33
REMARK   14  A    between atoms: C_32  and  C_34
REMARK                            x       y       z     vdW  Elec       q    Type
REMARK                         _______ _______ _______ _____ _____    ______ ____
ROOT
ATOM      1  C   UNL     1      40.114 -22.245 -34.576  0.00  0.00    +0.026 C 
ATOM      2  C   UNL     1      39.869 -21.949 -36.064  0.00  0.00    -0.034 C 
ATOM      3  C   UNL     1      41.179 -21.804 -36.848  0.00  0.00    -0.045 C 
ATOM      4  C   UNL     1      42.140 -20.728 -36.256  0.00  0.00    -0.026 C 
ATOM      5  C   UNL     1      41.453 -19.352 -36.401  0.00  0.00    -0.059 C 
ATOM      6  C   UNL     1      42.369 -21.098 -34.759  0.00  0.00    -0.034 C 
ATOM      7  C   UNL     1      43.368 -20.150 -34.095  0.00  0.00    -0.049 C 
ATOM      8  C   UNL     1      44.728 -20.272 -34.768  0.00  0.00    -0.049 C 
ATOM      9  C   UNL     1      44.710 -20.040 -36.295  0.00  0.00    -0.034 C 
ATOM     10  C   UNL     1      43.542 -20.795 -36.986  0.00  0.00    -0.032 C 
ATOM     11  C   UNL     1      43.558 -20.504 -38.495  0.00  0.00    -0.049 C 
ATOM     12  C   UNL     1      43.574 -19.029 -38.858  0.00  0.00    -0.043 C 
ATOM     13  C   UNL     1      44.673 -18.194 -38.183  0.00  0.00    -0.006 C 
ATOM     14  C   UNL     1      44.283 -16.704 -38.338  0.00  0.00    -0.056 C 
ATOM     15  C   UNL     1      46.100 -18.402 -38.699  0.00  0.00    -0.051 C 
ATOM     16  C   UNL     1      46.976 -18.289 -37.682  0.00  0.00    -0.082 C 
ATOM     17  C   UNL     1      46.301 -18.051 -36.375  0.00  0.00    -0.031 C 
ATOM     18  C   UNL     1      44.857 -18.529 -36.663  0.00  0.00    -0.025 C 
ATOM     19  C   UNL     1      41.070 -21.216 -33.945  0.00  0.00    -0.031 C 
ENDROOT
BRANCH   1  22
ATOM     20  C   UNL     1      38.107 -21.290 -33.349  0.00  0.00    +0.239 C 
ATOM     21  O   UNL     1      36.997 -21.389 -32.829  0.00  0.00    -0.271 OA
ATOM     22  N   UNL     1      38.869 -22.372 -33.782  0.00  0.00    -0.298 N 
ATOM     23  C   UNL     1      38.258 -23.692 -33.671  0.00  0.00    +0.004 C 
BRANCH  20  26
ATOM     24  C   UNL     1      38.956 -17.679 -34.452  0.00  0.00    -0.043 C 
ATOM     25  C   UNL     1      38.314 -19.043 -34.431  0.00  0.00    -0.065 C 
ATOM     26  C   UNL     1      38.711 -19.943 -33.507  0.00  0.00    -0.000 C 
BRANCH  25  27
ATOM     27  C   UNL     1      37.227 -19.320 -35.466  0.00  0.00    -0.025 C 
ATOM     28  C   UNL     1      37.673 -18.985 -36.893  0.00  0.00    -0.059 C 
ATOM     29  C   UNL     1      35.931 -18.580 -35.122  0.00  0.00    -0.059 C 
ENDBRANCH  25  27
ENDBRANCH  20  26
ENDBRANCH   1  22
BRANCH  15  30
ATOM     30  C   UNL     1      46.468 -18.646 -40.155  0.00  0.00    +0.029 C 
ATOM     31  C   UNL     1      47.097 -17.354 -40.710  0.00  0.00    -0.046 C 
BRANCH  30  32
ATOM     32  N   UNL     1      47.368 -19.825 -40.312  0.00  0.00    -0.302 N 
ATOM     33  C   UNL     1      47.618 -20.178 -41.712  0.00  0.00    -0.012 C 
ATOM     34  C   UNL     1      46.816 -21.002 -39.627  0.00  0.00    -0.012 C 
ATOM     35  H   UNL     1      48.254 -19.549 -39.891  0.00  0.00    +0.000 HD
ENDBRANCH  30  32
ENDBRANCH  15  30
TORSDOF 5
ENDMDL
MODEL 14
REMARK VINA RESULT:    -7.329      2.290      4.035
REMARK INTER + INTRA:          -9.745
REMARK INTER:                  -8.343
REMARK INTRA:                  -1.402
REMARK UNBOUND:                -0.274
REMARK  Name = cpd196.pdb
REMARK  14 active torsions:
REMARK  status: ('A' for Active; 'I' for Inactive)
REMARK    1  A    between atoms: C_1  and  C_2
REMARK    2  A    between atoms: C_2  and  C_32
REMARK    3  A    between atoms: C_3  and  C_4
REMARK    4  A    between atoms: N_6  and  C_7
REMARK    5  A    between atoms: N_6  and  C_8
REMARK    6  A    between atoms: C_11  and  C_12
REMARK    7  A    between atoms: C_20  and  C_21
REMARK    8  A    between atoms: C_22  and  C_23
REMARK    9  A    between atoms: C_23  and  C_24
REMARK   10  A    between atoms: C_23  and  N_25
REMARK   11  A    between atoms: N_25  and  C_26
REMARK   12  A    between atoms: N_25  and  C_27
REMARK   13  A    between atoms: C_32  and  C_33
REMARK   14  A    between atoms: C_32  and  C_34
REMARK                            x       y       z     vdW  Elec       q    Type
REMARK                         _______ _______ _______ _____ _____    ______ ____
ROOT
ATOM      1  C   UNL     1      35.169 -36.097 -30.112  0.00  0.00    +0.026 C 
ATOM      2  C   UNL     1      34.821 -35.282 -28.856  0.00  0.00    -0.034 C 
ATOM      3  C   UNL     1      33.324 -34.966 -28.768  0.00  0.00    -0.045 C 
ATOM      4  C   UNL     1      32.769 -34.237 -30.030  0.00  0.00    -0.026 C 
ATOM      5  C   UNL     1      33.448 -32.852 -30.111  0.00  0.00    -0.059 C 
ATOM      6  C   UNL     1      33.129 -35.123 -31.262  0.00  0.00    -0.034 C 
ATOM      7  C   UNL     1      32.558 -34.542 -32.555  0.00  0.00    -0.049 C 
ATOM      8  C   UNL     1      31.037 -34.517 -32.488  0.00  0.00    -0.049 C 
ATOM      9  C   UNL     1      30.462 -33.765 -31.269  0.00  0.00    -0.034 C 
ATOM     10  C   UNL     1      31.191 -34.144 -29.952  0.00  0.00    -0.032 C 
ATOM     11  C   UNL     1      30.597 -33.345 -28.781  0.00  0.00    -0.049 C 
ATOM     12  C   UNL     1      30.555 -31.842 -28.994  0.00  0.00    -0.043 C 
ATOM     13  C   UNL     1      29.888 -31.377 -30.298  0.00  0.00    -0.006 C 
ATOM     14  C   UNL     1      30.302 -29.902 -30.529  0.00  0.00    -0.056 C 
ATOM     15  C   UNL     1      28.363 -31.493 -30.361  0.00  0.00    -0.051 C 
ATOM     16  C   UNL     1      27.978 -31.805 -31.613  0.00  0.00    -0.082 C 
ATOM     17  C   UNL     1      29.136 -31.993 -32.533  0.00  0.00    -0.031 C 
ATOM     18  C   UNL     1      30.302 -32.235 -31.543  0.00  0.00    -0.025 C 
ATOM     19  C   UNL     1      34.631 -35.425 -31.388  0.00  0.00    -0.031 C 
ENDROOT
BRANCH   1  22
ATOM     20  C   UNL     1      37.176 -37.644 -29.941  0.00  0.00    +0.239 C 
ATOM     21  O   UNL     1      38.338 -37.954 -30.192  0.00  0.00    -0.271 OA
ATOM     22  N   UNL     1      36.613 -36.405 -30.240  0.00  0.00    -0.298 N 
ATOM     23  C   UNL     1      37.454 -35.460 -30.966  0.00  0.00    +0.004 C 
BRANCH  20  26
ATOM     24  C   UNL     1      34.742 -40.521 -29.064  0.00  0.00    -0.043 C 
ATOM     25  C   UNL     1      35.535 -39.532 -29.879  0.00  0.00    -0.065 C 
ATOM     26  C   UNL     1      36.302 -38.622 -29.244  0.00  0.00    -0.000 C 
BRANCH  25  27
ATOM     27  C   UNL     1      35.429 -39.633 -31.399  0.00  0.00    -0.025 C 
ATOM     28  C   UNL     1      34.126 -39.034 -31.940  0.00  0.00    -0.059 C 
ATOM     29  C   UNL     1      35.589 -41.080 -31.872  0.00  0.00    -0.059 C 
ENDBRANCH  25  27
ENDBRANCH  20  26
ENDBRANCH   1  22
BRANCH  15  30
ATOM     30  C   UNL     1      27.425 -31.237 -29.191  0.00  0.00    +0.029 C 
ATOM     31  C   UNL     1      26.333 -30.257 -29.661  0.00  0.00    -0.046 C 
BRANCH  30  32
ATOM     32  N   UNL     1      26.853 -32.502 -28.648  0.00  0.00    -0.302 N 
ATOM     33  C   UNL     1      25.427 -32.666 -28.945  0.00  0.00    -0.012 C 
ATOM     34  C   UNL     1      27.037 -32.580 -27.192  0.00  0.00    -0.012 C 
ATOM     35  H   UNL     1      27.361 -33.253 -29.114  0.00  0.00    +0.000 HD
ENDBRANCH  30  32
ENDBRANCH  15  30
TORSDOF 5
ENDMDL
MODEL 15
REMARK VINA RESULT:    -7.311      3.942     10.150
REMARK INTER + INTRA:          -9.721
REMARK INTER:                  -8.389
REMARK INTRA:                  -1.332
REMARK UNBOUND:                -0.274
REMARK  Name = cpd196.pdb
REMARK  14 active torsions:
REMARK  status: ('A' for Active; 'I' for Inactive)
REMARK    1  A    between atoms: C_1  and  C_2
REMARK    2  A    between atoms: C_2  and  C_32
REMARK    3  A    between atoms: C_3  and  C_4
REMARK    4  A    between atoms: N_6  and  C_7
REMARK    5  A    between atoms: N_6  and  C_8
REMARK    6  A    between atoms: C_11  and  C_12
REMARK    7  A    between atoms: C_20  and  C_21
REMARK    8  A    between atoms: C_22  and  C_23
REMARK    9  A    between atoms: C_23  and  C_24
REMARK   10  A    between atoms: C_23  and  N_25
REMARK   11  A    between atoms: N_25  and  C_26
REMARK   12  A    between atoms: N_25  and  C_27
REMARK   13  A    between atoms: C_32  and  C_33
REMARK   14  A    between atoms: C_32  and  C_34
REMARK                            x       y       z     vdW  Elec       q    Type
REMARK                         _______ _______ _______ _____ _____    ______ ____
ROOT
ATOM      1  C   UNL     1      29.556 -30.602 -29.839  0.00  0.00    +0.026 C 
ATOM      2  C   UNL     1      29.019 -32.042 -29.848  0.00  0.00    -0.034 C 
ATOM      3  C   UNL     1      30.024 -33.037 -29.256  0.00  0.00    -0.045 C 
ATOM      4  C   UNL     1      31.418 -33.000 -29.953  0.00  0.00    -0.026 C 
ATOM      5  C   UNL     1      31.228 -33.469 -31.413  0.00  0.00    -0.059 C 
ATOM      6  C   UNL     1      31.918 -31.524 -29.888  0.00  0.00    -0.034 C 
ATOM      7  C   UNL     1      33.324 -31.384 -30.474  0.00  0.00    -0.049 C 
ATOM      8  C   UNL     1      34.314 -32.198 -29.652  0.00  0.00    -0.049 C 
ATOM      9  C   UNL     1      33.948 -33.691 -29.503  0.00  0.00    -0.034 C 
ATOM     10  C   UNL     1      32.449 -33.892 -29.150  0.00  0.00    -0.032 C 
ATOM     11  C   UNL     1      32.138 -35.392 -29.043  0.00  0.00    -0.049 C 
ATOM     12  C   UNL     1      32.552 -36.215 -30.252  0.00  0.00    -0.043 C 
ATOM     13  C   UNL     1      34.012 -36.044 -30.699  0.00  0.00    -0.006 C 
ATOM     14  C   UNL     1      34.124 -36.610 -32.137  0.00  0.00    -0.056 C 
ATOM     15  C   UNL     1      35.077 -36.694 -29.812  0.00  0.00    -0.051 C 
ATOM     16  C   UNL     1      36.187 -35.933 -29.795  0.00  0.00    -0.082 C 
ATOM     17  C   UNL     1      36.030 -34.681 -30.590  0.00  0.00    -0.031 C 
ATOM     18  C   UNL     1      34.490 -34.551 -30.689  0.00  0.00    -0.025 C 
ATOM     19  C   UNL     1      30.941 -30.512 -30.506  0.00  0.00    -0.031 C 
ENDROOT
BRANCH   1  22
ATOM     20  C   UNL     1      27.995 -28.605 -29.691  0.00  0.00    +0.239 C 
ATOM     21  O   UNL     1      27.344 -27.690 -30.191  0.00  0.00    -0.271 OA
ATOM     22  N   UNL     1      28.619 -29.614 -30.422  0.00  0.00    -0.298 N 
ATOM     23  C   UNL     1      28.543 -29.514 -31.875  0.00  0.00    +0.004 C 
BRANCH  20  26
ATOM     24  C   UNL     1      27.517 -29.423 -25.939  0.00  0.00    -0.043 C 
ATOM     25  C   UNL     1      27.256 -29.358 -27.423  0.00  0.00    -0.065 C 
ATOM     26  C   UNL     1      28.114 -28.681 -28.213  0.00  0.00    -0.000 C 
BRANCH  25  27
ATOM     27  C   UNL     1      26.021 -30.086 -27.947  0.00  0.00    -0.025 C 
ATOM     28  C   UNL     1      24.713 -29.452 -27.463  0.00  0.00    -0.059 C 
ATOM     29  C   UNL     1      26.059 -31.574 -27.588  0.00  0.00    -0.059 C 
ENDBRANCH  25  27
ENDBRANCH  20  26
ENDBRANCH   1  22
BRANCH  15  30
ATOM     30  C   UNL     1      34.916 -38.031 -29.103  0.00  0.00    +0.029 C 
ATOM     31  C   UNL     1      36.291 -38.724 -29.075  0.00  0.00    -0.046 C 
BRANCH  30  32
ATOM     32  N   UNL     1      34.337 -37.871 -27.738  0.00  0.00    -0.302 N 
ATOM     33  C   UNL     1      35.353 -37.764 -26.688  0.00  0.00    -0.012 C 
ATOM     34  C   UNL     1      33.445 -38.993 -27.411  0.00  0.00    -0.012 C 
ATOM     35  H   UNL     1      33.814 -36.995 -27.764  0.00  0.00    +0.000 HD
ENDBRANCH  30  32
ENDBRANCH  15  30
TORSDOF 5
ENDMDL
MODEL 16
REMARK VINA RESULT:    -7.242     16.205     18.265
REMARK INTER + INTRA:          -9.632
REMARK INTER:                  -8.387
REMARK INTRA:                  -1.245
REMARK UNBOUND:                -0.274
REMARK  Name = cpd196.pdb
REMARK  14 active torsions:
REMARK  status: ('A' for Active; 'I' for Inactive)
REMARK    1  A    between atoms: C_1  and  C_2
REMARK    2  A    between atoms: C_2  and  C_32
REMARK    3  A    between atoms: C_3  and  C_4
REMARK    4  A    between atoms: N_6  and  C_7
REMARK    5  A    between atoms: N_6  and  C_8
REMARK    6  A    between atoms: C_11  and  C_12
REMARK    7  A    between atoms: C_20  and  C_21
REMARK    8  A    between atoms: C_22  and  C_23
REMARK    9  A    between atoms: C_23  and  C_24
REMARK   10  A    between atoms: C_23  and  N_25
REMARK   11  A    between atoms: N_25  and  C_26
REMARK   12  A    between atoms: N_25  and  C_27
REMARK   13  A    between atoms: C_32  and  C_33
REMARK   14  A    between atoms: C_32  and  C_34
REMARK                            x       y       z     vdW  Elec       q    Type
REMARK                         _______ _______ _______ _____ _____    ______ ____
ROOT
ATOM      1  C   UNL     1      42.865 -20.619 -38.785  0.00  0.00    +0.026 C 
ATOM      2  C   UNL     1      42.204 -19.247 -38.997  0.00  0.00    -0.034 C 
ATOM      3  C   UNL     1      41.577 -18.703 -37.709  0.00  0.00    -0.045 C 
ATOM      4  C   UNL     1      40.548 -19.678 -37.060  0.00  0.00    -0.026 C 
ATOM      5  C   UNL     1      39.358 -19.825 -38.034  0.00  0.00    -0.059 C 
ATOM      6  C   UNL     1      41.282 -21.037 -36.848  0.00  0.00    -0.034 C 
ATOM      7  C   UNL     1      40.387 -22.052 -36.137  0.00  0.00    -0.049 C 
ATOM      8  C   UNL     1      40.030 -21.547 -34.745  0.00  0.00    -0.049 C 
ATOM      9  C   UNL     1      39.373 -20.150 -34.720  0.00  0.00    -0.034 C 
ATOM     10  C   UNL     1      40.114 -19.140 -35.637  0.00  0.00    -0.032 C 
ATOM     11  C   UNL     1      39.400 -17.780 -35.593  0.00  0.00    -0.049 C 
ATOM     12  C   UNL     1      37.912 -17.833 -35.894  0.00  0.00    -0.043 C 
ATOM     13  C   UNL     1      37.106 -18.841 -35.060  0.00  0.00    -0.006 C 
ATOM     14  C   UNL     1      35.745 -19.045 -35.772  0.00  0.00    -0.056 C 
ATOM     15  C   UNL     1      36.861 -18.471 -33.595  0.00  0.00    -0.051 C 
ATOM     16  C   UNL     1      36.874 -19.582 -32.834  0.00  0.00    -0.082 C 
ATOM     17  C   UNL     1      37.167 -20.810 -33.626  0.00  0.00    -0.031 C 
ATOM     18  C   UNL     1      37.823 -20.225 -34.901  0.00  0.00    -0.025 C 
ATOM     19  C   UNL     1      41.892 -21.619 -38.133  0.00  0.00    -0.031 C 
ENDROOT
BRANCH   1  22
ATOM     20  C   UNL     1      44.827 -21.442 -40.171  0.00  0.00    +0.239 C 
ATOM     21  O   UNL     1      45.311 -22.053 -41.121  0.00  0.00    -0.271 OA
ATOM     22  N   UNL     1      43.466 -21.186 -40.015  0.00  0.00    -0.298 N 
ATOM     23  C   UNL     1      42.572 -21.757 -41.016  0.00  0.00    +0.004 C 
BRANCH  20  26
ATOM     24  C   UNL     1      47.232 -19.250 -38.077  0.00  0.00    -0.043 C 
ATOM     25  C   UNL     1      46.394 -19.732 -39.235  0.00  0.00    -0.065 C 
ATOM     26  C   UNL     1      45.731 -20.901 -39.125  0.00  0.00    -0.000 C 
BRANCH  25  27
ATOM     27  C   UNL     1      46.339 -18.842 -40.475  0.00  0.00    -0.025 C 
ATOM     28  C   UNL     1      47.448 -19.166 -41.481  0.00  0.00    -0.059 C 
ATOM     29  C   UNL     1      46.375 -17.360 -40.096  0.00  0.00    -0.059 C 
ENDBRANCH  25  27
ENDBRANCH  20  26
ENDBRANCH   1  22
BRANCH  15  30
ATOM     30  C   UNL     1      36.592 -17.062 -33.089  0.00  0.00    +0.029 C 
ATOM     31  C   UNL     1      35.088 -16.947 -32.776  0.00  0.00    -0.046 C 
BRANCH  30  32
ATOM     32  N   UNL     1      37.441 -16.720 -31.912  0.00  0.00    -0.302 N 
ATOM     33  C   UNL     1      36.895 -15.626 -31.104  0.00  0.00    -0.012 C 
ATOM     34  C   UNL     1      38.800 -16.353 -32.333  0.00  0.00    -0.012 C 
ATOM     35  H   UNL     1      37.460 -17.561 -31.336  0.00  0.00    +0.000 HD
ENDBRANCH  30  32
ENDBRANCH  15  30
TORSDOF 5
ENDMDL
MODEL 17
REMARK VINA RESULT:    -7.174     25.476     30.638
REMARK INTER + INTRA:          -9.545
REMARK INTER:                  -8.535
REMARK INTRA:                  -1.011
REMARK UNBOUND:                -0.274
REMARK  Name = cpd196.pdb
REMARK  14 active torsions:
REMARK  status: ('A' for Active; 'I' for Inactive)
REMARK    1  A    between atoms: C_1  and  C_2
REMARK    2  A    between atoms: C_2  and  C_32
REMARK    3  A    between atoms: C_3  and  C_4
REMARK    4  A    between atoms: N_6  and  C_7
REMARK    5  A    between atoms: N_6  and  C_8
REMARK    6  A    between atoms: C_11  and  C_12
REMARK    7  A    between atoms: C_20  and  C_21
REMARK    8  A    between atoms: C_22  and  C_23
REMARK    9  A    between atoms: C_23  and  C_24
REMARK   10  A    between atoms: C_23  and  N_25
REMARK   11  A    between atoms: N_25  and  C_26
REMARK   12  A    between atoms: N_25  and  C_27
REMARK   13  A    between atoms: C_32  and  C_33
REMARK   14  A    between atoms: C_32  and  C_34
REMARK                            x       y       z     vdW  Elec       q    Type
REMARK                         _______ _______ _______ _____ _____    ______ ____
ROOT
ATOM      1  C   UNL     1      47.747 -33.437 -55.201  0.00  0.00    +0.026 C 
ATOM      2  C   UNL     1      48.679 -34.341 -56.023  0.00  0.00    -0.034 C 
ATOM      3  C   UNL     1      50.067 -34.471 -55.387  0.00  0.00    -0.045 C 
ATOM      4  C   UNL     1      50.765 -33.099 -55.137  0.00  0.00    -0.026 C 
ATOM      5  C   UNL     1      51.033 -32.448 -56.512  0.00  0.00    -0.059 C 
ATOM      6  C   UNL     1      49.785 -32.241 -54.280  0.00  0.00    -0.034 C 
ATOM      7  C   UNL     1      50.404 -30.895 -53.902  0.00  0.00    -0.049 C 
ATOM      8  C   UNL     1      51.637 -31.114 -53.034  0.00  0.00    -0.049 C 
ATOM      9  C   UNL     1      52.707 -32.032 -53.663  0.00  0.00    -0.034 C 
ATOM     10  C   UNL     1      52.085 -33.310 -54.289  0.00  0.00    -0.032 C 
ATOM     11  C   UNL     1      53.191 -34.168 -54.923  0.00  0.00    -0.049 C 
ATOM     12  C   UNL     1      54.083 -33.430 -55.906  0.00  0.00    -0.043 C 
ATOM     13  C   UNL     1      54.708 -32.128 -55.383  0.00  0.00    -0.006 C 
ATOM     14  C   UNL     1      55.219 -31.335 -56.611  0.00  0.00    -0.056 C 
ATOM     15  C   UNL     1      55.843 -32.277 -54.366  0.00  0.00    -0.051 C 
ATOM     16  C   UNL     1      55.791 -31.273 -53.470  0.00  0.00    -0.082 C 
ATOM     17  C   UNL     1      54.633 -30.364 -53.703  0.00  0.00    -0.031 C 
ATOM     18  C   UNL     1      53.700 -31.242 -54.573  0.00  0.00    -0.025 C 
ATOM     19  C   UNL     1      48.395 -32.070 -54.914  0.00  0.00    -0.031 C 
ENDROOT
BRANCH   1  22
ATOM     20  C   UNL     1      45.224 -33.729 -55.203  0.00  0.00    +0.239 C 
ATOM     21  O   UNL     1      44.096 -33.461 -55.609  0.00  0.00    -0.271 OA
ATOM     22  N   UNL     1      46.400 -33.272 -55.796  0.00  0.00    -0.298 N 
ATOM     23  C   UNL     1      46.254 -32.358 -56.923  0.00  0.00    +0.004 C 
BRANCH  20  26
ATOM     24  C   UNL     1      45.245 -36.740 -52.773  0.00  0.00    -0.043 C 
ATOM     25  C   UNL     1      44.978 -35.910 -54.003  0.00  0.00    -0.065 C 
ATOM     26  C   UNL     1      45.374 -34.621 -54.026  0.00  0.00    -0.000 C 
BRANCH  25  27
ATOM     27  C   UNL     1      44.275 -36.598 -55.171  0.00  0.00    -0.025 C 
ATOM     28  C   UNL     1      42.863 -37.072 -54.812  0.00  0.00    -0.059 C 
ATOM     29  C   UNL     1      45.109 -37.762 -55.713  0.00  0.00    -0.059 C 
ENDBRANCH  25  27
ENDBRANCH  20  26
ENDBRANCH   1  22
BRANCH  15  30
ATOM     30  C   UNL     1      56.902 -33.370 -54.403  0.00  0.00    +0.029 C 
ATOM     31  C   UNL     1      58.189 -32.766 -54.995  0.00  0.00    -0.046 C 
BRANCH  30  32
ATOM     32  N   UNL     1      57.127 -33.972 -53.058  0.00  0.00    -0.302 N 
ATOM     33  C   UNL     1      58.484 -34.497 -52.880  0.00  0.00    -0.012 C 
ATOM     34  C   UNL     1      56.170 -35.058 -52.801  0.00  0.00    -0.012 C 
ATOM     35  H   UNL     1      56.992 -33.212 -52.392  0.00  0.00    +0.000 HD
ENDBRANCH  30  32
ENDBRANCH  15  30
TORSDOF 5
ENDMDL
MODEL 18
REMARK VINA RESULT:    -7.099      3.458      9.658
REMARK INTER + INTRA:          -9.448
REMARK INTER:                  -8.058
REMARK INTRA:                  -1.390
REMARK UNBOUND:                -0.274
REMARK  Name = cpd196.pdb
REMARK  14 active torsions:
REMARK  status: ('A' for Active; 'I' for Inactive)
REMARK    1  A    between atoms: C_1  and  C_2
REMARK    2  A    between atoms: C_2  and  C_32
REMARK    3  A    between atoms: C_3  and  C_4
REMARK    4  A    between atoms: N_6  and  C_7
REMARK    5  A    between atoms: N_6  and  C_8
REMARK    6  A    between atoms: C_11  and  C_12
REMARK    7  A    between atoms: C_20  and  C_21
REMARK    8  A    between atoms: C_22  and  C_23
REMARK    9  A    between atoms: C_23  and  C_24
REMARK   10  A    between atoms: C_23  and  N_25
REMARK   11  A    between atoms: N_25  and  C_26
REMARK   12  A    between atoms: N_25  and  C_27
REMARK   13  A    between atoms: C_32  and  C_33
REMARK   14  A    between atoms: C_32  and  C_34
REMARK                            x       y       z     vdW  Elec       q    Type
REMARK                         _______ _______ _______ _____ _____    ______ ____
ROOT
ATOM      1  C   UNL     1      30.823 -32.576 -30.668  0.00  0.00    +0.026 C 
ATOM      2  C   UNL     1      31.699 -33.146 -31.795  0.00  0.00    -0.034 C 
ATOM      3  C   UNL     1      32.109 -34.599 -31.529  0.00  0.00    -0.045 C 
ATOM      4  C   UNL     1      32.829 -34.800 -30.161  0.00  0.00    -0.026 C 
ATOM      5  C   UNL     1      34.167 -34.029 -30.214  0.00  0.00    -0.059 C 
ATOM      6  C   UNL     1      31.883 -34.228 -29.061  0.00  0.00    -0.034 C 
ATOM      7  C   UNL     1      32.456 -34.447 -27.661  0.00  0.00    -0.049 C 
ATOM      8  C   UNL     1      32.576 -35.938 -27.375  0.00  0.00    -0.049 C 
ATOM      9  C   UNL     1      33.402 -36.726 -28.416  0.00  0.00    -0.034 C 
ATOM     10  C   UNL     1      33.022 -36.344 -29.872  0.00  0.00    -0.032 C 
ATOM     11  C   UNL     1      33.893 -37.135 -30.859  0.00  0.00    -0.049 C 
ATOM     12  C   UNL     1      35.389 -37.026 -30.615  0.00  0.00    -0.043 C 
ATOM     13  C   UNL     1      35.851 -37.344 -29.185  0.00  0.00    -0.006 C 
ATOM     14  C   UNL     1      37.289 -36.790 -29.030  0.00  0.00    -0.056 C 
ATOM     15  C   UNL     1      35.827 -38.819 -28.774  0.00  0.00    -0.051 C 
ATOM     16  C   UNL     1      35.498 -38.927 -27.473  0.00  0.00    -0.082 C 
ATOM     17  C   UNL     1      35.210 -37.604 -26.848  0.00  0.00    -0.031 C 
ATOM     18  C   UNL     1      34.928 -36.715 -28.085  0.00  0.00    -0.025 C 
ATOM     19  C   UNL     1      31.485 -32.761 -29.290  0.00  0.00    -0.031 C 
ENDROOT
BRANCH   1  22
ATOM     20  C   UNL     1      29.129 -30.761 -31.199  0.00  0.00    +0.239 C 
ATOM     21  O   UNL     1      28.756 -29.590 -31.223  0.00  0.00    -0.271 OA
ATOM     22  N   UNL     1      30.424 -31.165 -30.881  0.00  0.00    -0.298 N 
ATOM     23  C   UNL     1      31.358 -30.119 -30.481  0.00  0.00    +0.004 C 
BRANCH  20  26
ATOM     24  C   UNL     1      26.393 -33.498 -31.158  0.00  0.00    -0.043 C 
ATOM     25  C   UNL     1      27.385 -32.474 -30.666  0.00  0.00    -0.065 C 
ATOM     26  C   UNL     1      28.165 -31.832 -31.559  0.00  0.00    -0.000 C 
BRANCH  25  27
ATOM     27  C   UNL     1      27.433 -32.216 -29.162  0.00  0.00    -0.025 C 
ATOM     28  C   UNL     1      27.899 -33.441 -28.368  0.00  0.00    -0.059 C 
ATOM     29  C   UNL     1      26.083 -31.720 -28.640  0.00  0.00    -0.059 C 
ENDBRANCH  25  27
ENDBRANCH  20  26
ENDBRANCH   1  22
BRANCH  15  30
ATOM     30  C   UNL     1      36.178 -39.980 -29.692  0.00  0.00    +0.029 C 
ATOM     31  C   UNL     1      36.882 -41.059 -28.847  0.00  0.00    -0.046 C 
BRANCH  30  32
ATOM     32  N   UNL     1      34.979 -40.512 -30.401  0.00  0.00    -0.302 N 
ATOM     33  C   UNL     1      34.381 -41.672 -29.735  0.00  0.00    -0.012 C 
ATOM     34  C   UNL     1      35.310 -40.888 -31.783  0.00  0.00    -0.012 C 
ATOM     35  H   UNL     1      34.298 -39.754 -30.391  0.00  0.00    +0.000 HD
ENDBRANCH  30  32
ENDBRANCH  15  30
TORSDOF 5
ENDMDL
MODEL 19
REMARK VINA RESULT:    -7.001      1.502      3.263
REMARK INTER + INTRA:          -9.322
REMARK INTER:                  -9.066
REMARK INTRA:                  -0.255
REMARK UNBOUND:                -0.274
REMARK  Name = cpd196.pdb
REMARK  14 active torsions:
REMARK  status: ('A' for Active; 'I' for Inactive)
REMARK    1  A    between atoms: C_1  and  C_2
REMARK    2  A    between atoms: C_2  and  C_32
REMARK    3  A    between atoms: C_3  and  C_4
REMARK    4  A    between atoms: N_6  and  C_7
REMARK    5  A    between atoms: N_6  and  C_8
REMARK    6  A    between atoms: C_11  and  C_12
REMARK    7  A    between atoms: C_20  and  C_21
REMARK    8  A    between atoms: C_22  and  C_23
REMARK    9  A    between atoms: C_23  and  C_24
REMARK   10  A    between atoms: C_23  and  N_25
REMARK   11  A    between atoms: N_25  and  C_26
REMARK   12  A    between atoms: N_25  and  C_27
REMARK   13  A    between atoms: C_32  and  C_33
REMARK   14  A    between atoms: C_32  and  C_34
REMARK                            x       y       z     vdW  Elec       q    Type
REMARK                         _______ _______ _______ _____ _____    ______ ____
ROOT
ATOM      1  C   UNL     1      36.459 -36.268 -30.773  0.00  0.00    +0.026 C 
ATOM      2  C   UNL     1      35.207 -37.114 -31.056  0.00  0.00    -0.034 C 
ATOM      3  C   UNL     1      34.051 -36.271 -31.605  0.00  0.00    -0.045 C 
ATOM      4  C   UNL     1      33.668 -35.071 -30.687  0.00  0.00    -0.026 C 
ATOM      5  C   UNL     1      33.126 -35.646 -29.360  0.00  0.00    -0.059 C 
ATOM      6  C   UNL     1      34.968 -34.240 -30.460  0.00  0.00    -0.034 C 
ATOM      7  C   UNL     1      34.692 -32.983 -29.635  0.00  0.00    -0.049 C 
ATOM      8  C   UNL     1      33.735 -32.066 -30.385  0.00  0.00    -0.049 C 
ATOM      9  C   UNL     1      32.405 -32.731 -30.801  0.00  0.00    -0.034 C 
ATOM     10  C   UNL     1      32.625 -34.136 -31.424  0.00  0.00    -0.032 C 
ATOM     11  C   UNL     1      31.269 -34.759 -31.790  0.00  0.00    -0.049 C 
ATOM     12  C   UNL     1      30.258 -34.792 -30.657  0.00  0.00    -0.043 C 
ATOM     13  C   UNL     1      30.010 -33.449 -29.953  0.00  0.00    -0.006 C 
ATOM     14  C   UNL     1      29.300 -33.755 -28.611  0.00  0.00    -0.056 C 
ATOM     15  C   UNL     1      29.198 -32.411 -30.732  0.00  0.00    -0.051 C 
ATOM     16  C   UNL     1      29.652 -31.173 -30.456  0.00  0.00    -0.082 C 
ATOM     17  C   UNL     1      30.821 -31.190 -29.532  0.00  0.00    -0.031 C 
ATOM     18  C   UNL     1      31.327 -32.647 -29.674  0.00  0.00    -0.025 C 
ATOM     19  C   UNL     1      36.132 -35.058 -29.879  0.00  0.00    -0.031 C 
ENDROOT
BRANCH   1  22
ATOM     20  C   UNL     1      37.452 -38.082 -29.301  0.00  0.00    +0.239 C 
ATOM     21  O   UNL     1      38.363 -38.833 -28.960  0.00  0.00    -0.271 OA
ATOM     22  N   UNL     1      37.592 -37.047 -30.222  0.00  0.00    -0.298 N 
ATOM     23  C   UNL     1      38.894 -36.914 -30.867  0.00  0.00    +0.004 C 
BRANCH  20  26
ATOM     24  C   UNL     1      34.154 -39.486 -27.841  0.00  0.00    -0.043 C 
ATOM     25  C   UNL     1      35.484 -39.433 -28.550  0.00  0.00    -0.065 C 
ATOM     26  C   UNL     1      36.112 -38.247 -28.682  0.00  0.00    -0.000 C 
BRANCH  25  27
ATOM     27  C   UNL     1      36.051 -40.751 -29.071  0.00  0.00    -0.025 C 
ATOM     28  C   UNL     1      35.700 -41.004 -30.541  0.00  0.00    -0.059 C 
ATOM     29  C   UNL     1      35.603 -41.930 -28.203  0.00  0.00    -0.059 C 
ENDBRANCH  25  27
ENDBRANCH  20  26
ENDBRANCH   1  22
BRANCH  15  30
ATOM     30  C   UNL     1      28.020 -32.734 -31.638  0.00  0.00    +0.029 C 
ATOM     31  C   UNL     1      26.868 -31.775 -31.283  0.00  0.00    -0.046 C 
BRANCH  30  32
ATOM     32  N   UNL     1      28.390 -32.662 -33.081  0.00  0.00    -0.302 N 
ATOM     33  C   UNL     1      27.705 -31.585 -33.800  0.00  0.00    -0.012 C 
ATOM     34  C   UNL     1      28.103 -33.932 -33.762  0.00  0.00    -0.012 C 
ATOM     35  H   UNL     1      29.391 -32.467 -33.096  0.00  0.00    +0.000 HD
ENDBRANCH  30  32
ENDBRANCH  15  30
TORSDOF 5
ENDMDL
MODEL 20
REMARK VINA RESULT:    -6.697     18.220     21.111
REMARK INTER + INTRA:          -8.929
REMARK INTER:                  -7.453
REMARK INTRA:                  -1.475
REMARK UNBOUND:                -0.274
REMARK  Name = cpd196.pdb
REMARK  14 active torsions:
REMARK  status: ('A' for Active; 'I' for Inactive)
REMARK    1  A    between atoms: C_1  and  C_2
REMARK    2  A    between atoms: C_2  and  C_32
REMARK    3  A    between atoms: C_3  and  C_4
REMARK    4  A    between atoms: N_6  and  C_7
REMARK    5  A    between atoms: N_6  and  C_8
REMARK    6  A    between atoms: C_11  and  C_12
REMARK    7  A    between atoms: C_20  and  C_21
REMARK    8  A    between atoms: C_22  and  C_23
REMARK    9  A    between atoms: C_23  and  C_24
REMARK   10  A    between atoms: C_23  and  N_25
REMARK   11  A    between atoms: N_25  and  C_26
REMARK   12  A    between atoms: N_25  and  C_27
REMARK   13  A    between atoms: C_32  and  C_33
REMARK   14  A    between atoms: C_32  and  C_34
REMARK                            x       y       z     vdW  Elec       q    Type
REMARK                         _______ _______ _______ _____ _____    ______ ____
ROOT
ATOM      1  C   UNL     1      41.068 -20.659 -35.354  0.00  0.00    +0.026 C 
ATOM      2  C   UNL     1      42.576 -20.952 -35.401  0.00  0.00    -0.034 C 
ATOM      3  C   UNL     1      43.382 -19.754 -35.916  0.00  0.00    -0.045 C 
ATOM      4  C   UNL     1      42.911 -19.242 -37.311  0.00  0.00    -0.026 C 
ATOM      5  C   UNL     1      43.186 -20.360 -38.341  0.00  0.00    -0.059 C 
ATOM      6  C   UNL     1      41.386 -18.939 -37.191  0.00  0.00    -0.034 C 
ATOM      7  C   UNL     1      40.829 -18.349 -38.487  0.00  0.00    -0.049 C 
ATOM      8  C   UNL     1      41.499 -17.013 -38.782  0.00  0.00    -0.049 C 
ATOM      9  C   UNL     1      43.041 -17.071 -38.843  0.00  0.00    -0.034 C 
ATOM     10  C   UNL     1      43.643 -17.885 -37.666  0.00  0.00    -0.032 C 
ATOM     11  C   UNL     1      45.173 -17.932 -37.797  0.00  0.00    -0.049 C 
ATOM     12  C   UNL     1      45.682 -18.419 -39.142  0.00  0.00    -0.043 C 
ATOM     13  C   UNL     1      45.104 -17.696 -40.369  0.00  0.00    -0.006 C 
ATOM     14  C   UNL     1      45.405 -18.576 -41.607  0.00  0.00    -0.056 C 
ATOM     15  C   UNL     1      45.609 -16.273 -40.621  0.00  0.00    -0.051 C 
ATOM     16  C   UNL     1      44.617 -15.518 -41.131  0.00  0.00    -0.082 C 
ATOM     17  C   UNL     1      43.334 -16.268 -41.245  0.00  0.00    -0.031 C 
ATOM     18  C   UNL     1      43.560 -17.448 -40.268  0.00  0.00    -0.025 C 
ATOM     19  C   UNL     1      40.553 -20.137 -36.708  0.00  0.00    -0.031 C 
ENDROOT
BRANCH   1  22
ATOM     20  C   UNL     1      39.503 -21.791 -33.706  0.00  0.00    +0.239 C 
ATOM     21  O   UNL     1      38.707 -22.670 -33.387  0.00  0.00    -0.271 OA
ATOM     22  N   UNL     1      40.255 -21.802 -34.880  0.00  0.00    -0.298 N 
ATOM     23  C   UNL     1      40.006 -22.900 -35.808  0.00  0.00    +0.004 C 
BRANCH  20  26
ATOM     24  C   UNL     1      39.244 -18.461 -31.752  0.00  0.00    -0.043 C 
ATOM     25  C   UNL     1      38.970 -19.528 -32.781  0.00  0.00    -0.065 C 
ATOM     26  C   UNL     1      39.723 -20.647 -32.785  0.00  0.00    -0.000 C 
BRANCH  25  27
ATOM     27  C   UNL     1      37.828 -19.275 -33.763  0.00  0.00    -0.025 C 
ATOM     28  C   UNL     1      38.107 -18.096 -34.700  0.00  0.00    -0.059 C 
ATOM     29  C   UNL     1      36.500 -19.074 -33.030  0.00  0.00    -0.059 C 
ENDBRANCH  25  27
ENDBRANCH  20  26
ENDBRANCH   1  22
BRANCH  15  30
ATOM     30  C   UNL     1      47.037 -15.805 -40.381  0.00  0.00    +0.029 C 
ATOM     31  C   UNL     1      47.693 -15.552 -41.752  0.00  0.00    -0.046 C 
BRANCH  30  32
ATOM     32  N   UNL     1      47.088 -14.602 -39.500  0.00  0.00    -0.302 N 
ATOM     33  C   UNL     1      48.037 -13.587 -39.964  0.00  0.00    -0.012 C 
ATOM     34  C   UNL     1      47.441 -14.975 -38.123  0.00  0.00    -0.012 C 
ATOM     35  H   UNL     1      46.152 -14.200 -39.533  0.00  0.00    +0.000 HD
ENDBRANCH  30  32
ENDBRANCH  15  30
TORSDOF 5
ENDMDL
