REMARK  Name = cpd26.pdb
REMARK  16 active torsions:
REMARK  status: ('A' for Active; 'I' for Inactive)
REMARK    1  A    between atoms: C_1  and  C_2
REMARK    2  A    between atoms: C_6  and  N_7
REMARK    3  A    between atoms: N_7  and  C_8
REMARK    4  A    between atoms: C_13  and  C_14
REMARK    5  A    between atoms: N_16  and  C_17
REMARK    6  A    between atoms: C_17  and  C_18
REMARK    7  A    between atoms: C_18  and  C_19
REMARK    8  A    between atoms: C_19  and  C_20
REMARK    9  A    between atoms: C_20  and  C_21
REMARK   10  A    between atoms: C_21  and  C_22
REMARK   11  A    between atoms: C_22  and  C_23
REMARK   12  A    between atoms: C_23  and  C_24
REMARK   13  A    between atoms: C_24  and  C_25
REMARK   14  A    between atoms: C_25  and  N_26
REMARK   15  A    between atoms: N_26  and  C_27
REMARK   16  A    between atoms: C_41  and  C_42
REMARK                            x       y       z     vdW  Elec       q    Type
REMARK                         _______ _______ _______ _____ _____    ______ ____
ROOT
ATOM      1  C   UNL A   1       5.543   2.524   1.364  0.00  0.00    -0.052 C 
ENDROOT
BRANCH   1   2
ATOM      2  C   UNL A   1       4.234   3.257   1.062  0.00  0.00    -0.037 C 
BRANCH   2   3
ATOM      3  C   UNL A   1       3.968   3.455  -0.429  0.00  0.00    +0.012 C 
BRANCH   3   6
ATOM      4  C   UNL A   1       1.555   3.128  -0.831  0.00  0.00    +0.246 C 
ATOM      5  O   UNL A   1       1.664   1.906  -0.869  0.00  0.00    -0.270 OA
ATOM      6  N   UNL A   1       2.634   3.975  -0.656  0.00  0.00    -0.311 N 
ATOM      7  H   UNL A   1       2.494   4.949  -0.686  0.00  0.00    +0.000 HD
BRANCH   4  13
ATOM      8  C   UNL A   1      -0.945   3.049  -0.518  0.00  0.00    +0.044 A 
ATOM      9  C   UNL A   1      -2.182   3.716  -0.543  0.00  0.00    -0.040 A 
ATOM     10  C   UNL A   1      -2.296   5.017  -1.038  0.00  0.00    -0.060 A 
ATOM     11  C   UNL A   1      -1.168   5.687  -1.501  0.00  0.00    -0.061 A 
ATOM     12  C   UNL A   1       0.080   5.067  -1.442  0.00  0.00    -0.048 A 
ATOM     13  C   UNL A   1       0.206   3.766  -0.922  0.00  0.00    +0.058 A 
BRANCH   8  14
ATOM     14  N   UNL A   1      -0.852   1.740   0.035  0.00  0.00    -0.314 N 
ATOM     15  H   UNL A   1      -0.030   1.539   0.538  0.00  0.00    +0.000 HD
BRANCH  14  21
ATOM     16  C   UNL A   1      -2.733  -2.536   1.820  0.00  0.00    -0.039 C 
ATOM     17  C   UNL A   1      -2.681  -1.434   0.797  0.00  0.00    -0.046 A 
ATOM     18  C   UNL A   1      -3.510  -1.524  -0.331  0.00  0.00    -0.058 A 
ATOM     19  C   UNL A   1      -3.475  -0.546  -1.319  0.00  0.00    -0.060 A 
ATOM     20  C   UNL A   1      -2.614   0.540  -1.189  0.00  0.00    -0.040 A 
ATOM     21  C   UNL A   1      -1.805   0.688  -0.052  0.00  0.00    +0.035 A 
ATOM     22  C   UNL A   1      -1.830  -0.313   0.949  0.00  0.00    -0.026 A 
ATOM     23  C   UNL A   1      -0.909  -0.202   2.141  0.00  0.00    -0.038 C 
ENDBRANCH  14  21
ENDBRANCH   8  14
ENDBRANCH   4  13
ENDBRANCH   3   6
ENDBRANCH   2   3
ENDBRANCH   1   2
BRANCH   1  24
ATOM     24  C   UNL A   1       6.782   3.208   0.782  0.00  0.00    -0.053 C 
BRANCH  24  25
ATOM     25  C   UNL A   1       8.066   2.544   1.284  0.00  0.00    -0.053 C 
BRANCH  25  26
ATOM     26  C   UNL A   1       9.302   3.123   0.593  0.00  0.00    -0.053 C 
BRANCH  26  27
ATOM     27  C   UNL A   1      10.588   2.524   1.169  0.00  0.00    -0.052 C 
BRANCH  27  28
ATOM     28  C   UNL A   1      11.855   3.033   0.475  0.00  0.00    -0.037 C 
BRANCH  28  29
ATOM     29  C   UNL A   1      12.040   2.443  -0.926  0.00  0.00    +0.009 C 
BRANCH  29  30
ATOM     30  N   UNL A   1      13.266   2.931  -1.578  0.00  0.00    -0.343 N 
ATOM     31  H   UNL A   1      13.249   3.629  -2.272  0.00  0.00    +0.000 HD
BRANCH  30  32
ATOM     32  C   UNL A   1      14.476   2.328  -1.139  0.00  0.00    +0.041 A 
ATOM     33  C   UNL A   1      15.383   3.055  -0.337  0.00  0.00    -0.005 A 
ATOM     34  C   UNL A   1      16.520   2.386   0.128  0.00  0.00    +0.047 A 
ATOM     35  N   UNL A   1      16.766   1.078  -0.118  0.00  0.00    -0.251 NA
ATOM     36  C   UNL A   1      15.920   0.394  -0.897  0.00  0.00    +0.073 A 
ATOM     37  C   UNL A   1      16.217  -0.935  -1.169  0.00  0.00    -0.036 A 
ATOM     38  C   UNL A   1      15.416  -1.718  -2.002  0.00  0.00    -0.060 A 
ATOM     39  C   UNL A   1      14.293  -1.159  -2.591  0.00  0.00    -0.061 A 
ATOM     40  C   UNL A   1      13.974   0.172  -2.325  0.00  0.00    -0.051 A 
ATOM     41  C   UNL A   1      14.761   0.968  -1.455  0.00  0.00    +0.021 A 
ATOM     42  C   UNL A   1      17.544   3.064   1.002  0.00  0.00    -0.010 C 
ATOM     43  C   UNL A   1      17.518   4.583   0.890  0.00  0.00    -0.047 C 
ATOM     44  C   UNL A   1      16.092   5.080   1.057  0.00  0.00    -0.049 C 
ATOM     45  C   UNL A   1      15.197   4.528  -0.052  0.00  0.00    -0.024 C 
ENDBRANCH  30  32
ENDBRANCH  29  30
ENDBRANCH  28  29
ENDBRANCH  27  28
ENDBRANCH  26  27
ENDBRANCH  25  26
ENDBRANCH  24  25
ENDBRANCH   1  24
TORSDOF 14
