MODEL 1
REMARK VINA RESULT:    -6.614      0.000      0.000
REMARK INTER + INTRA:         -17.383
REMARK INTER:                 -12.028
REMARK INTRA:                  -5.356
REMARK UNBOUND:                -5.356
REMARK  Name = cpd26.pdb
REMARK  16 active torsions:
REMARK  status: ('A' for Active; 'I' for Inactive)
REMARK    1  A    between atoms: C_1  and  C_2
REMARK    2  A    between atoms: C_6  and  N_7
REMARK    3  A    between atoms: N_7  and  C_8
REMARK    4  A    between atoms: C_13  and  C_14
REMARK    5  A    between atoms: N_16  and  C_17
REMARK    6  A    between atoms: C_17  and  C_18
REMARK    7  A    between atoms: C_18  and  C_19
REMARK    8  A    between atoms: C_19  and  C_20
REMARK    9  A    between atoms: C_20  and  C_21
REMARK   10  A    between atoms: C_21  and  C_22
REMARK   11  A    between atoms: C_22  and  C_23
REMARK   12  A    between atoms: C_23  and  C_24
REMARK   13  A    between atoms: C_24  and  C_25
REMARK   14  A    between atoms: C_25  and  N_26
REMARK   15  A    between atoms: N_26  and  C_27
REMARK   16  A    between atoms: C_41  and  C_42
REMARK                            x       y       z     vdW  Elec       q    Type
REMARK                         _______ _______ _______ _____ _____    ______ ____
ROOT
ATOM      1  C   UNL A   1      42.765 -20.111 -34.074  0.00  0.00    -0.052 C 
ENDROOT
BRANCH   1   2
ATOM      2  C   UNL A   1      44.187 -19.637 -33.768  0.00  0.00    -0.037 C 
BRANCH   2   3
ATOM      3  C   UNL A   1      45.120 -19.665 -34.978  0.00  0.00    +0.012 C 
BRANCH   3   6
ATOM      4  C   UNL A   1      44.195 -19.432 -37.254  0.00  0.00    +0.246 C 
ATOM      5  O   UNL A   1      44.319 -20.630 -37.494  0.00  0.00    -0.270 OA
ATOM      6  N   UNL A   1      44.593 -18.858 -36.061  0.00  0.00    -0.311 N 
ATOM      7  H   UNL A   1      44.517 -17.883 -35.944  0.00  0.00    +0.000 HD
BRANCH   4  13
ATOM      8  C   UNL A   1      44.111 -18.363 -39.535  0.00  0.00    +0.044 A 
ATOM      9  C   UNL A   1      43.420 -17.570 -40.467  0.00  0.00    -0.040 A 
ATOM     10  C   UNL A   1      42.253 -16.888 -40.117  0.00  0.00    -0.060 A 
ATOM     11  C   UNL A   1      41.741 -17.001 -38.828  0.00  0.00    -0.061 A 
ATOM     12  C   UNL A   1      42.380 -17.820 -37.897  0.00  0.00    -0.048 A 
ATOM     13  C   UNL A   1      43.542 -18.529 -38.251  0.00  0.00    +0.058 A 
BRANCH   8  14
ATOM     14  N   UNL A   1      45.273 -19.083 -39.935  0.00  0.00    -0.314 N 
ATOM     15  H   UNL A   1      46.129 -18.765 -39.567  0.00  0.00    +0.000 HD
BRANCH  14  21
ATOM     16  C   UNL A   1      47.470 -23.375 -41.260  0.00  0.00    -0.039 C 
ATOM     17  C   UNL A   1      46.464 -22.278 -41.476  0.00  0.00    -0.046 A 
ATOM     18  C   UNL A   1      45.669 -22.312 -42.631  0.00  0.00    -0.058 A 
ATOM     19  C   UNL A   1      44.746 -21.304 -42.889  0.00  0.00    -0.060 A 
ATOM     20  C   UNL A   1      44.601 -20.251 -41.991  0.00  0.00    -0.040 A 
ATOM     21  C   UNL A   1      45.345 -20.208 -40.802  0.00  0.00    +0.035 A 
ATOM     22  C   UNL A   1      46.293 -21.227 -40.543  0.00  0.00    -0.026 A 
ATOM     23  C   UNL A   1      47.152 -21.152 -39.303  0.00  0.00    -0.038 C 
ENDBRANCH  14  21
ENDBRANCH   8  14
ENDBRANCH   4  13
ENDBRANCH   3   6
ENDBRANCH   2   3
ENDBRANCH   1   2
BRANCH   1  24
ATOM     24  C   UNL A   1      41.675 -19.188 -33.523  0.00  0.00    -0.053 C 
BRANCH  24  25
ATOM     25  C   UNL A   1      41.073 -18.321 -34.630  0.00  0.00    -0.053 C 
BRANCH  25  26
ATOM     26  C   UNL A   1      39.817 -17.592 -34.149  0.00  0.00    -0.053 C 
BRANCH  26  27
ATOM     27  C   UNL A   1      39.299 -16.623 -35.216  0.00  0.00    -0.052 C 
BRANCH  27  28
ATOM     28  C   UNL A   1      38.078 -17.154 -35.972  0.00  0.00    -0.037 C 
BRANCH  28  29
ATOM     29  C   UNL A   1      38.450 -17.828 -37.296  0.00  0.00    +0.009 C 
BRANCH  29  30
ATOM     30  N   UNL A   1      37.863 -19.172 -37.421  0.00  0.00    -0.343 N 
ATOM     31  H   UNL A   1      36.959 -19.319 -37.782  0.00  0.00    +0.000 HD
BRANCH  30  32
ATOM     32  C   UNL A   1      38.688 -20.245 -36.985  0.00  0.00    +0.041 A 
ATOM     33  C   UNL A   1      39.698 -20.754 -37.831  0.00  0.00    -0.005 A 
ATOM     34  C   UNL A   1      40.528 -21.758 -37.321  0.00  0.00    +0.047 A 
ATOM     35  N   UNL A   1      40.436 -22.227 -36.054  0.00  0.00    -0.251 NA
ATOM     36  C   UNL A   1      39.466 -21.762 -35.259  0.00  0.00    +0.073 A 
ATOM     37  C   UNL A   1      39.366 -22.289 -33.978  0.00  0.00    -0.036 A 
ATOM     38  C   UNL A   1      38.363 -21.896 -33.091  0.00  0.00    -0.060 A 
ATOM     39  C   UNL A   1      37.425 -20.958 -33.493  0.00  0.00    -0.061 A 
ATOM     40  C   UNL A   1      37.512 -20.412 -34.773  0.00  0.00    -0.051 A 
ATOM     41  C   UNL A   1      38.545 -20.779 -35.672  0.00  0.00    +0.021 A 
ATOM     42  C   UNL A   1      41.645 -22.361 -38.134  0.00  0.00    -0.010 C 
ATOM     43  C   UNL A   1      41.456 -22.187 -39.635  0.00  0.00    -0.047 C 
ATOM     44  C   UNL A   1      41.143 -20.732 -39.942  0.00  0.00    -0.049 C 
ATOM     45  C   UNL A   1      39.838 -20.309 -39.269  0.00  0.00    -0.024 C 
ENDBRANCH  30  32
ENDBRANCH  29  30
ENDBRANCH  28  29
ENDBRANCH  27  28
ENDBRANCH  26  27
ENDBRANCH  25  26
ENDBRANCH  24  25
ENDBRANCH   1  24
TORSDOF 14
ENDMDL
MODEL 2
REMARK VINA RESULT:    -6.383      1.755      6.865
REMARK INTER + INTRA:         -16.962
REMARK INTER:                 -11.450
REMARK INTRA:                  -5.512
REMARK UNBOUND:                -5.356
REMARK  Name = cpd26.pdb
REMARK  16 active torsions:
REMARK  status: ('A' for Active; 'I' for Inactive)
REMARK    1  A    between atoms: C_1  and  C_2
REMARK    2  A    between atoms: C_6  and  N_7
REMARK    3  A    between atoms: N_7  and  C_8
REMARK    4  A    between atoms: C_13  and  C_14
REMARK    5  A    between atoms: N_16  and  C_17
REMARK    6  A    between atoms: C_17  and  C_18
REMARK    7  A    between atoms: C_18  and  C_19
REMARK    8  A    between atoms: C_19  and  C_20
REMARK    9  A    between atoms: C_20  and  C_21
REMARK   10  A    between atoms: C_21  and  C_22
REMARK   11  A    between atoms: C_22  and  C_23
REMARK   12  A    between atoms: C_23  and  C_24
REMARK   13  A    between atoms: C_24  and  C_25
REMARK   14  A    between atoms: C_25  and  N_26
REMARK   15  A    between atoms: N_26  and  C_27
REMARK   16  A    between atoms: C_41  and  C_42
REMARK                            x       y       z     vdW  Elec       q    Type
REMARK                         _______ _______ _______ _____ _____    ______ ____
ROOT
ATOM      1  C   UNL A   1      48.198 -21.963 -41.278  0.00  0.00    -0.052 C 
ENDROOT
BRANCH   1   2
ATOM      2  C   UNL A   1      47.857 -22.029 -39.788  0.00  0.00    -0.037 C 
BRANCH   2   3
ATOM      3  C   UNL A   1      46.674 -21.151 -39.386  0.00  0.00    +0.012 C 
BRANCH   3   6
ATOM      4  C   UNL A   1      46.302 -19.288 -37.811  0.00  0.00    +0.246 C 
ATOM      5  O   UNL A   1      45.558 -18.697 -38.588  0.00  0.00    -0.270 OA
ATOM      6  N   UNL A   1      46.927 -20.481 -38.126  0.00  0.00    -0.311 N 
ATOM      7  H   UNL A   1      47.554 -20.883 -37.482  0.00  0.00    +0.000 HD
BRANCH   4  13
ATOM      8  C   UNL A   1      45.436 -18.586 -35.550  0.00  0.00    +0.044 A 
ATOM      9  C   UNL A   1      45.705 -18.159 -34.239  0.00  0.00    -0.040 A 
ATOM     10  C   UNL A   1      46.998 -17.816 -33.837  0.00  0.00    -0.060 A 
ATOM     11  C   UNL A   1      48.055 -17.913 -34.736  0.00  0.00    -0.061 A 
ATOM     12  C   UNL A   1      47.824 -18.382 -36.030  0.00  0.00    -0.048 A 
ATOM     13  C   UNL A   1      46.528 -18.752 -36.433  0.00  0.00    +0.058 A 
BRANCH   8  14
ATOM     14  N   UNL A   1      44.115 -18.973 -35.917  0.00  0.00    -0.314 N 
ATOM     15  H   UNL A   1      44.043 -19.648 -36.630  0.00  0.00    +0.000 HD
BRANCH  14  21
ATOM     16  C   UNL A   1      39.991 -19.798 -33.211  0.00  0.00    -0.039 C 
ATOM     17  C   UNL A   1      40.846 -18.933 -34.098  0.00  0.00    -0.046 A 
ATOM     18  C   UNL A   1      40.350 -17.683 -34.497  0.00  0.00    -0.058 A 
ATOM     19  C   UNL A   1      41.090 -16.862 -35.341  0.00  0.00    -0.060 A 
ATOM     20  C   UNL A   1      42.339 -17.278 -35.793  0.00  0.00    -0.040 A 
ATOM     21  C   UNL A   1      42.887 -18.501 -35.377  0.00  0.00    +0.035 A 
ATOM     22  C   UNL A   1      42.130 -19.344 -34.528  0.00  0.00    -0.026 A 
ATOM     23  C   UNL A   1      42.678 -20.695 -34.133  0.00  0.00    -0.038 C 
ENDBRANCH  14  21
ENDBRANCH   8  14
ENDBRANCH   4  13
ENDBRANCH   3   6
ENDBRANCH   2   3
ENDBRANCH   1   2
BRANCH   1  24
ATOM     24  C   UNL A   1      47.852 -23.239 -42.048  0.00  0.00    -0.053 C 
BRANCH  24  25
ATOM     25  C   UNL A   1      46.434 -23.172 -42.620  0.00  0.00    -0.053 C 
BRANCH  25  26
ATOM     26  C   UNL A   1      45.973 -21.724 -42.802  0.00  0.00    -0.053 C 
BRANCH  26  27
ATOM     27  C   UNL A   1      44.469 -21.589 -42.551  0.00  0.00    -0.052 C 
BRANCH  27  28
ATOM     28  C   UNL A   1      44.116 -20.443 -41.599  0.00  0.00    -0.037 C 
BRANCH  28  29
ATOM     29  C   UNL A   1      43.079 -20.846 -40.546  0.00  0.00    +0.009 C 
BRANCH  29  30
ATOM     30  N   UNL A   1      43.188 -20.039 -39.320  0.00  0.00    -0.343 N 
ATOM     31  H   UNL A   1      44.049 -19.883 -38.870  0.00  0.00    +0.000 HD
BRANCH  30  32
ATOM     32  C   UNL A   1      41.967 -19.500 -38.831  0.00  0.00    +0.041 A 
ATOM     33  C   UNL A   1      41.579 -18.187 -39.178  0.00  0.00    -0.005 A 
ATOM     34  C   UNL A   1      40.333 -17.737 -38.729  0.00  0.00    +0.047 A 
ATOM     35  N   UNL A   1      39.475 -18.508 -38.022  0.00  0.00    -0.251 NA
ATOM     36  C   UNL A   1      39.850 -19.744 -37.672  0.00  0.00    +0.073 A 
ATOM     37  C   UNL A   1      38.969 -20.500 -36.910  0.00  0.00    -0.036 A 
ATOM     38  C   UNL A   1      39.287 -21.784 -36.465  0.00  0.00    -0.060 A 
ATOM     39  C   UNL A   1      40.523 -22.327 -36.776  0.00  0.00    -0.061 A 
ATOM     40  C   UNL A   1      41.420 -21.587 -37.546  0.00  0.00    -0.051 A 
ATOM     41  C   UNL A   1      41.095 -20.295 -38.032  0.00  0.00    +0.021 A 
ATOM     42  C   UNL A   1      39.817 -16.359 -39.055  0.00  0.00    -0.010 C 
ATOM     43  C   UNL A   1      40.921 -15.375 -39.422  0.00  0.00    -0.047 C 
ATOM     44  C   UNL A   1      41.823 -15.995 -40.475  0.00  0.00    -0.049 C 
ATOM     45  C   UNL A   1      42.499 -17.253 -39.931  0.00  0.00    -0.024 C 
ENDBRANCH  30  32
ENDBRANCH  29  30
ENDBRANCH  28  29
ENDBRANCH  27  28
ENDBRANCH  26  27
ENDBRANCH  25  26
ENDBRANCH  24  25
ENDBRANCH   1  24
TORSDOF 14
ENDMDL
MODEL 3
REMARK VINA RESULT:    -6.370      0.575      2.843
REMARK INTER + INTRA:         -16.938
REMARK INTER:                 -11.614
REMARK INTRA:                  -5.324
REMARK UNBOUND:                -5.356
REMARK  Name = cpd26.pdb
REMARK  16 active torsions:
REMARK  status: ('A' for Active; 'I' for Inactive)
REMARK    1  A    between atoms: C_1  and  C_2
REMARK    2  A    between atoms: C_6  and  N_7
REMARK    3  A    between atoms: N_7  and  C_8
REMARK    4  A    between atoms: C_13  and  C_14
REMARK    5  A    between atoms: N_16  and  C_17
REMARK    6  A    between atoms: C_17  and  C_18
REMARK    7  A    between atoms: C_18  and  C_19
REMARK    8  A    between atoms: C_19  and  C_20
REMARK    9  A    between atoms: C_20  and  C_21
REMARK   10  A    between atoms: C_21  and  C_22
REMARK   11  A    between atoms: C_22  and  C_23
REMARK   12  A    between atoms: C_23  and  C_24
REMARK   13  A    between atoms: C_24  and  C_25
REMARK   14  A    between atoms: C_25  and  N_26
REMARK   15  A    between atoms: N_26  and  C_27
REMARK   16  A    between atoms: C_41  and  C_42
REMARK                            x       y       z     vdW  Elec       q    Type
REMARK                         _______ _______ _______ _____ _____    ______ ____
ROOT
ATOM      1  C   UNL A   1      42.744 -19.972 -33.955  0.00  0.00    -0.052 C 
ENDROOT
BRANCH   1   2
ATOM      2  C   UNL A   1      44.193 -19.541 -33.717  0.00  0.00    -0.037 C 
BRANCH   2   3
ATOM      3  C   UNL A   1      45.054 -19.551 -34.979  0.00  0.00    +0.012 C 
BRANCH   3   6
ATOM      4  C   UNL A   1      43.893 -19.341 -37.146  0.00  0.00    +0.246 C 
ATOM      5  O   UNL A   1      43.924 -20.551 -37.350  0.00  0.00    -0.270 OA
ATOM      6  N   UNL A   1      44.453 -18.751 -36.027  0.00  0.00    -0.311 N 
ATOM      7  H   UNL A   1      44.444 -17.771 -35.942  0.00  0.00    +0.000 HD
BRANCH   4  13
ATOM      8  C   UNL A   1      43.746 -18.154 -39.365  0.00  0.00    +0.044 A 
ATOM      9  C   UNL A   1      43.003 -17.364 -40.260  0.00  0.00    -0.040 A 
ATOM     10  C   UNL A   1      41.785 -16.793 -39.886  0.00  0.00    -0.060 A 
ATOM     11  C   UNL A   1      41.273 -17.016 -38.612  0.00  0.00    -0.061 A 
ATOM     12  C   UNL A   1      41.965 -17.836 -37.720  0.00  0.00    -0.048 A 
ATOM     13  C   UNL A   1      43.180 -18.435 -38.099  0.00  0.00    +0.058 A 
BRANCH   8  14
ATOM     14  N   UNL A   1      44.962 -18.761 -39.790  0.00  0.00    -0.314 N 
ATOM     15  H   UNL A   1      45.792 -18.329 -39.485  0.00  0.00    +0.000 HD
BRANCH  14  21
ATOM     16  C   UNL A   1      47.390 -23.010 -40.818  0.00  0.00    -0.039 C 
ATOM     17  C   UNL A   1      46.352 -21.966 -41.129  0.00  0.00    -0.046 A 
ATOM     18  C   UNL A   1      45.617 -22.082 -42.318  0.00  0.00    -0.058 A 
ATOM     19  C   UNL A   1      44.669 -21.125 -42.664  0.00  0.00    -0.060 A 
ATOM     20  C   UNL A   1      44.439 -20.042 -41.822  0.00  0.00    -0.040 A 
ATOM     21  C   UNL A   1      45.121 -19.918 -40.602  0.00  0.00    +0.035 A 
ATOM     22  C   UNL A   1      46.095 -20.884 -40.253  0.00  0.00    -0.026 A 
ATOM     23  C   UNL A   1      46.888 -20.721 -38.978  0.00  0.00    -0.038 C 
ENDBRANCH  14  21
ENDBRANCH   8  14
ENDBRANCH   4  13
ENDBRANCH   3   6
ENDBRANCH   2   3
ENDBRANCH   1   2
BRANCH   1  24
ATOM     24  C   UNL A   1      41.711 -19.044 -33.312  0.00  0.00    -0.053 C 
BRANCH  24  25
ATOM     25  C   UNL A   1      40.939 -18.258 -34.374  0.00  0.00    -0.053 C 
BRANCH  25  26
ATOM     26  C   UNL A   1      39.729 -17.542 -33.771  0.00  0.00    -0.053 C 
BRANCH  26  27
ATOM     27  C   UNL A   1      38.925 -16.812 -34.850  0.00  0.00    -0.052 C 
BRANCH  27  28
ATOM     28  C   UNL A   1      37.664 -17.567 -35.279  0.00  0.00    -0.037 C 
BRANCH  28  29
ATOM     29  C   UNL A   1      37.810 -18.232 -36.651  0.00  0.00    +0.009 C 
BRANCH  29  30
ATOM     30  N   UNL A   1      37.474 -19.664 -36.614  0.00  0.00    -0.343 N 
ATOM     31  H   UNL A   1      36.548 -19.989 -36.702  0.00  0.00    +0.000 HD
BRANCH  30  32
ATOM     32  C   UNL A   1      38.574 -20.548 -36.443  0.00  0.00    +0.041 A 
ATOM     33  C   UNL A   1      38.800 -21.170 -35.195  0.00  0.00    -0.005 A 
ATOM     34  C   UNL A   1      39.852 -22.088 -35.108  0.00  0.00    +0.047 A 
ATOM     35  N   UNL A   1      40.626 -22.435 -36.162  0.00  0.00    -0.251 NA
ATOM     36  C   UNL A   1      40.428 -21.830 -37.339  0.00  0.00    +0.073 A 
ATOM     37  C   UNL A   1      41.263 -22.173 -38.395  0.00  0.00    -0.036 A 
ATOM     38  C   UNL A   1      41.159 -21.568 -39.649  0.00  0.00    -0.060 A 
ATOM     39  C   UNL A   1      40.204 -20.585 -39.855  0.00  0.00    -0.061 A 
ATOM     40  C   UNL A   1      39.352 -20.232 -38.810  0.00  0.00    -0.051 A 
ATOM     41  C   UNL A   1      39.426 -20.862 -37.542  0.00  0.00    +0.021 A 
ATOM     42  C   UNL A   1      40.171 -22.817 -33.828  0.00  0.00    -0.010 C 
ATOM     43  C   UNL A   1      39.638 -22.113 -32.586  0.00  0.00    -0.047 C 
ATOM     44  C   UNL A   1      38.173 -21.767 -32.788  0.00  0.00    -0.049 C 
ATOM     45  C   UNL A   1      38.004 -20.805 -33.963  0.00  0.00    -0.024 C 
ENDBRANCH  30  32
ENDBRANCH  29  30
ENDBRANCH  28  29
ENDBRANCH  27  28
ENDBRANCH  26  27
ENDBRANCH  25  26
ENDBRANCH  24  25
ENDBRANCH   1  24
TORSDOF 14
ENDMDL
MODEL 4
REMARK VINA RESULT:    -6.353      2.126      4.958
REMARK INTER + INTRA:         -16.909
REMARK INTER:                 -11.627
REMARK INTRA:                  -5.282
REMARK UNBOUND:                -5.356
REMARK  Name = cpd26.pdb
REMARK  16 active torsions:
REMARK  status: ('A' for Active; 'I' for Inactive)
REMARK    1  A    between atoms: C_1  and  C_2
REMARK    2  A    between atoms: C_6  and  N_7
REMARK    3  A    between atoms: N_7  and  C_8
REMARK    4  A    between atoms: C_13  and  C_14
REMARK    5  A    between atoms: N_16  and  C_17
REMARK    6  A    between atoms: C_17  and  C_18
REMARK    7  A    between atoms: C_18  and  C_19
REMARK    8  A    between atoms: C_19  and  C_20
REMARK    9  A    between atoms: C_20  and  C_21
REMARK   10  A    between atoms: C_21  and  C_22
REMARK   11  A    between atoms: C_22  and  C_23
REMARK   12  A    between atoms: C_23  and  C_24
REMARK   13  A    between atoms: C_24  and  C_25
REMARK   14  A    between atoms: C_25  and  N_26
REMARK   15  A    between atoms: N_26  and  C_27
REMARK   16  A    between atoms: C_41  and  C_42
REMARK                            x       y       z     vdW  Elec       q    Type
REMARK                         _______ _______ _______ _____ _____    ______ ____
ROOT
ATOM      1  C   UNL A   1      42.022 -16.633 -38.982  0.00  0.00    -0.052 C 
ENDROOT
BRANCH   1   2
ATOM      2  C   UNL A   1      42.389 -15.156 -39.141  0.00  0.00    -0.037 C 
BRANCH   2   3
ATOM      3  C   UNL A   1      43.869 -14.860 -38.905  0.00  0.00    +0.012 C 
BRANCH   3   6
ATOM      4  C   UNL A   1      45.885 -16.098 -38.203  0.00  0.00    +0.246 C 
ATOM      5  O   UNL A   1      46.631 -15.380 -38.861  0.00  0.00    -0.270 OA
ATOM      6  N   UNL A   1      44.511 -15.945 -38.189  0.00  0.00    -0.311 N 
ATOM      7  H   UNL A   1      43.958 -16.584 -37.684  0.00  0.00    +0.000 HD
BRANCH   4  13
ATOM      8  C   UNL A   1      47.102 -18.285 -37.896  0.00  0.00    +0.044 A 
ATOM      9  C   UNL A   1      47.691 -19.222 -37.031  0.00  0.00    -0.040 A 
ATOM     10  C   UNL A   1      47.565 -19.111 -35.644  0.00  0.00    -0.060 A 
ATOM     11  C   UNL A   1      46.861 -18.045 -35.093  0.00  0.00    -0.061 A 
ATOM     12  C   UNL A   1      46.308 -17.073 -35.927  0.00  0.00    -0.048 A 
ATOM     13  C   UNL A   1      46.452 -17.166 -37.323  0.00  0.00    +0.058 A 
BRANCH   8  14
ATOM     14  N   UNL A   1      47.286 -18.399 -39.304  0.00  0.00    -0.314 N 
ATOM     15  H   UNL A   1      47.810 -17.684 -39.732  0.00  0.00    +0.000 HD
BRANCH  14  21
ATOM     16  C   UNL A   1      44.188 -19.875 -42.942  0.00  0.00    -0.039 C 
ATOM     17  C   UNL A   1      45.245 -20.149 -41.906  0.00  0.00    -0.046 A 
ATOM     18  C   UNL A   1      45.665 -21.472 -41.709  0.00  0.00    -0.058 A 
ATOM     19  C   UNL A   1      46.617 -21.779 -40.742  0.00  0.00    -0.060 A 
ATOM     20  C   UNL A   1      47.166 -20.765 -39.963  0.00  0.00    -0.040 A 
ATOM     21  C   UNL A   1      46.805 -19.424 -40.165  0.00  0.00    +0.035 A 
ATOM     22  C   UNL A   1      45.827 -19.110 -41.140  0.00  0.00    -0.026 A 
ATOM     23  C   UNL A   1      45.376 -17.679 -41.315  0.00  0.00    -0.038 C 
ENDBRANCH  14  21
ENDBRANCH   8  14
ENDBRANCH   4  13
ENDBRANCH   3   6
ENDBRANCH   2   3
ENDBRANCH   1   2
BRANCH   1  24
ATOM     24  C   UNL A   1      40.941 -16.891 -37.930  0.00  0.00    -0.053 C 
BRANCH  24  25
ATOM     25  C   UNL A   1      41.363 -16.354 -36.561  0.00  0.00    -0.053 C 
BRANCH  25  26
ATOM     26  C   UNL A   1      41.188 -17.410 -35.468  0.00  0.00    -0.053 C 
BRANCH  26  27
ATOM     27  C   UNL A   1      41.775 -16.931 -34.138  0.00  0.00    -0.052 C 
BRANCH  27  28
ATOM     28  C   UNL A   1      42.194 -18.079 -33.214  0.00  0.00    -0.037 C 
BRANCH  28  29
ATOM     29  C   UNL A   1      43.516 -18.727 -33.636  0.00  0.00    +0.009 C 
BRANCH  29  30
ATOM     30  N   UNL A   1      43.416 -20.193 -33.720  0.00  0.00    -0.343 N 
ATOM     31  H   UNL A   1      43.966 -20.789 -33.162  0.00  0.00    +0.000 HD
BRANCH  30  32
ATOM     32  C   UNL A   1      42.471 -20.691 -34.658  0.00  0.00    +0.041 A 
ATOM     33  C   UNL A   1      41.264 -21.271 -34.212  0.00  0.00    -0.005 A 
ATOM     34  C   UNL A   1      40.340 -21.675 -35.182  0.00  0.00    +0.047 A 
ATOM     35  N   UNL A   1      40.530 -21.498 -36.510  0.00  0.00    -0.251 NA
ATOM     36  C   UNL A   1      41.684 -20.969 -36.935  0.00  0.00    +0.073 A 
ATOM     37  C   UNL A   1      41.872 -20.837 -38.305  0.00  0.00    -0.036 A 
ATOM     38  C   UNL A   1      43.057 -20.334 -38.845  0.00  0.00    -0.060 A 
ATOM     39  C   UNL A   1      44.089 -19.962 -37.998  0.00  0.00    -0.061 A 
ATOM     40  C   UNL A   1      43.917 -20.081 -36.619  0.00  0.00    -0.051 A 
ATOM     41  C   UNL A   1      42.706 -20.560 -36.057  0.00  0.00    +0.021 A 
ATOM     42  C   UNL A   1      39.015 -22.292 -34.815  0.00  0.00    -0.010 C 
ATOM     43  C   UNL A   1      39.002 -22.899 -33.417  0.00  0.00    -0.047 C 
ATOM     44  C   UNL A   1      39.545 -21.890 -32.420  0.00  0.00    -0.049 C 
ATOM     45  C   UNL A   1      40.996 -21.538 -32.748  0.00  0.00    -0.024 C 
ENDBRANCH  30  32
ENDBRANCH  29  30
ENDBRANCH  28  29
ENDBRANCH  27  28
ENDBRANCH  26  27
ENDBRANCH  25  26
ENDBRANCH  24  25
ENDBRANCH   1  24
TORSDOF 14
ENDMDL
MODEL 5
REMARK VINA RESULT:    -6.339     16.853     20.257
REMARK INTER + INTRA:         -16.882
REMARK INTER:                 -12.759
REMARK INTRA:                  -4.123
REMARK UNBOUND:                -5.356
REMARK  Name = cpd26.pdb
REMARK  16 active torsions:
REMARK  status: ('A' for Active; 'I' for Inactive)
REMARK    1  A    between atoms: C_1  and  C_2
REMARK    2  A    between atoms: C_6  and  N_7
REMARK    3  A    between atoms: N_7  and  C_8
REMARK    4  A    between atoms: C_13  and  C_14
REMARK    5  A    between atoms: N_16  and  C_17
REMARK    6  A    between atoms: C_17  and  C_18
REMARK    7  A    between atoms: C_18  and  C_19
REMARK    8  A    between atoms: C_19  and  C_20
REMARK    9  A    between atoms: C_20  and  C_21
REMARK   10  A    between atoms: C_21  and  C_22
REMARK   11  A    between atoms: C_22  and  C_23
REMARK   12  A    between atoms: C_23  and  C_24
REMARK   13  A    between atoms: C_24  and  C_25
REMARK   14  A    between atoms: C_25  and  N_26
REMARK   15  A    between atoms: N_26  and  C_27
REMARK   16  A    between atoms: C_41  and  C_42
REMARK                            x       y       z     vdW  Elec       q    Type
REMARK                         _______ _______ _______ _____ _____    ______ ____
ROOT
ATOM      1  C   UNL A   1      32.505 -38.091 -32.725  0.00  0.00    -0.052 C 
ENDROOT
BRANCH   1   2
ATOM      2  C   UNL A   1      33.059 -39.344 -33.406  0.00  0.00    -0.037 C 
BRANCH   2   3
ATOM      3  C   UNL A   1      33.845 -40.259 -32.469  0.00  0.00    +0.012 C 
BRANCH   3   6
ATOM      4  C   UNL A   1      35.006 -39.641 -30.381  0.00  0.00    +0.246 C 
ATOM      5  O   UNL A   1      36.094 -40.026 -30.799  0.00  0.00    -0.270 OA
ATOM      6  N   UNL A   1      33.838 -39.746 -31.113  0.00  0.00    -0.311 N 
ATOM      7  H   UNL A   1      32.985 -39.468 -30.706  0.00  0.00    +0.000 HD
BRANCH   4  13
ATOM      8  C   UNL A   1      35.773 -37.903 -28.723  0.00  0.00    +0.044 A 
ATOM      9  C   UNL A   1      35.589 -37.253 -27.490  0.00  0.00    -0.040 A 
ATOM     10  C   UNL A   1      34.644 -37.702 -26.566  0.00  0.00    -0.060 A 
ATOM     11  C   UNL A   1      33.846 -38.803 -26.864  0.00  0.00    -0.061 A 
ATOM     12  C   UNL A   1      33.973 -39.437 -28.100  0.00  0.00    -0.048 A 
ATOM     13  C   UNL A   1      34.906 -38.974 -29.046  0.00  0.00    +0.058 A 
BRANCH   8  14
ATOM     14  N   UNL A   1      36.712 -37.394 -29.664  0.00  0.00    -0.314 N 
ATOM     15  H   UNL A   1      36.335 -36.933 -30.448  0.00  0.00    +0.000 HD
BRANCH  14  21
ATOM     16  C   UNL A   1      41.172 -36.406 -31.700  0.00  0.00    -0.039 C 
ATOM     17  C   UNL A   1      40.306 -37.033 -30.642  0.00  0.00    -0.046 A 
ATOM     18  C   UNL A   1      40.916 -37.818 -29.652  0.00  0.00    -0.058 A 
ATOM     19  C   UNL A   1      40.155 -38.444 -28.671  0.00  0.00    -0.060 A 
ATOM     20  C   UNL A   1      38.772 -38.288 -28.663  0.00  0.00    -0.040 A 
ATOM     21  C   UNL A   1      38.131 -37.472 -29.608  0.00  0.00    +0.035 A 
ATOM     22  C   UNL A   1      38.903 -36.844 -30.615  0.00  0.00    -0.026 A 
ATOM     23  C   UNL A   1      38.217 -36.025 -31.682  0.00  0.00    -0.038 C 
ENDBRANCH  14  21
ENDBRANCH   8  14
ENDBRANCH   4  13
ENDBRANCH   3   6
ENDBRANCH   2   3
ENDBRANCH   1   2
BRANCH   1  24
ATOM     24  C   UNL A   1      33.551 -36.996 -32.501  0.00  0.00    -0.053 C 
BRANCH  24  25
ATOM     25  C   UNL A   1      32.979 -35.613 -32.816  0.00  0.00    -0.053 C 
BRANCH  25  26
ATOM     26  C   UNL A   1      33.831 -34.501 -32.201  0.00  0.00    -0.053 C 
BRANCH  26  27
ATOM     27  C   UNL A   1      34.811 -35.065 -31.168  0.00  0.00    -0.052 C 
BRANCH  27  28
ATOM     28  C   UNL A   1      35.143 -34.075 -30.048  0.00  0.00    -0.037 C 
BRANCH  28  29
ATOM     29  C   UNL A   1      34.205 -32.865 -30.030  0.00  0.00    +0.009 C 
BRANCH  29  30
ATOM     30  N   UNL A   1      33.154 -32.991 -29.007  0.00  0.00    -0.343 N 
ATOM     31  H   UNL A   1      33.341 -32.891 -28.046  0.00  0.00    +0.000 HD
BRANCH  30  32
ATOM     32  C   UNL A   1      31.849 -33.267 -29.500  0.00  0.00    +0.041 A 
ATOM     33  C   UNL A   1      31.289 -34.554 -29.347  0.00  0.00    -0.005 A 
ATOM     34  C   UNL A   1      29.974 -34.747 -29.783  0.00  0.00    +0.047 A 
ATOM     35  N   UNL A   1      29.209 -33.756 -30.299  0.00  0.00    -0.251 NA
ATOM     36  C   UNL A   1      29.746 -32.542 -30.466  0.00  0.00    +0.073 A 
ATOM     37  C   UNL A   1      28.954 -31.555 -31.037  0.00  0.00    -0.036 A 
ATOM     38  C   UNL A   1      29.438 -30.269 -31.287  0.00  0.00    -0.060 A 
ATOM     39  C   UNL A   1      30.751 -29.961 -30.971  0.00  0.00    -0.061 A 
ATOM     40  C   UNL A   1      31.560 -30.937 -30.390  0.00  0.00    -0.051 A 
ATOM     41  C   UNL A   1      31.071 -32.236 -30.101  0.00  0.00    +0.021 A 
ATOM     42  C   UNL A   1      29.276 -36.076 -29.654  0.00  0.00    -0.010 C 
ATOM     43  C   UNL A   1      30.238 -37.250 -29.522  0.00  0.00    -0.047 C 
ATOM     44  C   UNL A   1      31.263 -36.947 -28.442  0.00  0.00    -0.049 C 
ATOM     45  C   UNL A   1      32.092 -35.719 -28.816  0.00  0.00    -0.024 C 
ENDBRANCH  30  32
ENDBRANCH  29  30
ENDBRANCH  28  29
ENDBRANCH  27  28
ENDBRANCH  26  27
ENDBRANCH  25  26
ENDBRANCH  24  25
ENDBRANCH   1  24
TORSDOF 14
ENDMDL
MODEL 6
REMARK VINA RESULT:    -6.337      2.173      4.344
REMARK INTER + INTRA:         -16.878
REMARK INTER:                 -11.809
REMARK INTRA:                  -5.069
REMARK UNBOUND:                -5.356
REMARK  Name = cpd26.pdb
REMARK  16 active torsions:
REMARK  status: ('A' for Active; 'I' for Inactive)
REMARK    1  A    between atoms: C_1  and  C_2
REMARK    2  A    between atoms: C_6  and  N_7
REMARK    3  A    between atoms: N_7  and  C_8
REMARK    4  A    between atoms: C_13  and  C_14
REMARK    5  A    between atoms: N_16  and  C_17
REMARK    6  A    between atoms: C_17  and  C_18
REMARK    7  A    between atoms: C_18  and  C_19
REMARK    8  A    between atoms: C_19  and  C_20
REMARK    9  A    between atoms: C_20  and  C_21
REMARK   10  A    between atoms: C_21  and  C_22
REMARK   11  A    between atoms: C_22  and  C_23
REMARK   12  A    between atoms: C_23  and  C_24
REMARK   13  A    between atoms: C_24  and  C_25
REMARK   14  A    between atoms: C_25  and  N_26
REMARK   15  A    between atoms: N_26  and  C_27
REMARK   16  A    between atoms: C_41  and  C_42
REMARK                            x       y       z     vdW  Elec       q    Type
REMARK                         _______ _______ _______ _____ _____    ______ ____
ROOT
ATOM      1  C   UNL A   1      40.014 -16.819 -38.499  0.00  0.00    -0.052 C 
ENDROOT
BRANCH   1   2
ATOM      2  C   UNL A   1      41.108 -16.612 -39.549  0.00  0.00    -0.037 C 
BRANCH   2   3
ATOM      3  C   UNL A   1      41.604 -15.171 -39.648  0.00  0.00    +0.012 C 
BRANCH   3   6
ATOM      4  C   UNL A   1      44.009 -15.648 -39.372  0.00  0.00    +0.246 C 
ATOM      5  O   UNL A   1      43.850 -16.123 -38.252  0.00  0.00    -0.270 OA
ATOM      6  N   UNL A   1      42.973 -15.122 -40.121  0.00  0.00    -0.311 N 
ATOM      7  H   UNL A   1      43.168 -14.706 -40.992  0.00  0.00    +0.000 HD
BRANCH   4  13
ATOM      8  C   UNL A   1      45.985 -16.900 -40.312  0.00  0.00    +0.044 A 
ATOM      9  C   UNL A   1      47.217 -16.871 -40.987  0.00  0.00    -0.040 A 
ATOM     10  C   UNL A   1      47.859 -15.665 -41.276  0.00  0.00    -0.060 A 
ATOM     11  C   UNL A   1      47.269 -14.458 -40.912  0.00  0.00    -0.061 A 
ATOM     12  C   UNL A   1      46.024 -14.456 -40.284  0.00  0.00    -0.048 A 
ATOM     13  C   UNL A   1      45.360 -15.666 -40.012  0.00  0.00    +0.058 A 
BRANCH   8  14
ATOM     14  N   UNL A   1      45.332 -18.143 -40.072  0.00  0.00    -0.314 N 
ATOM     15  H   UNL A   1      44.941 -18.262 -39.177  0.00  0.00    +0.000 HD
BRANCH  14  21
ATOM     16  C   UNL A   1      46.608 -22.758 -41.517  0.00  0.00    -0.039 C 
ATOM     17  C   UNL A   1      45.852 -21.471 -41.703  0.00  0.00    -0.046 A 
ATOM     18  C   UNL A   1      45.078 -21.307 -42.862  0.00  0.00    -0.058 A 
ATOM     19  C   UNL A   1      44.386 -20.123 -43.093  0.00  0.00    -0.060 A 
ATOM     20  C   UNL A   1      44.454 -19.088 -42.165  0.00  0.00    -0.040 A 
ATOM     21  C   UNL A   1      45.178 -19.234 -40.972  0.00  0.00    +0.035 A 
ATOM     22  C   UNL A   1      45.894 -20.434 -40.740  0.00  0.00    -0.026 A 
ATOM     23  C   UNL A   1      46.738 -20.573 -39.495  0.00  0.00    -0.038 C 
ENDBRANCH  14  21
ENDBRANCH   8  14
ENDBRANCH   4  13
ENDBRANCH   3   6
ENDBRANCH   2   3
ENDBRANCH   1   2
BRANCH   1  24
ATOM     24  C   UNL A   1      40.186 -18.093 -37.670  0.00  0.00    -0.053 C 
BRANCH  24  25
ATOM     25  C   UNL A   1      40.857 -17.792 -36.328  0.00  0.00    -0.053 C 
BRANCH  25  26
ATOM     26  C   UNL A   1      40.057 -18.372 -35.160  0.00  0.00    -0.053 C 
BRANCH  26  27
ATOM     27  C   UNL A   1      39.071 -19.440 -35.642  0.00  0.00    -0.052 C 
BRANCH  27  28
ATOM     28  C   UNL A   1      39.185 -20.759 -34.872  0.00  0.00    -0.037 C 
BRANCH  28  29
ATOM     29  C   UNL A   1      40.546 -20.931 -34.192  0.00  0.00    +0.009 C 
BRANCH  29  30
ATOM     30  N   UNL A   1      41.430 -21.841 -34.938  0.00  0.00    -0.343 N 
ATOM     31  H   UNL A   1      41.489 -22.802 -34.731  0.00  0.00    +0.000 HD
BRANCH  30  32
ATOM     32  C   UNL A   1      42.192 -21.241 -35.977  0.00  0.00    +0.041 A 
ATOM     33  C   UNL A   1      41.817 -21.419 -37.327  0.00  0.00    -0.005 A 
ATOM     34  C   UNL A   1      42.559 -20.744 -38.302  0.00  0.00    +0.047 A 
ATOM     35  N   UNL A   1      43.580 -19.904 -38.011  0.00  0.00    -0.251 NA
ATOM     36  C   UNL A   1      43.951 -19.753 -36.734  0.00  0.00    +0.073 A 
ATOM     37  C   UNL A   1      45.029 -18.919 -36.465  0.00  0.00    -0.036 A 
ATOM     38  C   UNL A   1      45.514 -18.729 -35.170  0.00  0.00    -0.060 A 
ATOM     39  C   UNL A   1      44.917 -19.397 -34.113  0.00  0.00    -0.061 A 
ATOM     40  C   UNL A   1      43.829 -20.234 -34.362  0.00  0.00    -0.051 A 
ATOM     41  C   UNL A   1      43.306 -20.409 -35.668  0.00  0.00    +0.021 A 
ATOM     42  C   UNL A   1      42.235 -20.852 -39.770  0.00  0.00    -0.010 C 
ATOM     43  C   UNL A   1      41.436 -22.102 -40.118  0.00  0.00    -0.047 C 
ATOM     44  C   UNL A   1      40.246 -22.221 -39.181  0.00  0.00    -0.049 C 
ATOM     45  C   UNL A   1      40.714 -22.370 -37.734  0.00  0.00    -0.024 C 
ENDBRANCH  30  32
ENDBRANCH  29  30
ENDBRANCH  28  29
ENDBRANCH  27  28
ENDBRANCH  26  27
ENDBRANCH  25  26
ENDBRANCH  24  25
ENDBRANCH   1  24
TORSDOF 14
ENDMDL
MODEL 7
REMARK VINA RESULT:    -6.180      2.400      3.988
REMARK INTER + INTRA:         -16.593
REMARK INTER:                 -12.529
REMARK INTRA:                  -4.064
REMARK UNBOUND:                -5.356
REMARK  Name = cpd26.pdb
REMARK  16 active torsions:
REMARK  status: ('A' for Active; 'I' for Inactive)
REMARK    1  A    between atoms: C_1  and  C_2
REMARK    2  A    between atoms: C_6  and  N_7
REMARK    3  A    between atoms: N_7  and  C_8
REMARK    4  A    between atoms: C_13  and  C_14
REMARK    5  A    between atoms: N_16  and  C_17
REMARK    6  A    between atoms: C_17  and  C_18
REMARK    7  A    between atoms: C_18  and  C_19
REMARK    8  A    between atoms: C_19  and  C_20
REMARK    9  A    between atoms: C_20  and  C_21
REMARK   10  A    between atoms: C_21  and  C_22
REMARK   11  A    between atoms: C_22  and  C_23
REMARK   12  A    between atoms: C_23  and  C_24
REMARK   13  A    between atoms: C_24  and  C_25
REMARK   14  A    between atoms: C_25  and  N_26
REMARK   15  A    between atoms: N_26  and  C_27
REMARK   16  A    between atoms: C_41  and  C_42
REMARK                            x       y       z     vdW  Elec       q    Type
REMARK                         _______ _______ _______ _____ _____    ______ ____
ROOT
ATOM      1  C   UNL A   1      43.611 -14.034 -38.509  0.00  0.00    -0.052 C 
ENDROOT
BRANCH   1   2
ATOM      2  C   UNL A   1      44.477 -13.702 -39.727  0.00  0.00    -0.037 C 
BRANCH   2   3
ATOM      3  C   UNL A   1      45.933 -14.141 -39.586  0.00  0.00    +0.012 C 
BRANCH   3   6
ATOM      4  C   UNL A   1      47.200 -15.832 -38.311  0.00  0.00    +0.246 C 
ATOM      5  O   UNL A   1      48.234 -15.173 -38.345  0.00  0.00    -0.270 OA
ATOM      6  N   UNL A   1      46.027 -15.426 -38.922  0.00  0.00    -0.311 N 
ATOM      7  H   UNL A   1      45.243 -16.021 -38.906  0.00  0.00    +0.000 HD
BRANCH   4  13
ATOM      8  C   UNL A   1      47.097 -18.349 -38.224  0.00  0.00    +0.044 A 
ATOM      9  C   UNL A   1      47.134 -19.529 -37.461  0.00  0.00    -0.040 A 
ATOM     10  C   UNL A   1      47.128 -19.492 -36.065  0.00  0.00    -0.060 A 
ATOM     11  C   UNL A   1      47.105 -18.269 -35.401  0.00  0.00    -0.061 A 
ATOM     12  C   UNL A   1      47.118 -17.082 -36.134  0.00  0.00    -0.048 A 
ATOM     13  C   UNL A   1      47.149 -17.112 -37.540  0.00  0.00    +0.058 A 
BRANCH   8  14
ATOM     14  N   UNL A   1      47.151 -18.418 -39.646  0.00  0.00    -0.314 N 
ATOM     15  H   UNL A   1      48.013 -18.182 -40.059  0.00  0.00    +0.000 HD
BRANCH  14  21
ATOM     16  C   UNL A   1      45.165 -21.725 -42.828  0.00  0.00    -0.039 C 
ATOM     17  C   UNL A   1      45.175 -20.387 -42.139  0.00  0.00    -0.046 A 
ATOM     18  C   UNL A   1      44.200 -19.442 -42.490  0.00  0.00    -0.058 A 
ATOM     19  C   UNL A   1      44.187 -18.182 -41.903  0.00  0.00    -0.060 A 
ATOM     20  C   UNL A   1      45.147 -17.851 -40.951  0.00  0.00    -0.040 A 
ATOM     21  C   UNL A   1      46.109 -18.786 -40.540  0.00  0.00    +0.035 A 
ATOM     22  C   UNL A   1      46.131 -20.066 -41.145  0.00  0.00    -0.026 A 
ATOM     23  C   UNL A   1      47.208 -21.055 -40.765  0.00  0.00    -0.038 C 
ENDBRANCH  14  21
ENDBRANCH   8  14
ENDBRANCH   4  13
ENDBRANCH   3   6
ENDBRANCH   2   3
ENDBRANCH   1   2
BRANCH   1  24
ATOM     24  C   UNL A   1      42.733 -15.273 -38.695  0.00  0.00    -0.053 C 
BRANCH  24  25
ATOM     25  C   UNL A   1      42.618 -16.069 -37.393  0.00  0.00    -0.053 C 
BRANCH  25  26
ATOM     26  C   UNL A   1      43.584 -17.255 -37.377  0.00  0.00    -0.053 C 
BRANCH  26  27
ATOM     27  C   UNL A   1      43.423 -18.080 -36.097  0.00  0.00    -0.052 C 
BRANCH  27  28
ATOM     28  C   UNL A   1      42.189 -17.690 -35.278  0.00  0.00    -0.037 C 
BRANCH  28  29
ATOM     29  C   UNL A   1      41.334 -18.898 -34.885  0.00  0.00    +0.009 C 
BRANCH  29  30
ATOM     30  N   UNL A   1      40.214 -19.113 -35.816  0.00  0.00    -0.343 N 
ATOM     31  H   UNL A   1      39.591 -18.392 -36.063  0.00  0.00    +0.000 HD
BRANCH  30  32
ATOM     32  C   UNL A   1      40.091 -20.431 -36.334  0.00  0.00    +0.041 A 
ATOM     33  C   UNL A   1      40.707 -20.775 -37.557  0.00  0.00    -0.005 A 
ATOM     34  C   UNL A   1      40.616 -22.105 -37.979  0.00  0.00    +0.047 A 
ATOM     35  N   UNL A   1      40.008 -23.075 -37.257  0.00  0.00    -0.251 NA
ATOM     36  C   UNL A   1      39.404 -22.746 -36.109  0.00  0.00    +0.073 A 
ATOM     37  C   UNL A   1      38.751 -23.751 -35.407  0.00  0.00    -0.036 A 
ATOM     38  C   UNL A   1      38.060 -23.498 -34.221  0.00  0.00    -0.060 A 
ATOM     39  C   UNL A   1      38.007 -22.206 -33.725  0.00  0.00    -0.061 A 
ATOM     40  C   UNL A   1      38.662 -21.184 -34.411  0.00  0.00    -0.051 A 
ATOM     41  C   UNL A   1      39.394 -21.433 -35.599  0.00  0.00    +0.021 A 
ATOM     42  C   UNL A   1      41.249 -22.581 -39.262  0.00  0.00    -0.010 C 
ATOM     43  C   UNL A   1      41.507 -21.458 -40.257  0.00  0.00    -0.047 C 
ATOM     44  C   UNL A   1      42.231 -20.318 -39.561  0.00  0.00    -0.049 C 
ATOM     45  C   UNL A   1      41.370 -19.740 -38.438  0.00  0.00    -0.024 C 
ENDBRANCH  30  32
ENDBRANCH  29  30
ENDBRANCH  28  29
ENDBRANCH  27  28
ENDBRANCH  26  27
ENDBRANCH  25  26
ENDBRANCH  24  25
ENDBRANCH   1  24
TORSDOF 14
ENDMDL
MODEL 8
REMARK VINA RESULT:    -6.159      2.196      3.822
REMARK INTER + INTRA:         -16.555
REMARK INTER:                 -11.837
REMARK INTRA:                  -4.719
REMARK UNBOUND:                -5.356
REMARK  Name = cpd26.pdb
REMARK  16 active torsions:
REMARK  status: ('A' for Active; 'I' for Inactive)
REMARK    1  A    between atoms: C_1  and  C_2
REMARK    2  A    between atoms: C_6  and  N_7
REMARK    3  A    between atoms: N_7  and  C_8
REMARK    4  A    between atoms: C_13  and  C_14
REMARK    5  A    between atoms: N_16  and  C_17
REMARK    6  A    between atoms: C_17  and  C_18
REMARK    7  A    between atoms: C_18  and  C_19
REMARK    8  A    between atoms: C_19  and  C_20
REMARK    9  A    between atoms: C_20  and  C_21
REMARK   10  A    between atoms: C_21  and  C_22
REMARK   11  A    between atoms: C_22  and  C_23
REMARK   12  A    between atoms: C_23  and  C_24
REMARK   13  A    between atoms: C_24  and  C_25
REMARK   14  A    between atoms: C_25  and  N_26
REMARK   15  A    between atoms: N_26  and  C_27
REMARK   16  A    between atoms: C_41  and  C_42
REMARK                            x       y       z     vdW  Elec       q    Type
REMARK                         _______ _______ _______ _____ _____    ______ ____
ROOT
ATOM      1  C   UNL A   1      43.670 -19.710 -35.481  0.00  0.00    -0.052 C 
ENDROOT
BRANCH   1   2
ATOM      2  C   UNL A   1      45.116 -19.700 -34.980  0.00  0.00    -0.037 C 
BRANCH   2   3
ATOM      3  C   UNL A   1      46.149 -19.975 -36.072  0.00  0.00    +0.012 C 
BRANCH   3   6
ATOM      4  C   UNL A   1      46.176 -19.566 -38.506  0.00  0.00    +0.246 C 
ATOM      5  O   UNL A   1      47.277 -19.026 -38.465  0.00  0.00    -0.270 OA
ATOM      6  N   UNL A   1      45.524 -20.032 -37.378  0.00  0.00    -0.311 N 
ATOM      7  H   UNL A   1      44.619 -20.410 -37.465  0.00  0.00    +0.000 HD
BRANCH   4  13
ATOM      8  C   UNL A   1      44.928 -18.709 -40.521  0.00  0.00    +0.044 A 
ATOM      9  C   UNL A   1      44.375 -18.958 -41.789  0.00  0.00    -0.040 A 
ATOM     10  C   UNL A   1      44.302 -20.253 -42.308  0.00  0.00    -0.060 A 
ATOM     11  C   UNL A   1      44.800 -21.326 -41.575  0.00  0.00    -0.061 A 
ATOM     12  C   UNL A   1      45.399 -21.101 -40.336  0.00  0.00    -0.048 A 
ATOM     13  C   UNL A   1      45.498 -19.797 -39.818  0.00  0.00    +0.058 A 
BRANCH   8  14
ATOM     14  N   UNL A   1      45.032 -17.373 -40.039  0.00  0.00    -0.314 N 
ATOM     15  H   UNL A   1      44.494 -17.157 -39.243  0.00  0.00    +0.000 HD
BRANCH  14  21
ATOM     16  C   UNL A   1      45.315 -12.964 -42.382  0.00  0.00    -0.039 C 
ATOM     17  C   UNL A   1      45.947 -14.183 -41.767  0.00  0.00    -0.046 A 
ATOM     18  C   UNL A   1      47.341 -14.326 -41.837  0.00  0.00    -0.058 A 
ATOM     19  C   UNL A   1      47.968 -15.450 -41.311  0.00  0.00    -0.060 A 
ATOM     20  C   UNL A   1      47.209 -16.445 -40.700  0.00  0.00    -0.040 A 
ATOM     21  C   UNL A   1      45.819 -16.314 -40.569  0.00  0.00    +0.035 A 
ATOM     22  C   UNL A   1      45.177 -15.176 -41.115  0.00  0.00    -0.026 A 
ATOM     23  C   UNL A   1      43.672 -15.061 -41.046  0.00  0.00    -0.038 C 
ENDBRANCH  14  21
ENDBRANCH   8  14
ENDBRANCH   4  13
ENDBRANCH   3   6
ENDBRANCH   2   3
ENDBRANCH   1   2
BRANCH   1  24
ATOM     24  C   UNL A   1      42.661 -19.172 -34.465  0.00  0.00    -0.053 C 
BRANCH  24  25
ATOM     25  C   UNL A   1      42.069 -20.303 -33.622  0.00  0.00    -0.053 C 
BRANCH  25  26
ATOM     26  C   UNL A   1      40.898 -19.812 -32.769  0.00  0.00    -0.053 C 
BRANCH  26  27
ATOM     27  C   UNL A   1      40.614 -18.329 -33.024  0.00  0.00    -0.052 C 
BRANCH  27  28
ATOM     28  C   UNL A   1      39.247 -18.078 -33.669  0.00  0.00    -0.037 C 
BRANCH  28  29
ATOM     29  C   UNL A   1      39.323 -17.975 -35.195  0.00  0.00    +0.009 C 
BRANCH  29  30
ATOM     30  N   UNL A   1      38.514 -19.008 -35.863  0.00  0.00    -0.343 N 
ATOM     31  H   UNL A   1      37.590 -18.841 -36.157  0.00  0.00    +0.000 HD
BRANCH  30  32
ATOM     32  C   UNL A   1      39.157 -20.260 -36.058  0.00  0.00    +0.041 A 
ATOM     33  C   UNL A   1      40.156 -20.402 -37.045  0.00  0.00    -0.005 A 
ATOM     34  C   UNL A   1      40.807 -21.637 -37.140  0.00  0.00    +0.047 A 
ATOM     35  N   UNL A   1      40.554 -22.676 -36.310  0.00  0.00    -0.251 NA
ATOM     36  C   UNL A   1      39.592 -22.551 -35.389  0.00  0.00    +0.073 A 
ATOM     37  C   UNL A   1      39.323 -23.646 -34.577  0.00  0.00    -0.036 A 
ATOM     38  C   UNL A   1      38.312 -23.625 -33.615  0.00  0.00    -0.060 A 
ATOM     39  C   UNL A   1      37.538 -22.485 -33.464  0.00  0.00    -0.061 A 
ATOM     40  C   UNL A   1      37.796 -21.373 -34.264  0.00  0.00    -0.051 A 
ATOM     41  C   UNL A   1      38.841 -21.371 -35.222  0.00  0.00    +0.021 A 
ATOM     42  C   UNL A   1      41.897 -21.890 -38.149  0.00  0.00    -0.010 C 
ATOM     43  C   UNL A   1      41.853 -20.934 -39.334  0.00  0.00    -0.047 C 
ATOM     44  C   UNL A   1      41.756 -19.504 -38.829  0.00  0.00    -0.049 C 
ATOM     45  C   UNL A   1      40.466 -19.301 -38.034  0.00  0.00    -0.024 C 
ENDBRANCH  30  32
ENDBRANCH  29  30
ENDBRANCH  28  29
ENDBRANCH  27  28
ENDBRANCH  26  27
ENDBRANCH  25  26
ENDBRANCH  24  25
ENDBRANCH   1  24
TORSDOF 14
ENDMDL
MODEL 9
REMARK VINA RESULT:    -6.148      1.715      4.113
REMARK INTER + INTRA:         -16.536
REMARK INTER:                 -12.865
REMARK INTRA:                  -3.671
REMARK UNBOUND:                -5.356
REMARK  Name = cpd26.pdb
REMARK  16 active torsions:
REMARK  status: ('A' for Active; 'I' for Inactive)
REMARK    1  A    between atoms: C_1  and  C_2
REMARK    2  A    between atoms: C_6  and  N_7
REMARK    3  A    between atoms: N_7  and  C_8
REMARK    4  A    between atoms: C_13  and  C_14
REMARK    5  A    between atoms: N_16  and  C_17
REMARK    6  A    between atoms: C_17  and  C_18
REMARK    7  A    between atoms: C_18  and  C_19
REMARK    8  A    between atoms: C_19  and  C_20
REMARK    9  A    between atoms: C_20  and  C_21
REMARK   10  A    between atoms: C_21  and  C_22
REMARK   11  A    between atoms: C_22  and  C_23
REMARK   12  A    between atoms: C_23  and  C_24
REMARK   13  A    between atoms: C_24  and  C_25
REMARK   14  A    between atoms: C_25  and  N_26
REMARK   15  A    between atoms: N_26  and  C_27
REMARK   16  A    between atoms: C_41  and  C_42
REMARK                            x       y       z     vdW  Elec       q    Type
REMARK                         _______ _______ _______ _____ _____    ______ ____
ROOT
ATOM      1  C   UNL A   1      42.498 -17.806 -33.677  0.00  0.00    -0.052 C 
ENDROOT
BRANCH   1   2
ATOM      2  C   UNL A   1      43.902 -17.396 -34.125  0.00  0.00    -0.037 C 
BRANCH   2   3
ATOM      3  C   UNL A   1      44.641 -18.478 -34.909  0.00  0.00    +0.012 C 
BRANCH   3   6
ATOM      4  C   UNL A   1      45.974 -18.731 -36.971  0.00  0.00    +0.246 C 
ATOM      5  O   UNL A   1      46.224 -19.911 -36.738  0.00  0.00    -0.270 OA
ATOM      6  N   UNL A   1      45.236 -17.935 -36.115  0.00  0.00    -0.311 N 
ATOM      7  H   UNL A   1      45.111 -16.982 -36.327  0.00  0.00    +0.000 HD
BRANCH   4  13
ATOM      8  C   UNL A   1      46.282 -18.804 -39.472  0.00  0.00    +0.044 A 
ATOM      9  C   UNL A   1      46.645 -18.145 -40.658  0.00  0.00    -0.040 A 
ATOM     10  C   UNL A   1      47.220 -16.872 -40.636  0.00  0.00    -0.060 A 
ATOM     11  C   UNL A   1      47.426 -16.223 -39.423  0.00  0.00    -0.061 A 
ATOM     12  C   UNL A   1      47.030 -16.834 -38.233  0.00  0.00    -0.048 A 
ATOM     13  C   UNL A   1      46.427 -18.105 -38.250  0.00  0.00    +0.058 A 
BRANCH   8  14
ATOM     14  N   UNL A   1      45.655 -20.082 -39.529  0.00  0.00    -0.314 N 
ATOM     15  H   UNL A   1      45.163 -20.360 -38.723  0.00  0.00    +0.000 HD
BRANCH  14  21
ATOM     16  C   UNL A   1      47.936 -23.711 -42.105  0.00  0.00    -0.039 C 
ATOM     17  C   UNL A   1      46.806 -22.740 -41.898  0.00  0.00    -0.046 A 
ATOM     18  C   UNL A   1      45.798 -22.664 -42.870  0.00  0.00    -0.058 A 
ATOM     19  C   UNL A   1      44.749 -21.760 -42.739  0.00  0.00    -0.060 A 
ATOM     20  C   UNL A   1      44.691 -20.923 -41.628  0.00  0.00    -0.040 A 
ATOM     21  C   UNL A   1      45.655 -21.004 -40.612  0.00  0.00    +0.035 A 
ATOM     22  C   UNL A   1      46.731 -21.915 -40.750  0.00  0.00    -0.026 A 
ATOM     23  C   UNL A   1      47.815 -21.958 -39.699  0.00  0.00    -0.038 C 
ENDBRANCH  14  21
ENDBRANCH   8  14
ENDBRANCH   4  13
ENDBRANCH   3   6
ENDBRANCH   2   3
ENDBRANCH   1   2
BRANCH   1  24
ATOM     24  C   UNL A   1      42.127 -19.244 -34.048  0.00  0.00    -0.053 C 
BRANCH  24  25
ATOM     25  C   UNL A   1      41.248 -19.883 -32.971  0.00  0.00    -0.053 C 
BRANCH  25  26
ATOM     26  C   UNL A   1      41.653 -21.334 -32.707  0.00  0.00    -0.053 C 
BRANCH  26  27
ATOM     27  C   UNL A   1      40.463 -22.158 -32.208  0.00  0.00    -0.052 C 
BRANCH  27  28
ATOM     28  C   UNL A   1      40.098 -23.318 -33.139  0.00  0.00    -0.037 C 
BRANCH  28  29
ATOM     29  C   UNL A   1      40.570 -23.092 -34.578  0.00  0.00    +0.009 C 
BRANCH  29  30
ATOM     30  N   UNL A   1      39.456 -22.776 -35.486  0.00  0.00    -0.343 N 
ATOM     31  H   UNL A   1      38.768 -23.439 -35.723  0.00  0.00    +0.000 HD
BRANCH  30  32
ATOM     32  C   UNL A   1      39.440 -21.451 -35.999  0.00  0.00    +0.041 A 
ATOM     33  C   UNL A   1      38.647 -20.459 -35.382  0.00  0.00    -0.005 A 
ATOM     34  C   UNL A   1      38.729 -19.156 -35.883  0.00  0.00    +0.047 A 
ATOM     35  N   UNL A   1      39.555 -18.798 -36.894  0.00  0.00    -0.251 NA
ATOM     36  C   UNL A   1      40.290 -19.741 -37.495  0.00  0.00    +0.073 A 
ATOM     37  C   UNL A   1      41.098 -19.356 -38.557  0.00  0.00    -0.036 A 
ATOM     38  C   UNL A   1      41.870 -20.274 -39.272  0.00  0.00    -0.060 A 
ATOM     39  C   UNL A   1      41.828 -21.616 -38.927  0.00  0.00    -0.061 A 
ATOM     40  C   UNL A   1      41.028 -22.021 -37.860  0.00  0.00    -0.051 A 
ATOM     41  C   UNL A   1      40.265 -21.094 -37.105  0.00  0.00    +0.021 A 
ATOM     42  C   UNL A   1      37.937 -18.020 -35.288  0.00  0.00    -0.010 C 
ATOM     43  C   UNL A   1      36.714 -18.484 -34.507  0.00  0.00    -0.047 C 
ATOM     44  C   UNL A   1      37.121 -19.573 -33.529  0.00  0.00    -0.049 C 
ATOM     45  C   UNL A   1      37.671 -20.788 -34.275  0.00  0.00    -0.024 C 
ENDBRANCH  30  32
ENDBRANCH  29  30
ENDBRANCH  28  29
ENDBRANCH  27  28
ENDBRANCH  26  27
ENDBRANCH  25  26
ENDBRANCH  24  25
ENDBRANCH   1  24
TORSDOF 14
ENDMDL
MODEL 10
REMARK VINA RESULT:    -6.103      2.439      7.130
REMARK INTER + INTRA:         -16.453
REMARK INTER:                 -11.576
REMARK INTRA:                  -4.878
REMARK UNBOUND:                -5.356
REMARK  Name = cpd26.pdb
REMARK  16 active torsions:
REMARK  status: ('A' for Active; 'I' for Inactive)
REMARK    1  A    between atoms: C_1  and  C_2
REMARK    2  A    between atoms: C_6  and  N_7
REMARK    3  A    between atoms: N_7  and  C_8
REMARK    4  A    between atoms: C_13  and  C_14
REMARK    5  A    between atoms: N_16  and  C_17
REMARK    6  A    between atoms: C_17  and  C_18
REMARK    7  A    between atoms: C_18  and  C_19
REMARK    8  A    between atoms: C_19  and  C_20
REMARK    9  A    between atoms: C_20  and  C_21
REMARK   10  A    between atoms: C_21  and  C_22
REMARK   11  A    between atoms: C_22  and  C_23
REMARK   12  A    between atoms: C_23  and  C_24
REMARK   13  A    between atoms: C_24  and  C_25
REMARK   14  A    between atoms: C_25  and  N_26
REMARK   15  A    between atoms: N_26  and  C_27
REMARK   16  A    between atoms: C_41  and  C_42
REMARK                            x       y       z     vdW  Elec       q    Type
REMARK                         _______ _______ _______ _____ _____    ______ ____
ROOT
ATOM      1  C   UNL A   1      43.323 -15.480 -34.762  0.00  0.00    -0.052 C 
ENDROOT
BRANCH   1   2
ATOM      2  C   UNL A   1      43.883 -16.675 -33.986  0.00  0.00    -0.037 C 
BRANCH   2   3
ATOM      3  C   UNL A   1      43.029 -17.088 -32.790  0.00  0.00    +0.012 C 
BRANCH   3   6
ATOM      4  C   UNL A   1      42.084 -19.309 -33.308  0.00  0.00    +0.246 C 
ATOM      5  O   UNL A   1      43.157 -19.876 -33.124  0.00  0.00    -0.270 OA
ATOM      6  N   UNL A   1      41.930 -17.939 -33.203  0.00  0.00    -0.311 N 
ATOM      7  H   UNL A   1      41.058 -17.533 -33.413  0.00  0.00    +0.000 HD
BRANCH   4  13
ATOM      8  C   UNL A   1      40.849 -21.017 -34.690  0.00  0.00    +0.044 A 
ATOM      9  C   UNL A   1      39.700 -21.803 -34.886  0.00  0.00    -0.040 A 
ATOM     10  C   UNL A   1      38.559 -21.630 -34.100  0.00  0.00    -0.060 A 
ATOM     11  C   UNL A   1      38.550 -20.678 -33.085  0.00  0.00    -0.061 A 
ATOM     12  C   UNL A   1      39.694 -19.918 -32.837  0.00  0.00    -0.048 A 
ATOM     13  C   UNL A   1      40.855 -20.104 -33.609  0.00  0.00    +0.058 A 
BRANCH   8  14
ATOM     14  N   UNL A   1      42.013 -21.248 -35.477  0.00  0.00    -0.314 N 
ATOM     15  H   UNL A   1      42.853 -21.380 -34.981  0.00  0.00    +0.000 HD
BRANCH  14  21
ATOM     16  C   UNL A   1      43.054 -19.023 -39.833  0.00  0.00    -0.039 C 
ATOM     17  C   UNL A   1      42.565 -20.194 -39.025  0.00  0.00    -0.046 A 
ATOM     18  C   UNL A   1      42.075 -21.321 -39.701  0.00  0.00    -0.058 A 
ATOM     19  C   UNL A   1      41.584 -22.415 -38.997  0.00  0.00    -0.060 A 
ATOM     20  C   UNL A   1      41.582 -22.400 -37.605  0.00  0.00    -0.040 A 
ATOM     21  C   UNL A   1      42.108 -21.310 -36.895  0.00  0.00    +0.035 A 
ATOM     22  C   UNL A   1      42.597 -20.190 -37.609  0.00  0.00    -0.026 A 
ATOM     23  C   UNL A   1      43.096 -18.980 -36.854  0.00  0.00    -0.038 C 
ENDBRANCH  14  21
ENDBRANCH   8  14
ENDBRANCH   4  13
ENDBRANCH   3   6
ENDBRANCH   2   3
ENDBRANCH   1   2
BRANCH   1  24
ATOM     24  C   UNL A   1      44.338 -14.822 -35.700  0.00  0.00    -0.053 C 
BRANCH  24  25
ATOM     25  C   UNL A   1      43.963 -15.050 -37.166  0.00  0.00    -0.053 C 
BRANCH  25  26
ATOM     26  C   UNL A   1      44.514 -13.939 -38.062  0.00  0.00    -0.053 C 
BRANCH  26  27
ATOM     27  C   UNL A   1      44.930 -14.488 -39.429  0.00  0.00    -0.052 C 
BRANCH  27  28
ATOM     28  C   UNL A   1      44.886 -16.017 -39.505  0.00  0.00    -0.037 C 
BRANCH  28  29
ATOM     29  C   UNL A   1      45.792 -16.582 -40.602  0.00  0.00    +0.009 C 
BRANCH  29  30
ATOM     30  N   UNL A   1      47.023 -17.177 -40.056  0.00  0.00    -0.343 N 
ATOM     31  H   UNL A   1      47.908 -16.765 -40.187  0.00  0.00    +0.000 HD
BRANCH  30  32
ATOM     32  C   UNL A   1      46.850 -18.386 -39.328  0.00  0.00    +0.041 A 
ATOM     33  C   UNL A   1      46.935 -18.385 -37.919  0.00  0.00    -0.005 A 
ATOM     34  C   UNL A   1      46.681 -19.588 -37.252  0.00  0.00    +0.047 A 
ATOM     35  N   UNL A   1      46.320 -20.728 -37.886  0.00  0.00    -0.251 NA
ATOM     36  C   UNL A   1      46.262 -20.737 -39.223  0.00  0.00    +0.073 A 
ATOM     37  C   UNL A   1      45.931 -21.930 -39.852  0.00  0.00    -0.036 A 
ATOM     38  C   UNL A   1      45.883 -22.046 -41.242  0.00  0.00    -0.060 A 
ATOM     39  C   UNL A   1      46.185 -20.947 -42.030  0.00  0.00    -0.061 A 
ATOM     40  C   UNL A   1      46.513 -19.738 -41.417  0.00  0.00    -0.051 A 
ATOM     41  C   UNL A   1      46.533 -19.598 -40.007  0.00  0.00    +0.021 A 
ATOM     42  C   UNL A   1      46.731 -19.694 -35.749  0.00  0.00    -0.010 C 
ATOM     43  C   UNL A   1      47.559 -18.595 -35.097  0.00  0.00    -0.047 C 
ATOM     44  C   UNL A   1      47.125 -17.243 -35.637  0.00  0.00    -0.049 C 
ATOM     45  C   UNL A   1      47.370 -17.163 -37.143  0.00  0.00    -0.024 C 
ENDBRANCH  30  32
ENDBRANCH  29  30
ENDBRANCH  28  29
ENDBRANCH  27  28
ENDBRANCH  26  27
ENDBRANCH  25  26
ENDBRANCH  24  25
ENDBRANCH   1  24
TORSDOF 14
ENDMDL
MODEL 11
REMARK VINA RESULT:    -6.099      2.112      7.867
REMARK INTER + INTRA:         -16.446
REMARK INTER:                 -12.155
REMARK INTRA:                  -4.291
REMARK UNBOUND:                -5.356
REMARK  Name = cpd26.pdb
REMARK  16 active torsions:
REMARK  status: ('A' for Active; 'I' for Inactive)
REMARK    1  A    between atoms: C_1  and  C_2
REMARK    2  A    between atoms: C_6  and  N_7
REMARK    3  A    between atoms: N_7  and  C_8
REMARK    4  A    between atoms: C_13  and  C_14
REMARK    5  A    between atoms: N_16  and  C_17
REMARK    6  A    between atoms: C_17  and  C_18
REMARK    7  A    between atoms: C_18  and  C_19
REMARK    8  A    between atoms: C_19  and  C_20
REMARK    9  A    between atoms: C_20  and  C_21
REMARK   10  A    between atoms: C_21  and  C_22
REMARK   11  A    between atoms: C_22  and  C_23
REMARK   12  A    between atoms: C_23  and  C_24
REMARK   13  A    between atoms: C_24  and  C_25
REMARK   14  A    between atoms: C_25  and  N_26
REMARK   15  A    between atoms: N_26  and  C_27
REMARK   16  A    between atoms: C_41  and  C_42
REMARK                            x       y       z     vdW  Elec       q    Type
REMARK                         _______ _______ _______ _____ _____    ______ ____
ROOT
ATOM      1  C   UNL A   1      42.171 -19.703 -38.849  0.00  0.00    -0.052 C 
ENDROOT
BRANCH   1   2
ATOM      2  C   UNL A   1      40.887 -19.975 -39.636  0.00  0.00    -0.037 C 
BRANCH   2   3
ATOM      3  C   UNL A   1      39.717 -20.434 -38.768  0.00  0.00    +0.012 C 
BRANCH   3   6
ATOM      4  C   UNL A   1      39.812 -20.396 -36.302  0.00  0.00    +0.246 C 
ATOM      5  O   UNL A   1      39.129 -19.378 -36.230  0.00  0.00    -0.270 OA
ATOM      6  N   UNL A   1      40.184 -20.969 -37.504  0.00  0.00    -0.311 N 
ATOM      7  H   UNL A   1      40.776 -21.756 -37.502  0.00  0.00    +0.000 HD
BRANCH   4  13
ATOM      8  C   UNL A   1      40.949 -20.408 -34.053  0.00  0.00    +0.044 A 
ATOM      9  C   UNL A   1      41.257 -21.093 -32.864  0.00  0.00    -0.040 A 
ATOM     10  C   UNL A   1      40.956 -22.448 -32.707  0.00  0.00    -0.060 A 
ATOM     11  C   UNL A   1      40.321 -23.143 -33.732  0.00  0.00    -0.061 A 
ATOM     12  C   UNL A   1      39.960 -22.476 -34.902  0.00  0.00    -0.048 A 
ATOM     13  C   UNL A   1      40.238 -21.106 -35.057  0.00  0.00    +0.058 A 
BRANCH   8  14
ATOM     14  N   UNL A   1      41.227 -19.016 -34.165  0.00  0.00    -0.314 N 
ATOM     15  H   UNL A   1      40.461 -18.437 -34.383  0.00  0.00    +0.000 HD
BRANCH  14  21
ATOM     16  C   UNL A   1      44.699 -15.853 -35.881  0.00  0.00    -0.039 C 
ATOM     17  C   UNL A   1      44.197 -16.855 -34.878  0.00  0.00    -0.046 A 
ATOM     18  C   UNL A   1      45.045 -17.239 -33.829  0.00  0.00    -0.058 A 
ATOM     19  C   UNL A   1      44.638 -18.185 -32.895  0.00  0.00    -0.060 A 
ATOM     20  C   UNL A   1      43.372 -18.756 -32.993  0.00  0.00    -0.040 A 
ATOM     21  C   UNL A   1      42.479 -18.361 -34.001  0.00  0.00    +0.035 A 
ATOM     22  C   UNL A   1      42.897 -17.408 -34.961  0.00  0.00    -0.026 A 
ATOM     23  C   UNL A   1      41.971 -17.031 -36.093  0.00  0.00    -0.038 C 
ENDBRANCH  14  21
ENDBRANCH   8  14
ENDBRANCH   4  13
ENDBRANCH   3   6
ENDBRANCH   2   3
ENDBRANCH   1   2
BRANCH   1  24
ATOM     24  C   UNL A   1      43.061 -20.936 -38.675  0.00  0.00    -0.053 C 
BRANCH  24  25
ATOM     25  C   UNL A   1      43.645 -21.001 -37.262  0.00  0.00    -0.053 C 
BRANCH  25  26
ATOM     26  C   UNL A   1      44.477 -19.757 -36.944  0.00  0.00    -0.053 C 
BRANCH  26  27
ATOM     27  C   UNL A   1      45.670 -20.106 -36.050  0.00  0.00    -0.052 C 
BRANCH  27  28
ATOM     28  C   UNL A   1      46.963 -19.397 -36.466  0.00  0.00    -0.037 C 
BRANCH  28  29
ATOM     29  C   UNL A   1      46.761 -18.442 -37.646  0.00  0.00    +0.009 C 
BRANCH  29  30
ATOM     30  N   UNL A   1      47.339 -18.968 -38.893  0.00  0.00    -0.343 N 
ATOM     31  H   UNL A   1      48.297 -19.178 -38.980  0.00  0.00    +0.000 HD
BRANCH  30  32
ATOM     32  C   UNL A   1      46.423 -19.154 -39.964  0.00  0.00    +0.041 A 
ATOM     33  C   UNL A   1      46.321 -20.409 -40.603  0.00  0.00    -0.005 A 
ATOM     34  C   UNL A   1      45.349 -20.554 -41.599  0.00  0.00    +0.047 A 
ATOM     35  N   UNL A   1      44.485 -19.570 -41.943  0.00  0.00    -0.251 NA
ATOM     36  C   UNL A   1      44.596 -18.374 -41.355  0.00  0.00    +0.073 A 
ATOM     37  C   UNL A   1      43.725 -17.369 -41.757  0.00  0.00    -0.036 A 
ATOM     38  C   UNL A   1      43.789 -16.078 -41.229  0.00  0.00    -0.060 A 
ATOM     39  C   UNL A   1      44.756 -15.775 -40.284  0.00  0.00    -0.061 A 
ATOM     40  C   UNL A   1      45.635 -16.771 -39.863  0.00  0.00    -0.051 A 
ATOM     41  C   UNL A   1      45.559 -18.095 -40.366  0.00  0.00    +0.021 A 
ATOM     42  C   UNL A   1      45.146 -21.854 -42.334  0.00  0.00    -0.010 C 
ATOM     43  C   UNL A   1      46.365 -22.766 -42.289  0.00  0.00    -0.047 C 
ATOM     44  C   UNL A   1      46.846 -22.901 -40.854  0.00  0.00    -0.049 C 
ATOM     45  C   UNL A   1      47.275 -21.542 -40.301  0.00  0.00    -0.024 C 
ENDBRANCH  30  32
ENDBRANCH  29  30
ENDBRANCH  28  29
ENDBRANCH  27  28
ENDBRANCH  26  27
ENDBRANCH  25  26
ENDBRANCH  24  25
ENDBRANCH   1  24
TORSDOF 14
ENDMDL
MODEL 12
REMARK VINA RESULT:    -6.018      2.290      7.452
REMARK INTER + INTRA:         -16.299
REMARK INTER:                 -11.186
REMARK INTRA:                  -5.114
REMARK UNBOUND:                -5.356
REMARK  Name = cpd26.pdb
REMARK  16 active torsions:
REMARK  status: ('A' for Active; 'I' for Inactive)
REMARK    1  A    between atoms: C_1  and  C_2
REMARK    2  A    between atoms: C_6  and  N_7
REMARK    3  A    between atoms: N_7  and  C_8
REMARK    4  A    between atoms: C_13  and  C_14
REMARK    5  A    between atoms: N_16  and  C_17
REMARK    6  A    between atoms: C_17  and  C_18
REMARK    7  A    between atoms: C_18  and  C_19
REMARK    8  A    between atoms: C_19  and  C_20
REMARK    9  A    between atoms: C_20  and  C_21
REMARK   10  A    between atoms: C_21  and  C_22
REMARK   11  A    between atoms: C_22  and  C_23
REMARK   12  A    between atoms: C_23  and  C_24
REMARK   13  A    between atoms: C_24  and  C_25
REMARK   14  A    between atoms: C_25  and  N_26
REMARK   15  A    between atoms: N_26  and  C_27
REMARK   16  A    between atoms: C_41  and  C_42
REMARK                            x       y       z     vdW  Elec       q    Type
REMARK                         _______ _______ _______ _____ _____    ______ ____
ROOT
ATOM      1  C   UNL A   1      45.151 -18.048 -35.326  0.00  0.00    -0.052 C 
ENDROOT
BRANCH   1   2
ATOM      2  C   UNL A   1      44.523 -19.442 -35.252  0.00  0.00    -0.037 C 
BRANCH   2   3
ATOM      3  C   UNL A   1      44.333 -19.957 -33.827  0.00  0.00    +0.012 C 
BRANCH   3   6
ATOM      4  C   UNL A   1      41.995 -20.587 -33.346  0.00  0.00    +0.246 C 
ATOM      5  O   UNL A   1      41.709 -19.462 -32.947  0.00  0.00    -0.270 OA
ATOM      6  N   UNL A   1      43.266 -20.937 -33.765  0.00  0.00    -0.311 N 
ATOM      7  H   UNL A   1      43.450 -21.868 -34.025  0.00  0.00    +0.000 HD
BRANCH   4  13
ATOM      8  C   UNL A   1      39.839 -21.456 -34.321  0.00  0.00    +0.044 A 
ATOM      9  C   UNL A   1      38.914 -22.506 -34.447  0.00  0.00    -0.040 A 
ATOM     10  C   UNL A   1      39.016 -23.662 -33.670  0.00  0.00    -0.060 A 
ATOM     11  C   UNL A   1      40.061 -23.801 -32.762  0.00  0.00    -0.061 A 
ATOM     12  C   UNL A   1      41.022 -22.795 -32.652  0.00  0.00    -0.048 A 
ATOM     13  C   UNL A   1      40.939 -21.639 -33.449  0.00  0.00    +0.058 A 
BRANCH   8  14
ATOM     14  N   UNL A   1      39.736 -20.310 -35.159  0.00  0.00    -0.314 N 
ATOM     15  H   UNL A   1      39.347 -19.505 -34.747  0.00  0.00    +0.000 HD
BRANCH  14  21
ATOM     16  C   UNL A   1      38.821 -18.625 -39.778  0.00  0.00    -0.039 C 
ATOM     17  C   UNL A   1      39.641 -19.408 -38.790  0.00  0.00    -0.046 A 
ATOM     18  C   UNL A   1      40.746 -20.135 -39.258  0.00  0.00    -0.058 A 
ATOM     19  C   UNL A   1      41.516 -20.898 -38.388  0.00  0.00    -0.060 A 
ATOM     20  C   UNL A   1      41.196 -20.940 -37.034  0.00  0.00    -0.040 A 
ATOM     21  C   UNL A   1      40.127 -20.189 -36.521  0.00  0.00    +0.035 A 
ATOM     22  C   UNL A   1      39.334 -19.420 -37.408  0.00  0.00    -0.026 A 
ATOM     23  C   UNL A   1      38.137 -18.667 -36.878  0.00  0.00    -0.038 C 
ENDBRANCH  14  21
ENDBRANCH   8  14
ENDBRANCH   4  13
ENDBRANCH   3   6
ENDBRANCH   2   3
ENDBRANCH   1   2
BRANCH   1  24
ATOM     24  C   UNL A   1      44.164 -16.947 -35.723  0.00  0.00    -0.053 C 
BRANCH  24  25
ATOM     25  C   UNL A   1      42.781 -17.528 -36.025  0.00  0.00    -0.053 C 
BRANCH  25  26
ATOM     26  C   UNL A   1      42.398 -17.326 -37.492  0.00  0.00    -0.053 C 
BRANCH  26  27
ATOM     27  C   UNL A   1      41.737 -15.961 -37.707  0.00  0.00    -0.052 C 
BRANCH  27  28
ATOM     28  C   UNL A   1      41.563 -15.601 -39.185  0.00  0.00    -0.037 C 
BRANCH  28  29
ATOM     29  C   UNL A   1      42.191 -16.635 -40.124  0.00  0.00    +0.009 C 
BRANCH  29  30
ATOM     30  N   UNL A   1      43.432 -16.143 -40.744  0.00  0.00    -0.343 N 
ATOM     31  H   UNL A   1      43.436 -15.408 -41.399  0.00  0.00    +0.000 HD
BRANCH  30  32
ATOM     32  C   UNL A   1      44.624 -16.800 -40.334  0.00  0.00    +0.041 A 
ATOM     33  C   UNL A   1      45.419 -16.253 -39.302  0.00  0.00    -0.005 A 
ATOM     34  C   UNL A   1      46.539 -16.982 -38.890  0.00  0.00    +0.047 A 
ATOM     35  N   UNL A   1      46.868 -18.192 -39.399  0.00  0.00    -0.251 NA
ATOM     36  C   UNL A   1      46.130 -18.700 -40.392  0.00  0.00    +0.073 A 
ATOM     37  C   UNL A   1      46.514 -19.924 -40.926  0.00  0.00    -0.036 A 
ATOM     38  C   UNL A   1      45.830 -20.515 -41.990  0.00  0.00    -0.060 A 
ATOM     39  C   UNL A   1      44.741 -19.864 -42.547  0.00  0.00    -0.061 A 
ATOM     40  C   UNL A   1      44.336 -18.639 -42.020  0.00  0.00    -0.051 A 
ATOM     41  C   UNL A   1      45.001 -18.043 -40.919  0.00  0.00    +0.021 A 
ATOM     42  C   UNL A   1      47.446 -16.496 -37.787  0.00  0.00    -0.010 C 
ATOM     43  C   UNL A   1      47.358 -14.993 -37.556  0.00  0.00    -0.047 C 
ATOM     44  C   UNL A   1      45.900 -14.584 -37.424  0.00  0.00    -0.049 C 
ATOM     45  C   UNL A   1      45.138 -14.890 -38.712  0.00  0.00    -0.024 C 
ENDBRANCH  30  32
ENDBRANCH  29  30
ENDBRANCH  28  29
ENDBRANCH  27  28
ENDBRANCH  26  27
ENDBRANCH  25  26
ENDBRANCH  24  25
ENDBRANCH   1  24
TORSDOF 14
ENDMDL
MODEL 13
REMARK VINA RESULT:    -5.962      2.589      6.711
REMARK INTER + INTRA:         -16.198
REMARK INTER:                 -10.889
REMARK INTRA:                  -5.309
REMARK UNBOUND:                -5.356
REMARK  Name = cpd26.pdb
REMARK  16 active torsions:
REMARK  status: ('A' for Active; 'I' for Inactive)
REMARK    1  A    between atoms: C_1  and  C_2
REMARK    2  A    between atoms: C_6  and  N_7
REMARK    3  A    between atoms: N_7  and  C_8
REMARK    4  A    between atoms: C_13  and  C_14
REMARK    5  A    between atoms: N_16  and  C_17
REMARK    6  A    between atoms: C_17  and  C_18
REMARK    7  A    between atoms: C_18  and  C_19
REMARK    8  A    between atoms: C_19  and  C_20
REMARK    9  A    between atoms: C_20  and  C_21
REMARK   10  A    between atoms: C_21  and  C_22
REMARK   11  A    between atoms: C_22  and  C_23
REMARK   12  A    between atoms: C_23  and  C_24
REMARK   13  A    between atoms: C_24  and  C_25
REMARK   14  A    between atoms: C_25  and  N_26
REMARK   15  A    between atoms: N_26  and  C_27
REMARK   16  A    between atoms: C_41  and  C_42
REMARK                            x       y       z     vdW  Elec       q    Type
REMARK                         _______ _______ _______ _____ _____    ______ ____
ROOT
ATOM      1  C   UNL A   1      43.083 -14.818 -34.691  0.00  0.00    -0.052 C 
ENDROOT
BRANCH   1   2
ATOM      2  C   UNL A   1      43.597 -16.068 -33.974  0.00  0.00    -0.037 C 
BRANCH   2   3
ATOM      3  C   UNL A   1      42.746 -16.486 -32.776  0.00  0.00    +0.012 C 
BRANCH   3   6
ATOM      4  C   UNL A   1      42.304 -18.893 -33.098  0.00  0.00    +0.246 C 
ATOM      5  O   UNL A   1      43.466 -19.202 -32.849  0.00  0.00    -0.270 OA
ATOM      6  N   UNL A   1      41.863 -17.583 -33.122  0.00  0.00    -0.311 N 
ATOM      7  H   UNL A   1      40.932 -17.391 -33.379  0.00  0.00    +0.000 HD
BRANCH   4  13
ATOM      8  C   UNL A   1      41.415 -20.834 -34.438  0.00  0.00    +0.044 A 
ATOM      9  C   UNL A   1      40.473 -21.867 -34.579  0.00  0.00    -0.040 A 
ATOM     10  C   UNL A   1      39.378 -21.974 -33.719  0.00  0.00    -0.060 A 
ATOM     11  C   UNL A   1      39.214 -21.058 -32.684  0.00  0.00    -0.061 A 
ATOM     12  C   UNL A   1      40.160 -20.052 -32.491  0.00  0.00    -0.048 A 
ATOM     13  C   UNL A   1      41.279 -19.954 -33.339  0.00  0.00    +0.058 A 
BRANCH   8  14
ATOM     14  N   UNL A   1      42.546 -20.778 -35.302  0.00  0.00    -0.314 N 
ATOM     15  H   UNL A   1      43.427 -20.756 -34.863  0.00  0.00    +0.000 HD
BRANCH  14  21
ATOM     16  C   UNL A   1      42.737 -18.170 -39.565  0.00  0.00    -0.039 C 
ATOM     17  C   UNL A   1      42.592 -19.460 -38.803  0.00  0.00    -0.046 A 
ATOM     18  C   UNL A   1      42.335 -20.638 -39.520  0.00  0.00    -0.058 A 
ATOM     19  C   UNL A   1      42.162 -21.849 -38.858  0.00  0.00    -0.060 A 
ATOM     20  C   UNL A   1      42.252 -21.899 -37.470  0.00  0.00    -0.040 A 
ATOM     21  C   UNL A   1      42.556 -20.750 -36.724  0.00  0.00    +0.035 A 
ATOM     22  C   UNL A   1      42.719 -19.514 -37.395  0.00  0.00    -0.026 A 
ATOM     23  C   UNL A   1      42.972 -18.257 -36.596  0.00  0.00    -0.038 C 
ENDBRANCH  14  21
ENDBRANCH   8  14
ENDBRANCH   4  13
ENDBRANCH   3   6
ENDBRANCH   2   3
ENDBRANCH   1   2
BRANCH   1  24
ATOM     24  C   UNL A   1      44.172 -14.039 -35.432  0.00  0.00    -0.053 C 
BRANCH  24  25
ATOM     25  C   UNL A   1      44.103 -14.293 -36.939  0.00  0.00    -0.053 C 
BRANCH  25  26
ATOM     26  C   UNL A   1      45.102 -13.418 -37.700  0.00  0.00    -0.053 C 
BRANCH  26  27
ATOM     27  C   UNL A   1      45.449 -14.031 -39.059  0.00  0.00    -0.052 C 
BRANCH  27  28
ATOM     28  C   UNL A   1      45.073 -15.512 -39.168  0.00  0.00    -0.037 C 
BRANCH  28  29
ATOM     29  C   UNL A   1      45.865 -16.245 -40.255  0.00  0.00    +0.009 C 
BRANCH  29  30
ATOM     30  N   UNL A   1      46.982 -17.025 -39.698  0.00  0.00    -0.343 N 
ATOM     31  H   UNL A   1      47.913 -16.708 -39.734  0.00  0.00    +0.000 HD
BRANCH  30  32
ATOM     32  C   UNL A   1      46.627 -18.268 -39.105  0.00  0.00    +0.041 A 
ATOM     33  C   UNL A   1      46.379 -19.397 -39.915  0.00  0.00    -0.005 A 
ATOM     34  C   UNL A   1      46.108 -20.610 -39.273  0.00  0.00    +0.047 A 
ATOM     35  N   UNL A   1      46.115 -20.758 -37.928  0.00  0.00    -0.251 NA
ATOM     36  C   UNL A   1      46.327 -19.683 -37.158  0.00  0.00    +0.073 A 
ATOM     37  C   UNL A   1      46.288 -19.852 -35.781  0.00  0.00    -0.036 A 
ATOM     38  C   UNL A   1      46.458 -18.785 -34.898  0.00  0.00    -0.060 A 
ATOM     39  C   UNL A   1      46.662 -17.509 -35.400  0.00  0.00    -0.061 A 
ATOM     40  C   UNL A   1      46.712 -17.320 -36.781  0.00  0.00    -0.051 A 
ATOM     41  C   UNL A   1      46.573 -18.401 -37.687  0.00  0.00    +0.021 A 
ATOM     42  C   UNL A   1      45.843 -21.879 -40.042  0.00  0.00    -0.010 C 
ATOM     43  C   UNL A   1      45.386 -21.630 -41.473  0.00  0.00    -0.047 C 
ATOM     44  C   UNL A   1      46.332 -20.650 -42.146  0.00  0.00    -0.049 C 
ATOM     45  C   UNL A   1      46.315 -19.304 -41.423  0.00  0.00    -0.024 C 
ENDBRANCH  30  32
ENDBRANCH  29  30
ENDBRANCH  28  29
ENDBRANCH  27  28
ENDBRANCH  26  27
ENDBRANCH  25  26
ENDBRANCH  24  25
ENDBRANCH   1  24
TORSDOF 14
ENDMDL
MODEL 14
REMARK VINA RESULT:    -5.961      2.685      6.924
REMARK INTER + INTRA:         -16.195
REMARK INTER:                 -10.040
REMARK INTRA:                  -6.155
REMARK UNBOUND:                -5.356
REMARK  Name = cpd26.pdb
REMARK  16 active torsions:
REMARK  status: ('A' for Active; 'I' for Inactive)
REMARK    1  A    between atoms: C_1  and  C_2
REMARK    2  A    between atoms: C_6  and  N_7
REMARK    3  A    between atoms: N_7  and  C_8
REMARK    4  A    between atoms: C_13  and  C_14
REMARK    5  A    between atoms: N_16  and  C_17
REMARK    6  A    between atoms: C_17  and  C_18
REMARK    7  A    between atoms: C_18  and  C_19
REMARK    8  A    between atoms: C_19  and  C_20
REMARK    9  A    between atoms: C_20  and  C_21
REMARK   10  A    between atoms: C_21  and  C_22
REMARK   11  A    between atoms: C_22  and  C_23
REMARK   12  A    between atoms: C_23  and  C_24
REMARK   13  A    between atoms: C_24  and  C_25
REMARK   14  A    between atoms: C_25  and  N_26
REMARK   15  A    between atoms: N_26  and  C_27
REMARK   16  A    between atoms: C_41  and  C_42
REMARK                            x       y       z     vdW  Elec       q    Type
REMARK                         _______ _______ _______ _____ _____    ______ ____
ROOT
ATOM      1  C   UNL A   1      43.289 -14.866 -34.632  0.00  0.00    -0.052 C 
ENDROOT
BRANCH   1   2
ATOM      2  C   UNL A   1      43.464 -14.607 -33.134  0.00  0.00    -0.037 C 
BRANCH   2   3
ATOM      3  C   UNL A   1      44.124 -15.761 -32.382  0.00  0.00    +0.012 C 
BRANCH   3   6
ATOM      4  C   UNL A   1      44.644 -17.948 -33.399  0.00  0.00    +0.246 C 
ATOM      5  O   UNL A   1      43.808 -18.533 -32.718  0.00  0.00    -0.270 OA
ATOM      6  N   UNL A   1      44.898 -16.594 -33.281  0.00  0.00    -0.311 N 
ATOM      7  H   UNL A   1      45.617 -16.188 -33.816  0.00  0.00    +0.000 HD
BRANCH   4  13
ATOM      8  C   UNL A   1      44.750 -19.639 -35.266  0.00  0.00    +0.044 A 
ATOM      9  C   UNL A   1      45.486 -20.249 -36.296  0.00  0.00    -0.040 A 
ATOM     10  C   UNL A   1      46.850 -19.999 -36.460  0.00  0.00    -0.060 A 
ATOM     11  C   UNL A   1      47.503 -19.115 -35.607  0.00  0.00    -0.061 A 
ATOM     12  C   UNL A   1      46.786 -18.458 -34.607  0.00  0.00    -0.048 A 
ATOM     13  C   UNL A   1      45.407 -18.687 -34.451  0.00  0.00    +0.058 A 
BRANCH   8  14
ATOM     14  N   UNL A   1      43.351 -19.879 -35.151  0.00  0.00    -0.314 N 
ATOM     15  H   UNL A   1      42.976 -19.836 -34.242  0.00  0.00    +0.000 HD
BRANCH  14  21
ATOM     16  C   UNL A   1      39.621 -18.425 -38.149  0.00  0.00    -0.039 C 
ATOM     17  C   UNL A   1      40.566 -19.468 -37.617  0.00  0.00    -0.046 A 
ATOM     18  C   UNL A   1      40.440 -20.787 -38.077  0.00  0.00    -0.058 A 
ATOM     19  C   UNL A   1      41.270 -21.791 -37.591  0.00  0.00    -0.060 A 
ATOM     20  C   UNL A   1      42.243 -21.489 -36.642  0.00  0.00    -0.040 A 
ATOM     21  C   UNL A   1      42.429 -20.172 -36.194  0.00  0.00    +0.035 A 
ATOM     22  C   UNL A   1      41.577 -19.150 -36.678  0.00  0.00    -0.026 A 
ATOM     23  C   UNL A   1      41.720 -17.743 -36.147  0.00  0.00    -0.038 C 
ENDBRANCH  14  21
ENDBRANCH   8  14
ENDBRANCH   4  13
ENDBRANCH   3   6
ENDBRANCH   2   3
ENDBRANCH   1   2
BRANCH   1  24
ATOM     24  C   UNL A   1      44.198 -14.011 -35.517  0.00  0.00    -0.053 C 
BRANCH  24  25
ATOM     25  C   UNL A   1      44.359 -14.633 -36.906  0.00  0.00    -0.053 C 
BRANCH  25  26
ATOM     26  C   UNL A   1      45.160 -15.935 -36.846  0.00  0.00    -0.053 C 
BRANCH  26  27
ATOM     27  C   UNL A   1      46.647 -15.681 -37.113  0.00  0.00    -0.052 C 
BRANCH  27  28
ATOM     28  C   UNL A   1      47.247 -16.640 -38.145  0.00  0.00    -0.037 C 
BRANCH  28  29
ATOM     29  C   UNL A   1      47.386 -16.005 -39.532  0.00  0.00    +0.009 C 
BRANCH  29  30
ATOM     30  N   UNL A   1      46.972 -16.920 -40.607  0.00  0.00    -0.343 N 
ATOM     31  H   UNL A   1      47.517 -17.063 -41.414  0.00  0.00    +0.000 HD
BRANCH  30  32
ATOM     32  C   UNL A   1      45.732 -17.585 -40.404  0.00  0.00    +0.041 A 
ATOM     33  C   UNL A   1      45.699 -18.981 -40.198  0.00  0.00    -0.005 A 
ATOM     34  C   UNL A   1      44.459 -19.569 -39.927  0.00  0.00    +0.047 A 
ATOM     35  N   UNL A   1      43.310 -18.863 -39.813  0.00  0.00    -0.251 NA
ATOM     36  C   UNL A   1      43.335 -17.543 -40.031  0.00  0.00    +0.073 A 
ATOM     37  C   UNL A   1      42.136 -16.848 -39.950  0.00  0.00    -0.036 A 
ATOM     38  C   UNL A   1      42.056 -15.476 -40.199  0.00  0.00    -0.060 A 
ATOM     39  C   UNL A   1      43.201 -14.779 -40.550  0.00  0.00    -0.061 A 
ATOM     40  C   UNL A   1      44.416 -15.458 -40.631  0.00  0.00    -0.051 A 
ATOM     41  C   UNL A   1      44.516 -16.843 -40.348  0.00  0.00    +0.021 A 
ATOM     42  C   UNL A   1      44.314 -21.049 -39.678  0.00  0.00    -0.010 C 
ATOM     43  C   UNL A   1      45.464 -21.869 -40.248  0.00  0.00    -0.047 C 
ATOM     44  C   UNL A   1      46.786 -21.265 -39.808  0.00  0.00    -0.049 C 
ATOM     45  C   UNL A   1      46.933 -19.842 -40.347  0.00  0.00    -0.024 C 
ENDBRANCH  30  32
ENDBRANCH  29  30
ENDBRANCH  28  29
ENDBRANCH  27  28
ENDBRANCH  26  27
ENDBRANCH  25  26
ENDBRANCH  24  25
ENDBRANCH   1  24
TORSDOF 14
ENDMDL
MODEL 15
REMARK VINA RESULT:    -5.932      1.951      5.233
REMARK INTER + INTRA:         -16.142
REMARK INTER:                 -10.209
REMARK INTRA:                  -5.933
REMARK UNBOUND:                -5.356
REMARK  Name = cpd26.pdb
REMARK  16 active torsions:
REMARK  status: ('A' for Active; 'I' for Inactive)
REMARK    1  A    between atoms: C_1  and  C_2
REMARK    2  A    between atoms: C_6  and  N_7
REMARK    3  A    between atoms: N_7  and  C_8
REMARK    4  A    between atoms: C_13  and  C_14
REMARK    5  A    between atoms: N_16  and  C_17
REMARK    6  A    between atoms: C_17  and  C_18
REMARK    7  A    between atoms: C_18  and  C_19
REMARK    8  A    between atoms: C_19  and  C_20
REMARK    9  A    between atoms: C_20  and  C_21
REMARK   10  A    between atoms: C_21  and  C_22
REMARK   11  A    between atoms: C_22  and  C_23
REMARK   12  A    between atoms: C_23  and  C_24
REMARK   13  A    between atoms: C_24  and  C_25
REMARK   14  A    between atoms: C_25  and  N_26
REMARK   15  A    between atoms: N_26  and  C_27
REMARK   16  A    between atoms: C_41  and  C_42
REMARK                            x       y       z     vdW  Elec       q    Type
REMARK                         _______ _______ _______ _____ _____    ______ ____
ROOT
ATOM      1  C   UNL A   1      42.281 -16.321 -36.929  0.00  0.00    -0.052 C 
ENDROOT
BRANCH   1   2
ATOM      2  C   UNL A   1      43.480 -15.420 -37.235  0.00  0.00    -0.037 C 
BRANCH   2   3
ATOM      3  C   UNL A   1      43.729 -15.212 -38.728  0.00  0.00    +0.012 C 
BRANCH   3   6
ATOM      4  C   UNL A   1      44.946 -16.747 -40.228  0.00  0.00    +0.246 C 
ATOM      5  O   UNL A   1      45.822 -15.921 -40.465  0.00  0.00    -0.270 OA
ATOM      6  N   UNL A   1      43.858 -16.481 -39.417  0.00  0.00    -0.311 N 
ATOM      7  H   UNL A   1      43.159 -17.165 -39.305  0.00  0.00    +0.000 HD
BRANCH   4  13
ATOM      8  C   UNL A   1      45.912 -19.075 -40.174  0.00  0.00    +0.044 A 
ATOM      9  C   UNL A   1      45.917 -20.388 -40.676  0.00  0.00    -0.040 A 
ATOM     10  C   UNL A   1      45.165 -20.738 -41.800  0.00  0.00    -0.060 A 
ATOM     11  C   UNL A   1      44.376 -19.784 -42.435  0.00  0.00    -0.061 A 
ATOM     12  C   UNL A   1      44.314 -18.486 -41.928  0.00  0.00    -0.048 A 
ATOM     13  C   UNL A   1      45.050 -18.132 -40.782  0.00  0.00    +0.058 A 
BRANCH   8  14
ATOM     14  N   UNL A   1      46.653 -18.759 -38.999  0.00  0.00    -0.314 N 
ATOM     15  H   UNL A   1      47.531 -18.337 -39.140  0.00  0.00    +0.000 HD
BRANCH  14  21
ATOM     16  C   UNL A   1      46.320 -17.108 -34.290  0.00  0.00    -0.039 C 
ATOM     17  C   UNL A   1      46.169 -18.181 -35.334  0.00  0.00    -0.046 A 
ATOM     18  C   UNL A   1      45.766 -19.462 -34.928  0.00  0.00    -0.058 A 
ATOM     19  C   UNL A   1      45.643 -20.494 -35.852  0.00  0.00    -0.060 A 
ATOM     20  C   UNL A   1      45.915 -20.258 -37.196  0.00  0.00    -0.040 A 
ATOM     21  C   UNL A   1      46.275 -18.978 -37.646  0.00  0.00    +0.035 A 
ATOM     22  C   UNL A   1      46.413 -17.929 -36.706  0.00  0.00    -0.026 A 
ATOM     23  C   UNL A   1      46.872 -16.566 -37.168  0.00  0.00    -0.038 C 
ENDBRANCH  14  21
ENDBRANCH   8  14
ENDBRANCH   4  13
ENDBRANCH   3   6
ENDBRANCH   2   3
ENDBRANCH   1   2
BRANCH   1  24
ATOM     24  C   UNL A   1      42.645 -17.593 -36.159  0.00  0.00    -0.053 C 
BRANCH  24  25
ATOM     25  C   UNL A   1      41.833 -17.707 -34.867  0.00  0.00    -0.053 C 
BRANCH  25  26
ATOM     26  C   UNL A   1      42.711 -17.485 -33.634  0.00  0.00    -0.053 C 
BRANCH  26  27
ATOM     27  C   UNL A   1      42.908 -18.788 -32.855  0.00  0.00    -0.052 C 
BRANCH  27  28
ATOM     28  C   UNL A   1      41.833 -19.838 -33.153  0.00  0.00    -0.037 C 
BRANCH  28  29
ATOM     29  C   UNL A   1      42.390 -21.066 -33.880  0.00  0.00    +0.009 C 
BRANCH  29  30
ATOM     30  N   UNL A   1      41.339 -21.824 -34.576  0.00  0.00    -0.343 N 
ATOM     31  H   UNL A   1      41.181 -22.781 -34.405  0.00  0.00    +0.000 HD
BRANCH  30  32
ATOM     32  C   UNL A   1      40.566 -21.084 -35.512  0.00  0.00    +0.041 A 
ATOM     33  C   UNL A   1      39.305 -20.567 -35.143  0.00  0.00    -0.005 A 
ATOM     34  C   UNL A   1      38.624 -19.783 -36.080  0.00  0.00    +0.047 A 
ATOM     35  N   UNL A   1      39.131 -19.467 -37.294  0.00  0.00    -0.251 NA
ATOM     36  C   UNL A   1      40.316 -19.975 -37.655  0.00  0.00    +0.073 A 
ATOM     37  C   UNL A   1      40.795 -19.670 -38.922  0.00  0.00    -0.036 A 
ATOM     38  C   UNL A   1      42.001 -20.184 -39.402  0.00  0.00    -0.060 A 
ATOM     39  C   UNL A   1      42.745 -21.037 -38.603  0.00  0.00    -0.061 A 
ATOM     40  C   UNL A   1      42.284 -21.350 -37.325  0.00  0.00    -0.051 A 
ATOM     41  C   UNL A   1      41.078 -20.808 -36.813  0.00  0.00    +0.021 A 
ATOM     42  C   UNL A   1      37.279 -19.171 -35.783  0.00  0.00    -0.010 C 
ATOM     43  C   UNL A   1      36.531 -19.881 -34.662  0.00  0.00    -0.047 C 
ATOM     44  C   UNL A   1      37.449 -20.043 -33.462  0.00  0.00    -0.049 C 
ATOM     45  C   UNL A   1      38.655 -20.909 -33.821  0.00  0.00    -0.024 C 
ENDBRANCH  30  32
ENDBRANCH  29  30
ENDBRANCH  28  29
ENDBRANCH  27  28
ENDBRANCH  26  27
ENDBRANCH  25  26
ENDBRANCH  24  25
ENDBRANCH   1  24
TORSDOF 14
ENDMDL
MODEL 16
REMARK VINA RESULT:    -5.923      2.222      4.472
REMARK INTER + INTRA:         -16.127
REMARK INTER:                 -11.393
REMARK INTRA:                  -4.734
REMARK UNBOUND:                -5.356
REMARK  Name = cpd26.pdb
REMARK  16 active torsions:
REMARK  status: ('A' for Active; 'I' for Inactive)
REMARK    1  A    between atoms: C_1  and  C_2
REMARK    2  A    between atoms: C_6  and  N_7
REMARK    3  A    between atoms: N_7  and  C_8
REMARK    4  A    between atoms: C_13  and  C_14
REMARK    5  A    between atoms: N_16  and  C_17
REMARK    6  A    between atoms: C_17  and  C_18
REMARK    7  A    between atoms: C_18  and  C_19
REMARK    8  A    between atoms: C_19  and  C_20
REMARK    9  A    between atoms: C_20  and  C_21
REMARK   10  A    between atoms: C_21  and  C_22
REMARK   11  A    between atoms: C_22  and  C_23
REMARK   12  A    between atoms: C_23  and  C_24
REMARK   13  A    between atoms: C_24  and  C_25
REMARK   14  A    between atoms: C_25  and  N_26
REMARK   15  A    between atoms: N_26  and  C_27
REMARK   16  A    between atoms: C_41  and  C_42
REMARK                            x       y       z     vdW  Elec       q    Type
REMARK                         _______ _______ _______ _____ _____    ______ ____
ROOT
ATOM      1  C   UNL A   1      41.386 -15.808 -34.611  0.00  0.00    -0.052 C 
ENDROOT
BRANCH   1   2
ATOM      2  C   UNL A   1      41.839 -14.900 -35.756  0.00  0.00    -0.037 C 
BRANCH   2   3
ATOM      3  C   UNL A   1      41.884 -15.597 -37.115  0.00  0.00    +0.012 C 
BRANCH   3   6
ATOM      4  C   UNL A   1      43.565 -16.205 -38.816  0.00  0.00    +0.246 C 
ATOM      5  O   UNL A   1      42.890 -17.139 -39.238  0.00  0.00    -0.270 OA
ATOM      6  N   UNL A   1      43.172 -15.413 -37.753  0.00  0.00    -0.311 N 
ATOM      7  H   UNL A   1      43.778 -14.710 -37.424  0.00  0.00    +0.000 HD
BRANCH   4  13
ATOM      8  C   UNL A   1      45.770 -16.856 -39.849  0.00  0.00    +0.044 A 
ATOM      9  C   UNL A   1      46.928 -16.478 -40.551  0.00  0.00    -0.040 A 
ATOM     10  C   UNL A   1      47.217 -15.136 -40.806  0.00  0.00    -0.060 A 
ATOM     11  C   UNL A   1      46.341 -14.142 -40.380  0.00  0.00    -0.061 A 
ATOM     12  C   UNL A   1      45.160 -14.492 -39.725  0.00  0.00    -0.048 A 
ATOM     13  C   UNL A   1      44.851 -15.843 -39.487  0.00  0.00    +0.058 A 
BRANCH   8  14
ATOM     14  N   UNL A   1      45.479 -18.235 -39.644  0.00  0.00    -0.314 N 
ATOM     15  H   UNL A   1      45.421 -18.532 -38.707  0.00  0.00    +0.000 HD
BRANCH  14  21
ATOM     16  C   UNL A   1      46.465 -22.787 -41.465  0.00  0.00    -0.039 C 
ATOM     17  C   UNL A   1      45.794 -21.443 -41.545  0.00  0.00    -0.046 A 
ATOM     18  C   UNL A   1      45.041 -21.134 -42.687  0.00  0.00    -0.058 A 
ATOM     19  C   UNL A   1      44.428 -19.893 -42.820  0.00  0.00    -0.060 A 
ATOM     20  C   UNL A   1      44.555 -18.945 -41.809  0.00  0.00    -0.040 A 
ATOM     21  C   UNL A   1      45.261 -19.235 -40.632  0.00  0.00    +0.035 A 
ATOM     22  C   UNL A   1      45.896 -20.494 -40.499  0.00  0.00    -0.026 A 
ATOM     23  C   UNL A   1      46.721 -20.790 -39.269  0.00  0.00    -0.038 C 
ENDBRANCH  14  21
ENDBRANCH   8  14
ENDBRANCH   4  13
ENDBRANCH   3   6
ENDBRANCH   2   3
ENDBRANCH   1   2
BRANCH   1  24
ATOM     24  C   UNL A   1      42.370 -15.862 -33.440  0.00  0.00    -0.053 C 
BRANCH  24  25
ATOM     25  C   UNL A   1      43.794 -16.135 -33.929  0.00  0.00    -0.053 C 
BRANCH  25  26
ATOM     26  C   UNL A   1      44.365 -17.409 -33.304  0.00  0.00    -0.053 C 
BRANCH  26  27
ATOM     27  C   UNL A   1      45.314 -18.121 -34.272  0.00  0.00    -0.052 C 
BRANCH  27  28
ATOM     28  C   UNL A   1      44.995 -17.844 -35.744  0.00  0.00    -0.037 C 
BRANCH  28  29
ATOM     29  C   UNL A   1      44.347 -19.042 -36.445  0.00  0.00    +0.009 C 
BRANCH  29  30
ATOM     30  N   UNL A   1      42.880 -18.932 -36.493  0.00  0.00    -0.343 N 
ATOM     31  H   UNL A   1      42.421 -18.062 -36.538  0.00  0.00    +0.000 HD
BRANCH  30  32
ATOM     32  C   UNL A   1      42.171 -20.163 -36.471  0.00  0.00    +0.041 A 
ATOM     33  C   UNL A   1      41.700 -20.691 -35.249  0.00  0.00    -0.005 A 
ATOM     34  C   UNL A   1      40.944 -21.867 -35.298  0.00  0.00    +0.047 A 
ATOM     35  N   UNL A   1      40.612 -22.491 -36.452  0.00  0.00    -0.251 NA
ATOM     36  C   UNL A   1      41.078 -22.005 -37.609  0.00  0.00    +0.073 A 
ATOM     37  C   UNL A   1      40.758 -22.688 -38.776  0.00  0.00    -0.036 A 
ATOM     38  C   UNL A   1      41.230 -22.280 -40.025  0.00  0.00    -0.060 A 
ATOM     39  C   UNL A   1      42.052 -21.169 -40.115  0.00  0.00    -0.061 A 
ATOM     40  C   UNL A   1      42.379 -20.466 -38.956  0.00  0.00    -0.051 A 
ATOM     41  C   UNL A   1      41.880 -20.850 -37.685  0.00  0.00    +0.021 A 
ATOM     42  C   UNL A   1      40.381 -22.507 -34.054  0.00  0.00    -0.010 C 
ATOM     43  C   UNL A   1      41.114 -22.097 -32.784  0.00  0.00    -0.047 C 
ATOM     44  C   UNL A   1      41.239 -20.584 -32.735  0.00  0.00    -0.049 C 
ATOM     45  C   UNL A   1      42.062 -20.074 -33.917  0.00  0.00    -0.024 C 
ENDBRANCH  30  32
ENDBRANCH  29  30
ENDBRANCH  28  29
ENDBRANCH  27  28
ENDBRANCH  26  27
ENDBRANCH  25  26
ENDBRANCH  24  25
ENDBRANCH   1  24
TORSDOF 14
ENDMDL
MODEL 17
REMARK VINA RESULT:    -5.922      2.620      7.088
REMARK INTER + INTRA:         -16.125
REMARK INTER:                 -11.122
REMARK INTRA:                  -5.003
REMARK UNBOUND:                -5.356
REMARK  Name = cpd26.pdb
REMARK  16 active torsions:
REMARK  status: ('A' for Active; 'I' for Inactive)
REMARK    1  A    between atoms: C_1  and  C_2
REMARK    2  A    between atoms: C_6  and  N_7
REMARK    3  A    between atoms: N_7  and  C_8
REMARK    4  A    between atoms: C_13  and  C_14
REMARK    5  A    between atoms: N_16  and  C_17
REMARK    6  A    between atoms: C_17  and  C_18
REMARK    7  A    between atoms: C_18  and  C_19
REMARK    8  A    between atoms: C_19  and  C_20
REMARK    9  A    between atoms: C_20  and  C_21
REMARK   10  A    between atoms: C_21  and  C_22
REMARK   11  A    between atoms: C_22  and  C_23
REMARK   12  A    between atoms: C_23  and  C_24
REMARK   13  A    between atoms: C_24  and  C_25
REMARK   14  A    between atoms: C_25  and  N_26
REMARK   15  A    between atoms: N_26  and  C_27
REMARK   16  A    between atoms: C_41  and  C_42
REMARK                            x       y       z     vdW  Elec       q    Type
REMARK                         _______ _______ _______ _____ _____    ______ ____
ROOT
ATOM      1  C   UNL A   1      42.487 -14.757 -33.183  0.00  0.00    -0.052 C 
ENDROOT
BRANCH   1   2
ATOM      2  C   UNL A   1      42.063 -14.714 -34.653  0.00  0.00    -0.037 C 
BRANCH   2   3
ATOM      3  C   UNL A   1      40.798 -15.517 -34.953  0.00  0.00    +0.012 C 
BRANCH   3   6
ATOM      4  C   UNL A   1      39.960 -17.833 -34.805  0.00  0.00    +0.246 C 
ATOM      5  O   UNL A   1      38.844 -17.521 -35.211  0.00  0.00    -0.270 OA
ATOM      6  N   UNL A   1      40.975 -16.915 -34.611  0.00  0.00    -0.311 N 
ATOM      7  H   UNL A   1      41.833 -17.215 -34.234  0.00  0.00    +0.000 HD
BRANCH   4  13
ATOM      8  C   UNL A   1      40.426 -20.169 -35.630  0.00  0.00    +0.044 A 
ATOM      9  C   UNL A   1      40.819 -21.489 -35.347  0.00  0.00    -0.040 A 
ATOM     10  C   UNL A   1      40.985 -21.931 -34.033  0.00  0.00    -0.060 A 
ATOM     11  C   UNL A   1      40.780 -21.055 -32.972  0.00  0.00    -0.061 A 
ATOM     12  C   UNL A   1      40.437 -19.727 -33.226  0.00  0.00    -0.048 A 
ATOM     13  C   UNL A   1      40.292 -19.268 -34.548  0.00  0.00    +0.058 A 
BRANCH   8  14
ATOM     14  N   UNL A   1      40.310 -19.734 -36.981  0.00  0.00    -0.314 N 
ATOM     15  H   UNL A   1      39.394 -19.657 -37.335  0.00  0.00    +0.000 HD
BRANCH  14  21
ATOM     16  C   UNL A   1      43.330 -21.012 -40.757  0.00  0.00    -0.039 C 
ATOM     17  C   UNL A   1      42.869 -20.054 -39.691  0.00  0.00    -0.046 A 
ATOM     18  C   UNL A   1      43.580 -18.859 -39.509  0.00  0.00    -0.058 A 
ATOM     19  C   UNL A   1      43.212 -17.957 -38.517  0.00  0.00    -0.060 A 
ATOM     20  C   UNL A   1      42.122 -18.235 -37.697  0.00  0.00    -0.040 A 
ATOM     21  C   UNL A   1      41.358 -19.398 -37.881  0.00  0.00    +0.035 A 
ATOM     22  C   UNL A   1      41.739 -20.324 -38.883  0.00  0.00    -0.026 A 
ATOM     23  C   UNL A   1      40.970 -21.614 -39.041  0.00  0.00    -0.038 C 
ENDBRANCH  14  21
ENDBRANCH   8  14
ENDBRANCH   4  13
ENDBRANCH   3   6
ENDBRANCH   2   3
ENDBRANCH   1   2
BRANCH   1  24
ATOM     24  C   UNL A   1      43.926 -15.233 -32.970  0.00  0.00    -0.053 C 
BRANCH  24  25
ATOM     25  C   UNL A   1      44.307 -16.310 -33.988  0.00  0.00    -0.053 C 
BRANCH  25  26
ATOM     26  C   UNL A   1      44.010 -17.714 -33.455  0.00  0.00    -0.053 C 
BRANCH  26  27
ATOM     27  C   UNL A   1      44.028 -18.748 -34.584  0.00  0.00    -0.052 C 
BRANCH  27  28
ATOM     28  C   UNL A   1      45.426 -19.303 -34.872  0.00  0.00    -0.037 C 
BRANCH  28  29
ATOM     29  C   UNL A   1      45.508 -20.032 -36.216  0.00  0.00    +0.009 C 
BRANCH  29  30
ATOM     30  N   UNL A   1      46.861 -19.982 -36.795  0.00  0.00    -0.343 N 
ATOM     31  H   UNL A   1      47.644 -20.355 -36.330  0.00  0.00    +0.000 HD
BRANCH  30  32
ATOM     32  C   UNL A   1      46.961 -19.359 -38.069  0.00  0.00    +0.041 A 
ATOM     33  C   UNL A   1      46.939 -20.140 -39.246  0.00  0.00    -0.005 A 
ATOM     34  C   UNL A   1      46.964 -19.468 -40.472  0.00  0.00    +0.047 A 
ATOM     35  N   UNL A   1      46.965 -18.119 -40.581  0.00  0.00    -0.251 NA
ATOM     36  C   UNL A   1      47.009 -17.378 -39.468  0.00  0.00    +0.073 A 
ATOM     37  C   UNL A   1      47.052 -15.997 -39.607  0.00  0.00    -0.036 A 
ATOM     38  C   UNL A   1      47.138 -15.143 -38.506  0.00  0.00    -0.060 A 
ATOM     39  C   UNL A   1      47.195 -15.680 -37.229  0.00  0.00    -0.061 A 
ATOM     40  C   UNL A   1      47.147 -17.064 -37.068  0.00  0.00    -0.051 A 
ATOM     41  C   UNL A   1      47.026 -17.940 -38.176  0.00  0.00    +0.021 A 
ATOM     42  C   UNL A   1      46.931 -20.204 -41.787  0.00  0.00    -0.010 C 
ATOM     43  C   UNL A   1      47.390 -21.652 -41.677  0.00  0.00    -0.047 C 
ATOM     44  C   UNL A   1      46.654 -22.332 -40.534  0.00  0.00    -0.049 C 
ATOM     45  C   UNL A   1      46.978 -21.651 -39.205  0.00  0.00    -0.024 C 
ENDBRANCH  30  32
ENDBRANCH  29  30
ENDBRANCH  28  29
ENDBRANCH  27  28
ENDBRANCH  26  27
ENDBRANCH  25  26
ENDBRANCH  24  25
ENDBRANCH   1  24
TORSDOF 14
ENDMDL
MODEL 18
REMARK VINA RESULT:    -5.873      2.182      7.487
REMARK INTER + INTRA:         -16.035
REMARK INTER:                  -9.392
REMARK INTRA:                  -6.643
REMARK UNBOUND:                -5.356
REMARK  Name = cpd26.pdb
REMARK  16 active torsions:
REMARK  status: ('A' for Active; 'I' for Inactive)
REMARK    1  A    between atoms: C_1  and  C_2
REMARK    2  A    between atoms: C_6  and  N_7
REMARK    3  A    between atoms: N_7  and  C_8
REMARK    4  A    between atoms: C_13  and  C_14
REMARK    5  A    between atoms: N_16  and  C_17
REMARK    6  A    between atoms: C_17  and  C_18
REMARK    7  A    between atoms: C_18  and  C_19
REMARK    8  A    between atoms: C_19  and  C_20
REMARK    9  A    between atoms: C_20  and  C_21
REMARK   10  A    between atoms: C_21  and  C_22
REMARK   11  A    between atoms: C_22  and  C_23
REMARK   12  A    between atoms: C_23  and  C_24
REMARK   13  A    between atoms: C_24  and  C_25
REMARK   14  A    between atoms: C_25  and  N_26
REMARK   15  A    between atoms: N_26  and  C_27
REMARK   16  A    between atoms: C_41  and  C_42
REMARK                            x       y       z     vdW  Elec       q    Type
REMARK                         _______ _______ _______ _____ _____    ______ ____
ROOT
ATOM      1  C   UNL A   1      41.724 -17.259 -37.444  0.00  0.00    -0.052 C 
ENDROOT
BRANCH   1   2
ATOM      2  C   UNL A   1      41.183 -17.974 -38.685  0.00  0.00    -0.037 C 
BRANCH   2   3
ATOM      3  C   UNL A   1      40.065 -18.970 -38.385  0.00  0.00    +0.012 C 
BRANCH   3   6
ATOM      4  C   UNL A   1      39.215 -20.134 -36.381  0.00  0.00    +0.246 C 
ATOM      5  O   UNL A   1      38.046 -20.021 -36.736  0.00  0.00    -0.270 OA
ATOM      6  N   UNL A   1      40.275 -19.619 -37.105  0.00  0.00    -0.311 N 
ATOM      7  H   UNL A   1      41.188 -19.694 -36.745  0.00  0.00    +0.000 HD
BRANCH   4  13
ATOM      8  C   UNL A   1      39.466 -20.275 -33.877  0.00  0.00    +0.044 A 
ATOM      9  C   UNL A   1      39.715 -21.057 -32.735  0.00  0.00    -0.040 A 
ATOM     10  C   UNL A   1      40.129 -22.386 -32.841  0.00  0.00    -0.060 A 
ATOM     11  C   UNL A   1      40.284 -22.970 -34.095  0.00  0.00    -0.061 A 
ATOM     12  C   UNL A   1      39.996 -22.232 -35.243  0.00  0.00    -0.048 A 
ATOM     13  C   UNL A   1      39.555 -20.900 -35.143  0.00  0.00    +0.058 A 
BRANCH   8  14
ATOM     14  N   UNL A   1      39.000 -18.937 -33.737  0.00  0.00    -0.314 N 
ATOM     15  H   UNL A   1      38.024 -18.819 -33.696  0.00  0.00    +0.000 HD
BRANCH  14  21
ATOM     16  C   UNL A   1      40.088 -14.358 -35.427  0.00  0.00    -0.039 C 
ATOM     17  C   UNL A   1      40.339 -15.532 -34.521  0.00  0.00    -0.046 A 
ATOM     18  C   UNL A   1      41.447 -15.493 -33.661  0.00  0.00    -0.058 A 
ATOM     19  C   UNL A   1      41.738 -16.568 -32.828  0.00  0.00    -0.060 A 
ATOM     20  C   UNL A   1      40.921 -17.694 -32.838  0.00  0.00    -0.040 A 
ATOM     21  C   UNL A   1      39.777 -17.749 -33.649  0.00  0.00    +0.035 A 
ATOM     22  C   UNL A   1      39.486 -16.662 -34.508  0.00  0.00    -0.026 A 
ATOM     23  C   UNL A   1      38.300 -16.741 -35.440  0.00  0.00    -0.038 C 
ENDBRANCH  14  21
ENDBRANCH   8  14
ENDBRANCH   4  13
ENDBRANCH   3   6
ENDBRANCH   2   3
ENDBRANCH   1   2
BRANCH   1  24
ATOM     24  C   UNL A   1      43.212 -16.914 -37.530  0.00  0.00    -0.053 C 
BRANCH  24  25
ATOM     25  C   UNL A   1      43.690 -16.211 -36.257  0.00  0.00    -0.053 C 
BRANCH  25  26
ATOM     26  C   UNL A   1      45.192 -15.925 -36.307  0.00  0.00    -0.053 C 
BRANCH  26  27
ATOM     27  C   UNL A   1      45.780 -16.297 -37.670  0.00  0.00    -0.052 C 
BRANCH  27  28
ATOM     28  C   UNL A   1      47.087 -17.090 -37.568  0.00  0.00    -0.037 C 
BRANCH  28  29
ATOM     29  C   UNL A   1      47.120 -18.301 -38.504  0.00  0.00    +0.009 C 
BRANCH  29  30
ATOM     30  N   UNL A   1      46.918 -19.568 -37.783  0.00  0.00    -0.343 N 
ATOM     31  H   UNL A   1      47.670 -20.116 -37.465  0.00  0.00    +0.000 HD
BRANCH  30  32
ATOM     32  C   UNL A   1      45.563 -19.947 -37.577  0.00  0.00    +0.041 A 
ATOM     33  C   UNL A   1      44.803 -20.476 -38.642  0.00  0.00    -0.005 A 
ATOM     34  C   UNL A   1      43.500 -20.902 -38.362  0.00  0.00    +0.047 A 
ATOM     35  N   UNL A   1      42.957 -20.869 -37.123  0.00  0.00    -0.251 NA
ATOM     36  C   UNL A   1      43.668 -20.346 -36.117  0.00  0.00    +0.073 A 
ATOM     37  C   UNL A   1      43.072 -20.284 -34.864  0.00  0.00    -0.036 A 
ATOM     38  C   UNL A   1      43.719 -19.720 -33.763  0.00  0.00    -0.060 A 
ATOM     39  C   UNL A   1      44.991 -19.192 -33.916  0.00  0.00    -0.061 A 
ATOM     40  C   UNL A   1      45.609 -19.250 -35.165  0.00  0.00    -0.051 A 
ATOM     41  C   UNL A   1      44.975 -19.849 -36.282  0.00  0.00    +0.021 A 
ATOM     42  C   UNL A   1      42.608 -21.496 -39.422  0.00  0.00    -0.010 C 
ATOM     43  C   UNL A   1      43.021 -21.113 -40.838  0.00  0.00    -0.047 C 
ATOM     44  C   UNL A   1      44.507 -21.372 -41.021  0.00  0.00    -0.049 C 
ATOM     45  C   UNL A   1      45.326 -20.510 -40.060  0.00  0.00    -0.024 C 
ENDBRANCH  30  32
ENDBRANCH  29  30
ENDBRANCH  28  29
ENDBRANCH  27  28
ENDBRANCH  26  27
ENDBRANCH  25  26
ENDBRANCH  24  25
ENDBRANCH   1  24
TORSDOF 14
ENDMDL
MODEL 19
REMARK VINA RESULT:    -5.688      2.730      6.780
REMARK INTER + INTRA:         -15.698
REMARK INTER:                  -9.644
REMARK INTRA:                  -6.055
REMARK UNBOUND:                -5.356
REMARK  Name = cpd26.pdb
REMARK  16 active torsions:
REMARK  status: ('A' for Active; 'I' for Inactive)
REMARK    1  A    between atoms: C_1  and  C_2
REMARK    2  A    between atoms: C_6  and  N_7
REMARK    3  A    between atoms: N_7  and  C_8
REMARK    4  A    between atoms: C_13  and  C_14
REMARK    5  A    between atoms: N_16  and  C_17
REMARK    6  A    between atoms: C_17  and  C_18
REMARK    7  A    between atoms: C_18  and  C_19
REMARK    8  A    between atoms: C_19  and  C_20
REMARK    9  A    between atoms: C_20  and  C_21
REMARK   10  A    between atoms: C_21  and  C_22
REMARK   11  A    between atoms: C_22  and  C_23
REMARK   12  A    between atoms: C_23  and  C_24
REMARK   13  A    between atoms: C_24  and  C_25
REMARK   14  A    between atoms: C_25  and  N_26
REMARK   15  A    between atoms: N_26  and  C_27
REMARK   16  A    between atoms: C_41  and  C_42
REMARK                            x       y       z     vdW  Elec       q    Type
REMARK                         _______ _______ _______ _____ _____    ______ ____
ROOT
ATOM      1  C   UNL A   1      46.371 -17.508 -36.994  0.00  0.00    -0.052 C 
ENDROOT
BRANCH   1   2
ATOM      2  C   UNL A   1      47.079 -18.657 -36.272  0.00  0.00    -0.037 C 
BRANCH   2   3
ATOM      3  C   UNL A   1      46.448 -20.025 -36.522  0.00  0.00    +0.012 C 
BRANCH   3   6
ATOM      4  C   UNL A   1      44.510 -20.133 -34.998  0.00  0.00    +0.246 C 
ATOM      5  O   UNL A   1      45.215 -20.353 -34.018  0.00  0.00    -0.270 OA
ATOM      6  N   UNL A   1      45.020 -19.993 -36.276  0.00  0.00    -0.311 N 
ATOM      7  H   UNL A   1      44.402 -19.869 -37.032  0.00  0.00    +0.000 HD
BRANCH   4  13
ATOM      8  C   UNL A   1      42.477 -18.649 -34.854  0.00  0.00    +0.044 A 
ATOM      9  C   UNL A   1      41.079 -18.528 -34.783  0.00  0.00    -0.040 A 
ATOM     10  C   UNL A   1      40.261 -19.646 -34.607  0.00  0.00    -0.060 A 
ATOM     11  C   UNL A   1      40.826 -20.915 -34.520  0.00  0.00    -0.061 A 
ATOM     12  C   UNL A   1      42.207 -21.069 -34.637  0.00  0.00    -0.048 A 
ATOM     13  C   UNL A   1      43.035 -19.949 -34.838  0.00  0.00    +0.058 A 
BRANCH   8  14
ATOM     14  N   UNL A   1      43.282 -17.495 -35.079  0.00  0.00    -0.314 N 
ATOM     15  H   UNL A   1      43.943 -17.563 -35.805  0.00  0.00    +0.000 HD
BRANCH  14  21
ATOM     16  C   UNL A   1      44.760 -14.665 -31.230  0.00  0.00    -0.039 C 
ATOM     17  C   UNL A   1      43.929 -14.900 -32.462  0.00  0.00    -0.046 A 
ATOM     18  C   UNL A   1      43.007 -13.917 -32.849  0.00  0.00    -0.058 A 
ATOM     19  C   UNL A   1      42.195 -14.103 -33.963  0.00  0.00    -0.060 A 
ATOM     20  C   UNL A   1      42.299 -15.273 -34.710  0.00  0.00    -0.040 A 
ATOM     21  C   UNL A   1      43.244 -16.257 -34.381  0.00  0.00    +0.035 A 
ATOM     22  C   UNL A   1      44.063 -16.076 -33.240  0.00  0.00    -0.026 A 
ATOM     23  C   UNL A   1      45.030 -17.162 -32.834  0.00  0.00    -0.038 C 
ENDBRANCH  14  21
ENDBRANCH   8  14
ENDBRANCH   4  13
ENDBRANCH   3   6
ENDBRANCH   2   3
ENDBRANCH   1   2
BRANCH   1  24
ATOM     24  C   UNL A   1      47.308 -16.377 -37.422  0.00  0.00    -0.053 C 
BRANCH  24  25
ATOM     25  C   UNL A   1      46.518 -15.133 -37.834  0.00  0.00    -0.053 C 
BRANCH  25  26
ATOM     26  C   UNL A   1      45.091 -15.168 -37.283  0.00  0.00    -0.053 C 
BRANCH  26  27
ATOM     27  C   UNL A   1      44.229 -14.070 -37.913  0.00  0.00    -0.052 C 
BRANCH  27  28
ATOM     28  C   UNL A   1      43.033 -14.618 -38.697  0.00  0.00    -0.037 C 
BRANCH  28  29
ATOM     29  C   UNL A   1      42.736 -16.086 -38.375  0.00  0.00    +0.009 C 
BRANCH  29  30
ATOM     30  N   UNL A   1      42.527 -16.890 -39.590  0.00  0.00    -0.343 N 
ATOM     31  H   UNL A   1      42.040 -16.544 -40.372  0.00  0.00    +0.000 HD
BRANCH  30  32
ATOM     32  C   UNL A   1      43.076 -18.201 -39.559  0.00  0.00    +0.041 A 
ATOM     33  C   UNL A   1      44.410 -18.424 -39.963  0.00  0.00    -0.005 A 
ATOM     34  C   UNL A   1      44.919 -19.721 -39.839  0.00  0.00    +0.047 A 
ATOM     35  N   UNL A   1      44.213 -20.750 -39.317  0.00  0.00    -0.251 NA
ATOM     36  C   UNL A   1      42.941 -20.547 -38.955  0.00  0.00    +0.073 A 
ATOM     37  C   UNL A   1      42.225 -21.629 -38.462  0.00  0.00    -0.036 A 
ATOM     38  C   UNL A   1      40.882 -21.525 -38.096  0.00  0.00    -0.060 A 
ATOM     39  C   UNL A   1      40.229 -20.310 -38.236  0.00  0.00    -0.061 A 
ATOM     40  C   UNL A   1      40.933 -19.210 -38.723  0.00  0.00    -0.051 A 
ATOM     41  C   UNL A   1      42.305 -19.295 -39.067  0.00  0.00    +0.021 A 
ATOM     42  C   UNL A   1      46.335 -20.064 -40.228  0.00  0.00    -0.010 C 
ATOM     43  C   UNL A   1      46.945 -19.071 -41.209  0.00  0.00    -0.047 C 
ATOM     44  C   UNL A   1      46.739 -17.656 -40.695  0.00  0.00    -0.049 C 
ATOM     45  C   UNL A   1      45.248 -17.334 -40.592  0.00  0.00    -0.024 C 
ENDBRANCH  30  32
ENDBRANCH  29  30
ENDBRANCH  28  29
ENDBRANCH  27  28
ENDBRANCH  26  27
ENDBRANCH  25  26
ENDBRANCH  24  25
ENDBRANCH   1  24
TORSDOF 14
ENDMDL
MODEL 20
REMARK VINA RESULT:    -5.651      1.886      7.514
REMARK INTER + INTRA:         -15.632
REMARK INTER:                 -10.932
REMARK INTRA:                  -4.700
REMARK UNBOUND:                -5.356
REMARK  Name = cpd26.pdb
REMARK  16 active torsions:
REMARK  status: ('A' for Active; 'I' for Inactive)
REMARK    1  A    between atoms: C_1  and  C_2
REMARK    2  A    between atoms: C_6  and  N_7
REMARK    3  A    between atoms: N_7  and  C_8
REMARK    4  A    between atoms: C_13  and  C_14
REMARK    5  A    between atoms: N_16  and  C_17
REMARK    6  A    between atoms: C_17  and  C_18
REMARK    7  A    between atoms: C_18  and  C_19
REMARK    8  A    between atoms: C_19  and  C_20
REMARK    9  A    between atoms: C_20  and  C_21
REMARK   10  A    between atoms: C_21  and  C_22
REMARK   11  A    between atoms: C_22  and  C_23
REMARK   12  A    between atoms: C_23  and  C_24
REMARK   13  A    between atoms: C_24  and  C_25
REMARK   14  A    between atoms: C_25  and  N_26
REMARK   15  A    between atoms: N_26  and  C_27
REMARK   16  A    between atoms: C_41  and  C_42
REMARK                            x       y       z     vdW  Elec       q    Type
REMARK                         _______ _______ _______ _____ _____    ______ ____
ROOT
ATOM      1  C   UNL A   1      41.963 -17.211 -37.424  0.00  0.00    -0.052 C 
ENDROOT
BRANCH   1   2
ATOM      2  C   UNL A   1      42.136 -16.339 -36.178  0.00  0.00    -0.037 C 
BRANCH   2   3
ATOM      3  C   UNL A   1      40.820 -15.822 -35.600  0.00  0.00    +0.012 C 
BRANCH   3   6
ATOM      4  C   UNL A   1      40.139 -17.817 -34.317  0.00  0.00    +0.246 C 
ATOM      5  O   UNL A   1      41.153 -17.795 -33.625  0.00  0.00    -0.270 OA
ATOM      6  N   UNL A   1      39.903 -16.913 -35.336  0.00  0.00    -0.311 N 
ATOM      7  H   UNL A   1      39.097 -17.011 -35.892  0.00  0.00    +0.000 HD
BRANCH   4  13
ATOM      8  C   UNL A   1      39.056 -20.055 -34.734  0.00  0.00    +0.044 A 
ATOM      9  C   UNL A   1      38.076 -21.000 -34.386  0.00  0.00    -0.040 A 
ATOM     10  C   UNL A   1      37.078 -20.703 -33.455  0.00  0.00    -0.060 A 
ATOM     11  C   UNL A   1      37.053 -19.458 -32.835  0.00  0.00    -0.061 A 
ATOM     12  C   UNL A   1      38.043 -18.519 -33.125  0.00  0.00    -0.048 A 
ATOM     13  C   UNL A   1      39.065 -18.820 -34.044  0.00  0.00    +0.058 A 
BRANCH   8  14
ATOM     14  N   UNL A   1      40.087 -20.403 -35.653  0.00  0.00    -0.314 N 
ATOM     15  H   UNL A   1      40.941 -20.693 -35.257  0.00  0.00    +0.000 HD
BRANCH  14  21
ATOM     16  C   UNL A   1      41.973 -21.809 -40.066  0.00  0.00    -0.039 C 
ATOM     17  C   UNL A   1      40.996 -21.030 -39.228  0.00  0.00    -0.046 A 
ATOM     18  C   UNL A   1      40.097 -20.167 -39.871  0.00  0.00    -0.058 A 
ATOM     19  C   UNL A   1      39.196 -19.403 -39.138  0.00  0.00    -0.060 A 
ATOM     20  C   UNL A   1      39.179 -19.495 -37.749  0.00  0.00    -0.040 A 
ATOM     21  C   UNL A   1      40.031 -20.382 -37.074  0.00  0.00    +0.035 A 
ATOM     22  C   UNL A   1      40.958 -21.152 -37.818  0.00  0.00    -0.026 A 
ATOM     23  C   UNL A   1      41.931 -22.054 -37.096  0.00  0.00    -0.038 C 
ENDBRANCH  14  21
ENDBRANCH   8  14
ENDBRANCH   4  13
ENDBRANCH   3   6
ENDBRANCH   2   3
ENDBRANCH   1   2
BRANCH   1  24
ATOM     24  C   UNL A   1      43.010 -18.319 -37.551  0.00  0.00    -0.053 C 
BRANCH  24  25
ATOM     25  C   UNL A   1      43.926 -18.357 -36.326  0.00  0.00    -0.053 C 
BRANCH  25  26
ATOM     26  C   UNL A   1      44.354 -19.788 -35.991  0.00  0.00    -0.053 C 
BRANCH  26  27
ATOM     27  C   UNL A   1      45.803 -19.830 -35.499  0.00  0.00    -0.052 C 
BRANCH  27  28
ATOM     28  C   UNL A   1      46.797 -19.224 -36.494  0.00  0.00    -0.037 C 
BRANCH  28  29
ATOM     29  C   UNL A   1      46.814 -19.960 -37.837  0.00  0.00    +0.009 C 
BRANCH  29  30
ATOM     30  N   UNL A   1      47.242 -19.090 -38.944  0.00  0.00    -0.343 N 
ATOM     31  H   UNL A   1      48.175 -18.790 -39.044  0.00  0.00    +0.000 HD
BRANCH  30  32
ATOM     32  C   UNL A   1      46.222 -18.712 -39.858  0.00  0.00    +0.041 A 
ATOM     33  C   UNL A   1      45.653 -17.421 -39.795  0.00  0.00    -0.005 A 
ATOM     34  C   UNL A   1      44.707 -17.080 -40.768  0.00  0.00    +0.047 A 
ATOM     35  N   UNL A   1      44.348 -17.906 -41.778  0.00  0.00    -0.251 NA
ATOM     36  C   UNL A   1      44.868 -19.137 -41.825  0.00  0.00    +0.073 A 
ATOM     37  C   UNL A   1      44.452 -19.980 -42.848  0.00  0.00    -0.036 A 
ATOM     38  C   UNL A   1      44.908 -21.295 -42.957  0.00  0.00    -0.060 A 
ATOM     39  C   UNL A   1      45.796 -21.789 -42.015  0.00  0.00    -0.061 A 
ATOM     40  C   UNL A   1      46.232 -20.957 -40.984  0.00  0.00    -0.051 A 
ATOM     41  C   UNL A   1      45.801 -19.610 -40.881  0.00  0.00    +0.021 A 
ATOM     42  C   UNL A   1      44.050 -15.724 -40.801  0.00  0.00    -0.010 C 
ATOM     43  C   UNL A   1      44.092 -15.003 -39.460  0.00  0.00    -0.047 C 
ATOM     44  C   UNL A   1      45.511 -15.022 -38.918  0.00  0.00    -0.049 C 
ATOM     45  C   UNL A   1      45.974 -16.458 -38.675  0.00  0.00    -0.024 C 
ENDBRANCH  30  32
ENDBRANCH  29  30
ENDBRANCH  28  29
ENDBRANCH  27  28
ENDBRANCH  26  27
ENDBRANCH  25  26
ENDBRANCH  24  25
ENDBRANCH   1  24
TORSDOF 14
ENDMDL
