REMARK  Name = cpd147.pdb
REMARK  11 active torsions:
REMARK  status: ('A' for Active; 'I' for Inactive)
REMARK    1  A    between atoms: C_2  and  C_3
REMARK    2  A    between atoms: C_3  and  S_4
REMARK    3  A    between atoms: S_4  and  C_5
REMARK    4  A    between atoms: C_5  and  C_6
REMARK    5  A    between atoms: C_6  and  N_7
REMARK    6  A    between atoms: C_6  and  C_8
REMARK    7  A    between atoms: N_10  and  C_11
REMARK    8  A    between atoms: C_11  and  C_12
REMARK    9  A    between atoms: C_12  and  C_13
REMARK   10  A    between atoms: C_13  and  N_14
REMARK   11  A    between atoms: N_14  and  C_15
REMARK                            x       y       z     vdW  Elec       q    Type
REMARK                         _______ _______ _______ _____ _____    ______ ____
ROOT
ATOM      1  C   UNL     1       2.423  -1.305   1.756  0.00  0.00    +0.011 C 
ENDROOT
BRANCH   1   2
ATOM      2  N   UNL     1       1.349  -0.339   2.065  0.00  0.00    -0.343 N 
ATOM      3  H   UNL     1       0.723  -0.449   2.817  0.00  0.00    +0.000 HD
BRANCH   2   4
ATOM      4  C   UNL     1       1.308   0.771   1.165  0.00  0.00    +0.041 A 
ATOM      5  C   UNL     1       0.244   0.845   0.246  0.00  0.00    -0.005 A 
ATOM      6  C   UNL     1       0.260   1.886  -0.683  0.00  0.00    +0.047 A 
ATOM      7  N   UNL     1       1.225   2.835  -0.714  0.00  0.00    -0.251 NA
ATOM      8  C   UNL     1       2.213   2.790   0.189  0.00  0.00    +0.073 A 
ATOM      9  C   UNL     1       3.173   3.793   0.148  0.00  0.00    -0.036 A 
ATOM     10  C   UNL     1       4.235   3.841   1.053  0.00  0.00    -0.060 A 
ATOM     11  C   UNL     1       4.343   2.866   2.031  0.00  0.00    -0.061 A 
ATOM     12  C   UNL     1       3.391   1.849   2.091  0.00  0.00    -0.051 A 
ATOM     13  C   UNL     1       2.313   1.783   1.169  0.00  0.00    +0.021 A 
ATOM     14  C   UNL     1      -0.852   2.076  -1.683  0.00  0.00    -0.010 C 
ATOM     15  C   UNL     1      -1.710   0.832  -1.883  0.00  0.00    -0.047 C 
ATOM     16  C   UNL     1      -2.106   0.254  -0.533  0.00  0.00    -0.049 C 
ATOM     17  C   UNL     1      -0.861  -0.184   0.240  0.00  0.00    -0.024 C 
ENDBRANCH   2   4
ENDBRANCH   1   2
BRANCH   1  18
ATOM     18  C   UNL     1       1.956  -2.351   0.746  0.00  0.00    -0.022 C 
BRANCH  18  19
ATOM     19  C   UNL     1       2.979  -3.467   0.545  0.00  0.00    +0.013 C 
BRANCH  19  22
ATOM     20  C   UNL     1       5.278  -2.543   0.367  0.00  0.00    +0.231 C 
ATOM     21  O   UNL     1       5.381  -2.372   1.578  0.00  0.00    -0.274 OA
ATOM     22  N   UNL     1       4.130  -3.039  -0.224  0.00  0.00    -0.314 N 
ATOM     23  H   UNL     1       4.094  -3.104  -1.206  0.00  0.00    +0.000 HD
BRANCH  20  24
ATOM     24  C   UNL     1       6.336  -2.085  -0.660  0.00  0.00    +0.091 C 
BRANCH  24  25
ATOM     25  N   UNL     1       5.938  -0.739  -1.149  0.00  0.00    -0.319 N 
ATOM     26  H   UNL     1       5.911  -0.087  -0.365  0.00  0.00    +0.000 HD
ATOM     27  H   UNL     1       5.014  -0.793  -1.579  0.00  0.00    +0.000 HD
ATOM     28  H   UNL     1       6.615  -0.414  -1.839  0.00  0.00    +0.000 HD
ENDBRANCH  24  25
BRANCH  24  29
ATOM     29  C   UNL     1       7.747  -2.029  -0.056  0.00  0.00    +0.018 C 
BRANCH  29  30
ATOM     30  S   UNL     1       8.482  -3.654   0.373  0.00  0.00    -0.155 S 
BRANCH  30  31
ATOM     31  C   UNL     1       8.636  -4.394  -1.276  0.00  0.00    +0.012 C 
BRANCH  31  33
ATOM     32  C   UNL     1       6.518  -5.814  -0.930  0.00  0.00    -0.102 C 
ATOM     33  C   UNL     1       7.503  -5.297  -1.679  0.00  0.00    -0.081 C 
ENDBRANCH  31  33
ENDBRANCH  30  31
ENDBRANCH  29  30
ENDBRANCH  24  29
ENDBRANCH  20  24
ENDBRANCH  19  22
ENDBRANCH  18  19
ENDBRANCH   1  18
TORSDOF 11
