MODEL 1
REMARK VINA RESULT:    -7.398      0.000      0.000
REMARK INTER + INTRA:         -13.478
REMARK INTER:                 -11.939
REMARK INTRA:                  -1.538
REMARK UNBOUND:                -1.538
REMARK  Name = cpd147.pdb
REMARK  11 active torsions:
REMARK  status: ('A' for Active; 'I' for Inactive)
REMARK    1  A    between atoms: C_2  and  C_3
REMARK    2  A    between atoms: C_3  and  S_4
REMARK    3  A    between atoms: S_4  and  C_5
REMARK    4  A    between atoms: C_5  and  C_6
REMARK    5  A    between atoms: C_6  and  N_7
REMARK    6  A    between atoms: C_6  and  C_8
REMARK    7  A    between atoms: N_10  and  C_11
REMARK    8  A    between atoms: C_11  and  C_12
REMARK    9  A    between atoms: C_12  and  C_13
REMARK   10  A    between atoms: C_13  and  N_14
REMARK   11  A    between atoms: N_14  and  C_15
REMARK                            x       y       z     vdW  Elec       q    Type
REMARK                         _______ _______ _______ _____ _____    ______ ____
ROOT
ATOM      1  C   UNL     1      37.458 -33.888 -31.733  0.00  0.00    +0.011 C 
ENDROOT
BRANCH   1   2
ATOM      2  N   UNL     1      37.346 -35.337 -31.997  0.00  0.00    -0.343 N 
ATOM      3  H   UNL     1      36.817 -35.712 -32.738  0.00  0.00    +0.000 HD
BRANCH   2   4
ATOM      4  C   UNL     1      38.079 -36.141 -31.069  0.00  0.00    +0.041 A 
ATOM      5  C   UNL     1      39.416 -36.461 -31.377  0.00  0.00    -0.005 A 
ATOM      6  C   UNL     1      40.095 -37.315 -30.507  0.00  0.00    +0.047 A 
ATOM      7  N   UNL     1      39.540 -37.814 -29.377  0.00  0.00    -0.251 NA
ATOM      8  C   UNL     1      38.284 -37.474 -29.062  0.00  0.00    +0.073 A 
ATOM      9  C   UNL     1      37.753 -37.980 -27.883  0.00  0.00    -0.036 A 
ATOM     10  C   UNL     1      36.458 -37.674 -27.460  0.00  0.00    -0.060 A 
ATOM     11  C   UNL     1      35.669 -36.836 -28.231  0.00  0.00    -0.061 A 
ATOM     12  C   UNL     1      36.181 -36.316 -29.419  0.00  0.00    -0.051 A 
ATOM     13  C   UNL     1      37.493 -36.629 -29.865  0.00  0.00    +0.021 A 
ATOM     14  C   UNL     1      41.539 -37.688 -30.726  0.00  0.00    -0.010 C 
ATOM     15  C   UNL     1      42.024 -37.436 -32.149  0.00  0.00    -0.047 C 
ATOM     16  C   UNL     1      41.609 -36.044 -32.598  0.00  0.00    -0.049 C 
ATOM     17  C   UNL     1      40.084 -35.928 -32.621  0.00  0.00    -0.024 C 
ENDBRANCH   2   4
ENDBRANCH   1   2
BRANCH   1  18
ATOM     18  C   UNL     1      36.317 -33.394 -30.846  0.00  0.00    -0.022 C 
BRANCH  18  19
ATOM     19  C   UNL     1      35.065 -33.043 -31.646  0.00  0.00    +0.013 C 
BRANCH  19  22
ATOM     20  C   UNL     1      33.254 -34.608 -30.981  0.00  0.00    +0.231 C 
ATOM     21  O   UNL     1      33.097 -34.076 -29.887  0.00  0.00    -0.274 OA
ATOM     22  N   UNL     1      34.213 -34.191 -31.886  0.00  0.00    -0.314 N 
ATOM     23  H   UNL     1      34.322 -34.693 -32.726  0.00  0.00    +0.000 HD
BRANCH  20  24
ATOM     24  C   UNL     1      32.525 -35.895 -31.425  0.00  0.00    +0.091 C 
BRANCH  24  25
ATOM     25  N   UNL     1      31.527 -35.516 -32.459  0.00  0.00    -0.319 N 
ATOM     26  H   UNL     1      30.688 -35.154 -32.005  0.00  0.00    +0.000 HD
ATOM     27  H   UNL     1      31.286 -36.336 -33.016  0.00  0.00    +0.000 HD
ATOM     28  H   UNL     1      31.922 -34.797 -33.065  0.00  0.00    +0.000 HD
ENDBRANCH  24  25
BRANCH  24  29
ATOM     29  C   UNL     1      33.493 -36.946 -31.989  0.00  0.00    +0.018 C 
BRANCH  29  30
ATOM     30  S   UNL     1      33.528 -38.544 -31.089  0.00  0.00    -0.155 S 
BRANCH  30  31
ATOM     31  C   UNL     1      35.207 -39.108 -31.479  0.00  0.00    +0.012 C 
BRANCH  31  33
ATOM     32  C   UNL     1      35.348 -40.588 -29.379  0.00  0.00    -0.102 C 
ATOM     33  C   UNL     1      35.723 -40.224 -30.614  0.00  0.00    -0.081 C 
ENDBRANCH  31  33
ENDBRANCH  30  31
ENDBRANCH  29  30
ENDBRANCH  24  29
ENDBRANCH  20  24
ENDBRANCH  19  22
ENDBRANCH  18  19
ENDBRANCH   1  18
TORSDOF 11
ENDMDL
MODEL 2
REMARK VINA RESULT:    -7.269      2.411      3.420
REMARK INTER + INTRA:         -13.269
REMARK INTER:                 -12.237
REMARK INTRA:                  -1.032
REMARK UNBOUND:                -1.538
REMARK  Name = cpd147.pdb
REMARK  11 active torsions:
REMARK  status: ('A' for Active; 'I' for Inactive)
REMARK    1  A    between atoms: C_2  and  C_3
REMARK    2  A    between atoms: C_3  and  S_4
REMARK    3  A    between atoms: S_4  and  C_5
REMARK    4  A    between atoms: C_5  and  C_6
REMARK    5  A    between atoms: C_6  and  N_7
REMARK    6  A    between atoms: C_6  and  C_8
REMARK    7  A    between atoms: N_10  and  C_11
REMARK    8  A    between atoms: C_11  and  C_12
REMARK    9  A    between atoms: C_12  and  C_13
REMARK   10  A    between atoms: C_13  and  N_14
REMARK   11  A    between atoms: N_14  and  C_15
REMARK                            x       y       z     vdW  Elec       q    Type
REMARK                         _______ _______ _______ _____ _____    ______ ____
ROOT
ATOM      1  C   UNL     1      36.347 -33.506 -31.051  0.00  0.00    +0.011 C 
ENDROOT
BRANCH   1   2
ATOM      2  N   UNL     1      36.543 -34.848 -31.636  0.00  0.00    -0.343 N 
ATOM      3  H   UNL     1      36.178 -35.116 -32.510  0.00  0.00    +0.000 HD
BRANCH   2   4
ATOM      4  C   UNL     1      37.317 -35.720 -30.808  0.00  0.00    +0.041 A 
ATOM      5  C   UNL     1      38.633 -36.023 -31.205  0.00  0.00    -0.005 A 
ATOM      6  C   UNL     1      39.349 -36.941 -30.435  0.00  0.00    +0.047 A 
ATOM      7  N   UNL     1      38.849 -37.518 -29.317  0.00  0.00    -0.251 NA
ATOM      8  C   UNL     1      37.613 -37.195 -28.914  0.00  0.00    +0.073 A 
ATOM      9  C   UNL     1      37.139 -37.783 -27.749  0.00  0.00    -0.036 A 
ATOM     10  C   UNL     1      35.869 -37.503 -27.240  0.00  0.00    -0.060 A 
ATOM     11  C   UNL     1      35.049 -36.608 -27.906  0.00  0.00    -0.061 A 
ATOM     12  C   UNL     1      35.504 -36.006 -29.079  0.00  0.00    -0.051 A 
ATOM     13  C   UNL     1      36.788 -36.291 -29.612  0.00  0.00    +0.021 A 
ATOM     14  C   UNL     1      40.777 -37.303 -30.754  0.00  0.00    -0.010 C 
ATOM     15  C   UNL     1      41.191 -36.951 -32.178  0.00  0.00    -0.047 C 
ATOM     16  C   UNL     1      40.765 -35.528 -32.505  0.00  0.00    -0.049 C 
ATOM     17  C   UNL     1      39.242 -35.405 -32.441  0.00  0.00    -0.024 C 
ENDBRANCH   2   4
ENDBRANCH   1   2
BRANCH   1  18
ATOM     18  C   UNL     1      34.881 -33.082 -31.113  0.00  0.00    -0.022 C 
BRANCH  18  19
ATOM     19  C   UNL     1      34.404 -32.435 -29.815  0.00  0.00    +0.013 C 
BRANCH  19  22
ATOM     20  C   UNL     1      32.004 -31.991 -29.353  0.00  0.00    +0.231 C 
ATOM     21  O   UNL     1      31.880 -32.989 -28.649  0.00  0.00    -0.274 OA
ATOM     22  N   UNL     1      33.189 -31.665 -29.987  0.00  0.00    -0.314 N 
ATOM     23  H   UNL     1      33.207 -30.878 -30.579  0.00  0.00    +0.000 HD
BRANCH  20  24
ATOM     24  C   UNL     1      30.832 -31.067 -29.750  0.00  0.00    +0.091 C 
BRANCH  24  25
ATOM     25  N   UNL     1      31.395 -29.932 -30.527  0.00  0.00    -0.319 N 
ATOM     26  H   UNL     1      32.406 -29.898 -30.395  0.00  0.00    +0.000 HD
ATOM     27  H   UNL     1      30.980 -29.058 -30.202  0.00  0.00    +0.000 HD
ATOM     28  H   UNL     1      31.185 -30.060 -31.517  0.00  0.00    +0.000 HD
ENDBRANCH  24  25
BRANCH  24  29
ATOM     29  C   UNL     1      29.771 -31.800 -30.585  0.00  0.00    +0.018 C 
BRANCH  29  30
ATOM     30  S   UNL     1      30.428 -32.944 -31.860  0.00  0.00    -0.155 S 
BRANCH  30  31
ATOM     31  C   UNL     1      29.820 -34.531 -31.226  0.00  0.00    +0.012 C 
BRANCH  31  33
ATOM     32  C   UNL     1      32.189 -35.533 -31.126  0.00  0.00    -0.102 C 
ATOM     33  C   UNL     1      30.889 -35.498 -30.796  0.00  0.00    -0.081 C 
ENDBRANCH  31  33
ENDBRANCH  30  31
ENDBRANCH  29  30
ENDBRANCH  24  29
ENDBRANCH  20  24
ENDBRANCH  19  22
ENDBRANCH  18  19
ENDBRANCH   1  18
TORSDOF 11
ENDMDL
MODEL 3
REMARK VINA RESULT:    -7.244      3.918      5.327
REMARK INTER + INTRA:         -13.228
REMARK INTER:                 -12.732
REMARK INTRA:                  -0.496
REMARK UNBOUND:                -1.538
REMARK  Name = cpd147.pdb
REMARK  11 active torsions:
REMARK  status: ('A' for Active; 'I' for Inactive)
REMARK    1  A    between atoms: C_2  and  C_3
REMARK    2  A    between atoms: C_3  and  S_4
REMARK    3  A    between atoms: S_4  and  C_5
REMARK    4  A    between atoms: C_5  and  C_6
REMARK    5  A    between atoms: C_6  and  N_7
REMARK    6  A    between atoms: C_6  and  C_8
REMARK    7  A    between atoms: N_10  and  C_11
REMARK    8  A    between atoms: C_11  and  C_12
REMARK    9  A    between atoms: C_12  and  C_13
REMARK   10  A    between atoms: C_13  and  N_14
REMARK   11  A    between atoms: N_14  and  C_15
REMARK                            x       y       z     vdW  Elec       q    Type
REMARK                         _______ _______ _______ _____ _____    ______ ____
ROOT
ATOM      1  C   UNL     1      36.130 -33.768 -31.164  0.00  0.00    +0.011 C 
ENDROOT
BRANCH   1   2
ATOM      2  N   UNL     1      36.337 -35.148 -31.647  0.00  0.00    -0.343 N 
ATOM      3  H   UNL     1      35.926 -35.500 -32.470  0.00  0.00    +0.000 HD
BRANCH   2   4
ATOM      4  C   UNL     1      37.191 -35.923 -30.803  0.00  0.00    +0.041 A 
ATOM      5  C   UNL     1      38.518 -36.143 -31.219  0.00  0.00    -0.005 A 
ATOM      6  C   UNL     1      39.317 -36.971 -30.429  0.00  0.00    +0.047 A 
ATOM      7  N   UNL     1      38.885 -37.535 -29.277  0.00  0.00    -0.251 NA
ATOM      8  C   UNL     1      37.637 -37.289 -28.858  0.00  0.00    +0.073 A 
ATOM      9  C   UNL     1      37.233 -37.861 -27.658  0.00  0.00    -0.036 A 
ATOM     10  C   UNL     1      35.957 -37.656 -27.131  0.00  0.00    -0.060 A 
ATOM     11  C   UNL     1      35.057 -36.854 -27.814  0.00  0.00    -0.061 A 
ATOM     12  C   UNL     1      35.441 -36.270 -29.021  0.00  0.00    -0.051 A 
ATOM     13  C   UNL     1      36.732 -36.481 -29.573  0.00  0.00    +0.021 A 
ATOM     14  C   UNL     1      40.762 -37.237 -30.766  0.00  0.00    -0.010 C 
ATOM     15  C   UNL     1      41.119 -36.917 -32.213  0.00  0.00    -0.047 C 
ATOM     16  C   UNL     1      40.579 -35.545 -32.587  0.00  0.00    -0.049 C 
ATOM     17  C   UNL     1      39.052 -35.534 -32.493  0.00  0.00    -0.024 C 
ENDBRANCH   2   4
ENDBRANCH   1   2
BRANCH   1  18
ATOM     18  C   UNL     1      34.653 -33.487 -30.898  0.00  0.00    -0.022 C 
BRANCH  18  19
ATOM     19  C   UNL     1      34.347 -31.993 -30.822  0.00  0.00    +0.013 C 
BRANCH  19  22
ATOM     20  C   UNL     1      31.999 -31.650 -30.086  0.00  0.00    +0.231 C 
ATOM     21  O   UNL     1      31.543 -31.832 -31.211  0.00  0.00    -0.274 OA
ATOM     22  N   UNL     1      33.355 -31.676 -29.814  0.00  0.00    -0.314 N 
ATOM     23  H   UNL     1      33.658 -31.471 -28.900  0.00  0.00    +0.000 HD
BRANCH  20  24
ATOM     24  C   UNL     1      31.148 -31.215 -28.873  0.00  0.00    +0.091 C 
BRANCH  24  25
ATOM     25  N   UNL     1      31.394 -29.766 -28.645  0.00  0.00    -0.319 N 
ATOM     26  H   UNL     1      30.668 -29.222 -29.111  0.00  0.00    +0.000 HD
ATOM     27  H   UNL     1      32.306 -29.513 -29.025  0.00  0.00    +0.000 HD
ATOM     28  H   UNL     1      31.376 -29.572 -27.644  0.00  0.00    +0.000 HD
ENDBRANCH  24  25
BRANCH  24  29
ATOM     29  C   UNL     1      29.649 -31.466 -29.093  0.00  0.00    +0.018 C 
BRANCH  29  30
ATOM     30  S   UNL     1      28.736 -30.100 -29.908  0.00  0.00    -0.155 S 
BRANCH  30  31
ATOM     31  C   UNL     1      27.738 -29.493 -28.520  0.00  0.00    +0.012 C 
BRANCH  31  33
ATOM     32  C   UNL     1      27.487 -29.898 -25.992  0.00  0.00    -0.102 C 
ATOM     33  C   UNL     1      28.033 -30.135 -27.193  0.00  0.00    -0.081 C 
ENDBRANCH  31  33
ENDBRANCH  30  31
ENDBRANCH  29  30
ENDBRANCH  24  29
ENDBRANCH  20  24
ENDBRANCH  19  22
ENDBRANCH  18  19
ENDBRANCH   1  18
TORSDOF 11
ENDMDL
MODEL 4
REMARK VINA RESULT:    -6.976      3.918      5.551
REMARK INTER + INTRA:         -12.796
REMARK INTER:                 -12.318
REMARK INTRA:                  -0.478
REMARK UNBOUND:                -1.538
REMARK  Name = cpd147.pdb
REMARK  11 active torsions:
REMARK  status: ('A' for Active; 'I' for Inactive)
REMARK    1  A    between atoms: C_2  and  C_3
REMARK    2  A    between atoms: C_3  and  S_4
REMARK    3  A    between atoms: S_4  and  C_5
REMARK    4  A    between atoms: C_5  and  C_6
REMARK    5  A    between atoms: C_6  and  N_7
REMARK    6  A    between atoms: C_6  and  C_8
REMARK    7  A    between atoms: N_10  and  C_11
REMARK    8  A    between atoms: C_11  and  C_12
REMARK    9  A    between atoms: C_12  and  C_13
REMARK   10  A    between atoms: C_13  and  N_14
REMARK   11  A    between atoms: N_14  and  C_15
REMARK                            x       y       z     vdW  Elec       q    Type
REMARK                         _______ _______ _______ _____ _____    ______ ____
ROOT
ATOM      1  C   UNL     1      35.862 -33.316 -30.734  0.00  0.00    +0.011 C 
ENDROOT
BRANCH   1   2
ATOM      2  N   UNL     1      36.167 -34.573 -31.448  0.00  0.00    -0.343 N 
ATOM      3  H   UNL     1      35.869 -34.758 -32.368  0.00  0.00    +0.000 HD
BRANCH   2   4
ATOM      4  C   UNL     1      36.939 -35.493 -30.673  0.00  0.00    +0.041 A 
ATOM      5  C   UNL     1      38.262 -35.758 -31.074  0.00  0.00    -0.005 A 
ATOM      6  C   UNL     1      38.976 -36.721 -30.360  0.00  0.00    +0.047 A 
ATOM      7  N   UNL     1      38.468 -37.376 -29.290  0.00  0.00    -0.251 NA
ATOM      8  C   UNL     1      37.225 -37.092 -28.881  0.00  0.00    +0.073 A 
ATOM      9  C   UNL     1      36.743 -37.762 -27.764  0.00  0.00    -0.036 A 
ATOM     10  C   UNL     1      35.465 -37.527 -27.253  0.00  0.00    -0.060 A 
ATOM     11  C   UNL     1      34.645 -36.595 -27.866  0.00  0.00    -0.061 A 
ATOM     12  C   UNL     1      35.108 -35.910 -28.989  0.00  0.00    -0.051 A 
ATOM     13  C   UNL     1      36.401 -36.149 -29.526  0.00  0.00    +0.021 A 
ATOM     14  C   UNL     1      40.411 -37.049 -30.685  0.00  0.00    -0.010 C 
ATOM     15  C   UNL     1      40.839 -36.597 -32.077  0.00  0.00    -0.047 C 
ATOM     16  C   UNL     1      40.404 -35.158 -32.310  0.00  0.00    -0.049 C 
ATOM     17  C   UNL     1      38.879 -35.052 -32.257  0.00  0.00    -0.024 C 
ENDBRANCH   2   4
ENDBRANCH   1   2
BRANCH   1  18
ATOM     18  C   UNL     1      34.948 -32.415 -31.562  0.00  0.00    -0.022 C 
BRANCH  18  19
ATOM     19  C   UNL     1      33.534 -32.978 -31.691  0.00  0.00    +0.013 C 
BRANCH  19  22
ATOM     20  C   UNL     1      32.002 -32.091 -29.948  0.00  0.00    +0.231 C 
ATOM     21  O   UNL     1      32.319 -32.949 -29.130  0.00  0.00    -0.274 OA
ATOM     22  N   UNL     1      32.519 -32.052 -31.231  0.00  0.00    -0.314 N 
ATOM     23  H   UNL     1      32.184 -31.367 -31.854  0.00  0.00    +0.000 HD
BRANCH  20  24
ATOM     24  C   UNL     1      30.882 -31.053 -29.717  0.00  0.00    +0.091 C 
BRANCH  24  25
ATOM     25  N   UNL     1      31.424 -29.996 -28.823  0.00  0.00    -0.319 N 
ATOM     26  H   UNL     1      30.667 -29.380 -28.528  0.00  0.00    +0.000 HD
ATOM     27  H   UNL     1      32.128 -29.454 -29.325  0.00  0.00    +0.000 HD
ATOM     28  H   UNL     1      31.849 -30.429 -28.003  0.00  0.00    +0.000 HD
ENDBRANCH  24  25
BRANCH  24  29
ATOM     29  C   UNL     1      30.388 -30.429 -31.030  0.00  0.00    +0.018 C 
BRANCH  29  30
ATOM     30  S   UNL     1      29.398 -28.895 -30.845  0.00  0.00    -0.155 S 
BRANCH  30  31
ATOM     31  C   UNL     1      27.819 -29.432 -31.560  0.00  0.00    +0.012 C 
BRANCH  31  33
ATOM     32  C   UNL     1      28.136 -28.040 -33.701  0.00  0.00    -0.102 C 
ATOM     33  C   UNL     1      27.609 -29.056 -33.001  0.00  0.00    -0.081 C 
ENDBRANCH  31  33
ENDBRANCH  30  31
ENDBRANCH  29  30
ENDBRANCH  24  29
ENDBRANCH  20  24
ENDBRANCH  19  22
ENDBRANCH  18  19
ENDBRANCH   1  18
TORSDOF 11
ENDMDL
MODEL 5
REMARK VINA RESULT:    -6.867      1.388      3.815
REMARK INTER + INTRA:         -12.620
REMARK INTER:                 -10.811
REMARK INTRA:                  -1.809
REMARK UNBOUND:                -1.538
REMARK  Name = cpd147.pdb
REMARK  11 active torsions:
REMARK  status: ('A' for Active; 'I' for Inactive)
REMARK    1  A    between atoms: C_2  and  C_3
REMARK    2  A    between atoms: C_3  and  S_4
REMARK    3  A    between atoms: S_4  and  C_5
REMARK    4  A    between atoms: C_5  and  C_6
REMARK    5  A    between atoms: C_6  and  N_7
REMARK    6  A    between atoms: C_6  and  C_8
REMARK    7  A    between atoms: N_10  and  C_11
REMARK    8  A    between atoms: C_11  and  C_12
REMARK    9  A    between atoms: C_12  and  C_13
REMARK   10  A    between atoms: C_13  and  N_14
REMARK   11  A    between atoms: N_14  and  C_15
REMARK                            x       y       z     vdW  Elec       q    Type
REMARK                         _______ _______ _______ _____ _____    ______ ____
ROOT
ATOM      1  C   UNL     1      36.378 -33.449 -31.069  0.00  0.00    +0.011 C 
ENDROOT
BRANCH   1   2
ATOM      2  N   UNL     1      36.281 -34.829 -31.588  0.00  0.00    -0.343 N 
ATOM      3  H   UNL     1      35.687 -35.087 -32.329  0.00  0.00    +0.000 HD
BRANCH   2   4
ATOM      4  C   UNL     1      37.135 -35.752 -30.907  0.00  0.00    +0.041 A 
ATOM      5  C   UNL     1      36.640 -36.393 -29.756  0.00  0.00    -0.005 A 
ATOM      6  C   UNL     1      37.510 -37.226 -29.052  0.00  0.00    +0.047 A 
ATOM      7  N   UNL     1      38.783 -37.468 -29.446  0.00  0.00    -0.251 NA
ATOM      8  C   UNL     1      39.239 -36.894 -30.566  0.00  0.00    +0.073 A 
ATOM      9  C   UNL     1      40.540 -37.183 -30.958  0.00  0.00    -0.036 A 
ATOM     10  C   UNL     1      41.103 -36.643 -32.116  0.00  0.00    -0.060 A 
ATOM     11  C   UNL     1      40.349 -35.796 -32.911  0.00  0.00    -0.061 A 
ATOM     12  C   UNL     1      39.041 -35.491 -32.537  0.00  0.00    -0.051 A 
ATOM     13  C   UNL     1      38.461 -36.024 -31.356  0.00  0.00    +0.021 A 
ATOM     14  C   UNL     1      37.066 -37.989 -27.830  0.00  0.00    -0.010 C 
ATOM     15  C   UNL     1      35.793 -37.438 -27.198  0.00  0.00    -0.047 C 
ATOM     16  C   UNL     1      34.740 -37.210 -28.272  0.00  0.00    -0.049 C 
ATOM     17  C   UNL     1      35.227 -36.163 -29.275  0.00  0.00    -0.024 C 
ENDBRANCH   2   4
ENDBRANCH   1   2
BRANCH   1  18
ATOM     18  C   UNL     1      35.021 -32.939 -30.588  0.00  0.00    -0.022 C 
BRANCH  18  19
ATOM     19  C   UNL     1      33.991 -32.867 -31.713  0.00  0.00    +0.013 C 
BRANCH  19  22
ATOM     20  C   UNL     1      32.763 -35.026 -31.781  0.00  0.00    +0.231 C 
ATOM     21  O   UNL     1      33.671 -35.606 -32.369  0.00  0.00    -0.274 OA
ATOM     22  N   UNL     1      32.822 -33.683 -31.454  0.00  0.00    -0.314 N 
ATOM     23  H   UNL     1      32.038 -33.266 -31.028  0.00  0.00    +0.000 HD
BRANCH  20  24
ATOM     24  C   UNL     1      31.390 -35.662 -31.476  0.00  0.00    +0.091 C 
BRANCH  24  25
ATOM     25  N   UNL     1      30.431 -35.181 -32.504  0.00  0.00    -0.319 N 
ATOM     26  H   UNL     1      30.763 -35.448 -33.431  0.00  0.00    +0.000 HD
ATOM     27  H   UNL     1      30.356 -34.164 -32.450  0.00  0.00    +0.000 HD
ATOM     28  H   UNL     1      29.515 -35.598 -32.337  0.00  0.00    +0.000 HD
ENDBRANCH  24  25
BRANCH  24  29
ATOM     29  C   UNL     1      31.445 -37.197 -31.486  0.00  0.00    +0.018 C 
BRANCH  29  30
ATOM     30  S   UNL     1      31.311 -37.976 -33.141  0.00  0.00    -0.155 S 
BRANCH  30  31
ATOM     31  C   UNL     1      32.606 -39.241 -33.017  0.00  0.00    +0.012 C 
BRANCH  31  33
ATOM     32  C   UNL     1      34.760 -39.045 -31.623  0.00  0.00    -0.102 C 
ATOM     33  C   UNL     1      33.434 -39.187 -31.763  0.00  0.00    -0.081 C 
ENDBRANCH  31  33
ENDBRANCH  30  31
ENDBRANCH  29  30
ENDBRANCH  24  29
ENDBRANCH  20  24
ENDBRANCH  19  22
ENDBRANCH  18  19
ENDBRANCH   1  18
TORSDOF 11
ENDMDL
MODEL 6
REMARK VINA RESULT:    -6.809      1.980      2.573
REMARK INTER + INTRA:         -12.526
REMARK INTER:                 -11.485
REMARK INTRA:                  -1.041
REMARK UNBOUND:                -1.538
REMARK  Name = cpd147.pdb
REMARK  11 active torsions:
REMARK  status: ('A' for Active; 'I' for Inactive)
REMARK    1  A    between atoms: C_2  and  C_3
REMARK    2  A    between atoms: C_3  and  S_4
REMARK    3  A    between atoms: S_4  and  C_5
REMARK    4  A    between atoms: C_5  and  C_6
REMARK    5  A    between atoms: C_6  and  N_7
REMARK    6  A    between atoms: C_6  and  C_8
REMARK    7  A    between atoms: N_10  and  C_11
REMARK    8  A    between atoms: C_11  and  C_12
REMARK    9  A    between atoms: C_12  and  C_13
REMARK   10  A    between atoms: C_13  and  N_14
REMARK   11  A    between atoms: N_14  and  C_15
REMARK                            x       y       z     vdW  Elec       q    Type
REMARK                         _______ _______ _______ _____ _____    ______ ____
ROOT
ATOM      1  C   UNL     1      37.969 -33.867 -31.869  0.00  0.00    +0.011 C 
ENDROOT
BRANCH   1   2
ATOM      2  N   UNL     1      37.609 -35.293 -32.016  0.00  0.00    -0.343 N 
ATOM      3  H   UNL     1      36.995 -35.626 -32.709  0.00  0.00    +0.000 HD
BRANCH   2   4
ATOM      4  C   UNL     1      38.242 -36.140 -31.054  0.00  0.00    +0.041 A 
ATOM      5  C   UNL     1      39.572 -36.537 -31.288  0.00  0.00    -0.005 A 
ATOM      6  C   UNL     1      40.151 -37.431 -30.387  0.00  0.00    +0.047 A 
ATOM      7  N   UNL     1      39.507 -37.899 -29.291  0.00  0.00    -0.251 NA
ATOM      8  C   UNL     1      38.257 -37.485 -29.044  0.00  0.00    +0.073 A 
ATOM      9  C   UNL     1      37.633 -37.962 -27.899  0.00  0.00    -0.036 A 
ATOM     10  C   UNL     1      36.336 -37.581 -27.547  0.00  0.00    -0.060 A 
ATOM     11  C   UNL     1      35.642 -36.696 -28.356  0.00  0.00    -0.061 A 
ATOM     12  C   UNL     1      36.248 -36.205 -29.512  0.00  0.00    -0.051 A 
ATOM     13  C   UNL     1      37.562 -36.594 -29.885  0.00  0.00    +0.021 A 
ATOM     14  C   UNL     1      41.581 -37.888 -30.527  0.00  0.00    -0.010 C 
ATOM     15  C   UNL     1      42.158 -37.663 -31.920  0.00  0.00    -0.047 C 
ATOM     16  C   UNL     1      41.851 -36.247 -32.385  0.00  0.00    -0.049 C 
ATOM     17  C   UNL     1      40.339 -36.043 -32.491  0.00  0.00    -0.024 C 
ENDBRANCH   2   4
ENDBRANCH   1   2
BRANCH   1  18
ATOM     18  C   UNL     1      37.017 -33.150 -30.914  0.00  0.00    -0.022 C 
BRANCH  18  19
ATOM     19  C   UNL     1      35.635 -32.926 -31.525  0.00  0.00    +0.013 C 
BRANCH  19  22
ATOM     20  C   UNL     1      33.375 -33.736 -30.885  0.00  0.00    +0.231 C 
ATOM     21  O   UNL     1      33.119 -34.135 -32.017  0.00  0.00    -0.274 OA
ATOM     22  N   UNL     1      34.564 -33.104 -30.566  0.00  0.00    -0.314 N 
ATOM     23  H   UNL     1      34.686 -32.762 -29.651  0.00  0.00    +0.000 HD
BRANCH  20  24
ATOM     24  C   UNL     1      32.361 -33.738 -29.721  0.00  0.00    +0.091 C 
BRANCH  24  25
ATOM     25  N   UNL     1      31.132 -33.049 -30.192  0.00  0.00    -0.319 N 
ATOM     26  H   UNL     1      30.485 -32.937 -29.411  0.00  0.00    +0.000 HD
ATOM     27  H   UNL     1      30.689 -33.605 -30.924  0.00  0.00    +0.000 HD
ATOM     28  H   UNL     1      31.377 -32.131 -30.564  0.00  0.00    +0.000 HD
ENDBRANCH  24  25
BRANCH  24  29
ATOM     29  C   UNL     1      32.020 -35.159 -29.250  0.00  0.00    +0.018 C 
BRANCH  29  30
ATOM     30  S   UNL     1      31.254 -35.272 -27.587  0.00  0.00    -0.155 S 
BRANCH  30  31
ATOM     31  C   UNL     1      32.140 -36.702 -26.910  0.00  0.00    +0.012 C 
BRANCH  31  33
ATOM     32  C   UNL     1      33.780 -37.239 -25.001  0.00  0.00    -0.102 C 
ATOM     33  C   UNL     1      32.990 -36.414 -25.703  0.00  0.00    -0.081 C 
ENDBRANCH  31  33
ENDBRANCH  30  31
ENDBRANCH  29  30
ENDBRANCH  24  29
ENDBRANCH  20  24
ENDBRANCH  19  22
ENDBRANCH  18  19
ENDBRANCH   1  18
TORSDOF 11
ENDMDL
MODEL 7
REMARK VINA RESULT:    -6.546      2.414      4.782
REMARK INTER + INTRA:         -12.102
REMARK INTER:                 -11.124
REMARK INTRA:                  -0.978
REMARK UNBOUND:                -1.538
REMARK  Name = cpd147.pdb
REMARK  11 active torsions:
REMARK  status: ('A' for Active; 'I' for Inactive)
REMARK    1  A    between atoms: C_2  and  C_3
REMARK    2  A    between atoms: C_3  and  S_4
REMARK    3  A    between atoms: S_4  and  C_5
REMARK    4  A    between atoms: C_5  and  C_6
REMARK    5  A    between atoms: C_6  and  N_7
REMARK    6  A    between atoms: C_6  and  C_8
REMARK    7  A    between atoms: N_10  and  C_11
REMARK    8  A    between atoms: C_11  and  C_12
REMARK    9  A    between atoms: C_12  and  C_13
REMARK   10  A    between atoms: C_13  and  N_14
REMARK   11  A    between atoms: N_14  and  C_15
REMARK                            x       y       z     vdW  Elec       q    Type
REMARK                         _______ _______ _______ _____ _____    ______ ____
ROOT
ATOM      1  C   UNL     1      36.603 -33.425 -30.910  0.00  0.00    +0.011 C 
ENDROOT
BRANCH   1   2
ATOM      2  N   UNL     1      36.649 -34.792 -31.469  0.00  0.00    -0.343 N 
ATOM      3  H   UNL     1      36.106 -35.080 -32.237  0.00  0.00    +0.000 HD
BRANCH   2   4
ATOM      4  C   UNL     1      37.560 -35.655 -30.784  0.00  0.00    +0.041 A 
ATOM      5  C   UNL     1      37.076 -36.408 -29.698  0.00  0.00    -0.005 A 
ATOM      6  C   UNL     1      37.992 -37.182 -28.984  0.00  0.00    +0.047 A 
ATOM      7  N   UNL     1      39.303 -37.264 -29.310  0.00  0.00    -0.251 NA
ATOM      8  C   UNL     1      39.755 -36.582 -30.371  0.00  0.00    +0.073 A 
ATOM      9  C   UNL     1      41.100 -36.707 -30.695  0.00  0.00    -0.036 A 
ATOM     10  C   UNL     1      41.664 -36.047 -31.789  0.00  0.00    -0.060 A 
ATOM     11  C   UNL     1      40.867 -35.242 -32.585  0.00  0.00    -0.061 A 
ATOM     12  C   UNL     1      39.514 -35.100 -32.278  0.00  0.00    -0.051 A 
ATOM     13  C   UNL     1      38.931 -35.758 -31.162  0.00  0.00    +0.021 A 
ATOM     14  C   UNL     1      37.567 -38.054 -27.830  0.00  0.00    -0.010 C 
ATOM     15  C   UNL     1      36.208 -37.680 -27.252  0.00  0.00    -0.047 C 
ATOM     16  C   UNL     1      35.197 -37.505 -28.376  0.00  0.00    -0.049 C 
ATOM     17  C   UNL     1      35.621 -36.358 -29.294  0.00  0.00    -0.024 C 
ENDBRANCH   2   4
ENDBRANCH   1   2
BRANCH   1  18
ATOM     18  C   UNL     1      35.176 -33.019 -30.550  0.00  0.00    -0.022 C 
BRANCH  18  19
ATOM     19  C   UNL     1      34.536 -32.128 -31.612  0.00  0.00    +0.013 C 
BRANCH  19  22
ATOM     20  C   UNL     1      32.135 -32.741 -31.791  0.00  0.00    +0.231 C 
ATOM     21  O   UNL     1      32.366 -33.740 -32.466  0.00  0.00    -0.274 OA
ATOM     22  N   UNL     1      33.130 -31.881 -31.363  0.00  0.00    -0.314 N 
ATOM     23  H   UNL     1      32.873 -31.069 -30.868  0.00  0.00    +0.000 HD
BRANCH  20  24
ATOM     24  C   UNL     1      30.715 -32.227 -31.472  0.00  0.00    +0.091 C 
BRANCH  24  25
ATOM     25  N   UNL     1      29.797 -33.396 -31.489  0.00  0.00    -0.319 N 
ATOM     26  H   UNL     1      28.900 -33.130 -31.083  0.00  0.00    +0.000 HD
ATOM     27  H   UNL     1      30.205 -34.157 -30.943  0.00  0.00    +0.000 HD
ATOM     28  H   UNL     1      29.658 -33.706 -32.451  0.00  0.00    +0.000 HD
ENDBRANCH  24  25
BRANCH  24  29
ATOM     29  C   UNL     1      30.644 -31.523 -30.109  0.00  0.00    +0.018 C 
BRANCH  29  30
ATOM     30  S   UNL     1      30.025 -32.554 -28.724  0.00  0.00    -0.155 S 
BRANCH  30  31
ATOM     31  C   UNL     1      31.590 -33.170 -28.044  0.00  0.00    +0.012 C 
BRANCH  31  33
ATOM     32  C   UNL     1      32.573 -35.423 -27.284  0.00  0.00    -0.102 C 
ATOM     33  C   UNL     1      31.556 -34.590 -27.550  0.00  0.00    -0.081 C 
ENDBRANCH  31  33
ENDBRANCH  30  31
ENDBRANCH  29  30
ENDBRANCH  24  29
ENDBRANCH  20  24
ENDBRANCH  19  22
ENDBRANCH  18  19
ENDBRANCH   1  18
TORSDOF 11
ENDMDL
MODEL 8
REMARK VINA RESULT:    -6.475      3.853      6.752
REMARK INTER + INTRA:         -11.987
REMARK INTER:                 -10.901
REMARK INTRA:                  -1.086
REMARK UNBOUND:                -1.538
REMARK  Name = cpd147.pdb
REMARK  11 active torsions:
REMARK  status: ('A' for Active; 'I' for Inactive)
REMARK    1  A    between atoms: C_2  and  C_3
REMARK    2  A    between atoms: C_3  and  S_4
REMARK    3  A    between atoms: S_4  and  C_5
REMARK    4  A    between atoms: C_5  and  C_6
REMARK    5  A    between atoms: C_6  and  N_7
REMARK    6  A    between atoms: C_6  and  C_8
REMARK    7  A    between atoms: N_10  and  C_11
REMARK    8  A    between atoms: C_11  and  C_12
REMARK    9  A    between atoms: C_12  and  C_13
REMARK   10  A    between atoms: C_13  and  N_14
REMARK   11  A    between atoms: N_14  and  C_15
REMARK                            x       y       z     vdW  Elec       q    Type
REMARK                         _______ _______ _______ _____ _____    ______ ____
ROOT
ATOM      1  C   UNL     1      33.817 -35.082 -31.324  0.00  0.00    +0.011 C 
ENDROOT
BRANCH   1   2
ATOM      2  N   UNL     1      34.635 -34.560 -30.211  0.00  0.00    -0.343 N 
ATOM      3  H   UNL     1      34.663 -33.608 -29.960  0.00  0.00    +0.000 HD
BRANCH   2   4
ATOM      4  C   UNL     1      35.383 -35.572 -29.532  0.00  0.00    +0.041 A 
ATOM      5  C   UNL     1      34.808 -36.180 -28.401  0.00  0.00    -0.005 A 
ATOM      6  C   UNL     1      35.581 -37.105 -27.698  0.00  0.00    +0.047 A 
ATOM      7  N   UNL     1      36.831 -37.462 -28.074  0.00  0.00    -0.251 NA
ATOM      8  C   UNL     1      37.362 -36.916 -29.176  0.00  0.00    +0.073 A 
ATOM      9  C   UNL     1      38.636 -37.323 -29.551  0.00  0.00    -0.036 A 
ATOM     10  C   UNL     1      39.270 -36.822 -30.689  0.00  0.00    -0.060 A 
ATOM     11  C   UNL     1      38.616 -35.893 -31.481  0.00  0.00    -0.061 A 
ATOM     12  C   UNL     1      37.336 -35.469 -31.125  0.00  0.00    -0.051 A 
ATOM     13  C   UNL     1      36.686 -35.963 -29.963  0.00  0.00    +0.021 A 
ATOM     14  C   UNL     1      35.043 -37.841 -26.497  0.00  0.00    -0.010 C 
ATOM     15  C   UNL     1      33.817 -37.180 -25.877  0.00  0.00    -0.047 C 
ATOM     16  C   UNL     1      32.811 -36.834 -26.964  0.00  0.00    -0.049 C 
ATOM     17  C   UNL     1      33.415 -35.823 -27.940  0.00  0.00    -0.024 C 
ENDBRANCH   2   4
ENDBRANCH   1   2
BRANCH   1  18
ATOM     18  C   UNL     1      33.248 -33.949 -32.175  0.00  0.00    -0.022 C 
BRANCH  18  19
ATOM     19  C   UNL     1      33.679 -32.571 -31.677  0.00  0.00    +0.013 C 
BRANCH  19  22
ATOM     20  C   UNL     1      32.196 -31.798 -29.841  0.00  0.00    +0.231 C 
ATOM     21  O   UNL     1      32.734 -32.519 -29.006  0.00  0.00    -0.274 OA
ATOM     22  N   UNL     1      32.571 -31.786 -31.172  0.00  0.00    -0.314 N 
ATOM     23  H   UNL     1      32.065 -31.222 -31.801  0.00  0.00    +0.000 HD
BRANCH  20  24
ATOM     24  C   UNL     1      30.944 -30.940 -29.559  0.00  0.00    +0.091 C 
BRANCH  24  25
ATOM     25  N   UNL     1      31.365 -29.789 -28.718  0.00  0.00    -0.319 N 
ATOM     26  H   UNL     1      30.760 -29.727 -27.899  0.00  0.00    +0.000 HD
ATOM     27  H   UNL     1      31.292 -28.927 -29.261  0.00  0.00    +0.000 HD
ATOM     28  H   UNL     1      32.331 -29.921 -28.420  0.00  0.00    +0.000 HD
ENDBRANCH  24  25
BRANCH  24  29
ATOM     29  C   UNL     1      30.282 -30.435 -30.850  0.00  0.00    +0.018 C 
BRANCH  29  30
ATOM     30  S   UNL     1      28.717 -31.274 -31.309  0.00  0.00    -0.155 S 
BRANCH  30  31
ATOM     31  C   UNL     1      28.423 -30.552 -32.947  0.00  0.00    +0.012 C 
BRANCH  31  33
ATOM     32  C   UNL     1      28.252 -28.097 -33.701  0.00  0.00    -0.102 C 
ATOM     33  C   UNL     1      27.898 -29.143 -32.939  0.00  0.00    -0.081 C 
ENDBRANCH  31  33
ENDBRANCH  30  31
ENDBRANCH  29  30
ENDBRANCH  24  29
ENDBRANCH  20  24
ENDBRANCH  19  22
ENDBRANCH  18  19
ENDBRANCH   1  18
TORSDOF 11
ENDMDL
MODEL 9
REMARK VINA RESULT:    -6.328      3.818      6.276
REMARK INTER + INTRA:         -11.750
REMARK INTER:                 -11.083
REMARK INTRA:                  -0.667
REMARK UNBOUND:                -1.538
REMARK  Name = cpd147.pdb
REMARK  11 active torsions:
REMARK  status: ('A' for Active; 'I' for Inactive)
REMARK    1  A    between atoms: C_2  and  C_3
REMARK    2  A    between atoms: C_3  and  S_4
REMARK    3  A    between atoms: S_4  and  C_5
REMARK    4  A    between atoms: C_5  and  C_6
REMARK    5  A    between atoms: C_6  and  N_7
REMARK    6  A    between atoms: C_6  and  C_8
REMARK    7  A    between atoms: N_10  and  C_11
REMARK    8  A    between atoms: C_11  and  C_12
REMARK    9  A    between atoms: C_12  and  C_13
REMARK   10  A    between atoms: C_13  and  N_14
REMARK   11  A    between atoms: N_14  and  C_15
REMARK                            x       y       z     vdW  Elec       q    Type
REMARK                         _______ _______ _______ _____ _____    ______ ____
ROOT
ATOM      1  C   UNL     1      36.114 -33.897 -30.785  0.00  0.00    +0.011 C 
ENDROOT
BRANCH   1   2
ATOM      2  N   UNL     1      36.467 -35.055 -31.631  0.00  0.00    -0.343 N 
ATOM      3  H   UNL     1      36.115 -35.187 -32.541  0.00  0.00    +0.000 HD
BRANCH   2   4
ATOM      4  C   UNL     1      37.370 -35.965 -30.998  0.00  0.00    +0.041 A 
ATOM      5  C   UNL     1      36.829 -37.041 -30.268  0.00  0.00    -0.005 A 
ATOM      6  C   UNL     1      37.717 -37.873 -29.586  0.00  0.00    +0.047 A 
ATOM      7  N   UNL     1      39.061 -37.711 -29.624  0.00  0.00    -0.251 NA
ATOM      8  C   UNL     1      39.577 -36.715 -30.355  0.00  0.00    +0.073 A 
ATOM      9  C   UNL     1      40.960 -36.592 -30.396  0.00  0.00    -0.036 A 
ATOM     10  C   UNL     1      41.594 -35.594 -31.138  0.00  0.00    -0.060 A 
ATOM     11  C   UNL     1      40.832 -34.695 -31.866  0.00  0.00    -0.061 A 
ATOM     12  C   UNL     1      39.442 -34.799 -31.839  0.00  0.00    -0.051 A 
ATOM     13  C   UNL     1      38.784 -35.802 -31.079  0.00  0.00    +0.021 A 
ATOM     14  C   UNL     1      37.243 -39.074 -28.808  0.00  0.00    -0.010 C 
ATOM     15  C   UNL     1      35.757 -39.032 -28.470  0.00  0.00    -0.047 C 
ATOM     16  C   UNL     1      34.954 -38.668 -29.709  0.00  0.00    -0.049 C 
ATOM     17  C   UNL     1      35.339 -37.270 -30.196  0.00  0.00    -0.024 C 
ENDBRANCH   2   4
ENDBRANCH   1   2
BRANCH   1  18
ATOM     18  C   UNL     1      34.611 -33.626 -30.812  0.00  0.00    -0.022 C 
BRANCH  18  19
ATOM     19  C   UNL     1      34.285 -32.134 -30.817  0.00  0.00    +0.013 C 
BRANCH  19  22
ATOM     20  C   UNL     1      31.942 -31.747 -30.088  0.00  0.00    +0.231 C 
ATOM     21  O   UNL     1      31.482 -31.965 -31.205  0.00  0.00    -0.274 OA
ATOM     22  N   UNL     1      33.299 -31.774 -29.819  0.00  0.00    -0.314 N 
ATOM     23  H   UNL     1      33.606 -31.539 -28.913  0.00  0.00    +0.000 HD
BRANCH  20  24
ATOM     24  C   UNL     1      31.099 -31.262 -28.890  0.00  0.00    +0.091 C 
BRANCH  24  25
ATOM     25  N   UNL     1      31.471 -29.849 -28.617  0.00  0.00    -0.319 N 
ATOM     26  H   UNL     1      31.727 -29.749 -27.635  0.00  0.00    +0.000 HD
ATOM     27  H   UNL     1      30.678 -29.241 -28.826  0.00  0.00    +0.000 HD
ATOM     28  H   UNL     1      32.264 -29.587 -29.203  0.00  0.00    +0.000 HD
ENDBRANCH  24  25
BRANCH  24  29
ATOM     29  C   UNL     1      29.590 -31.364 -29.160  0.00  0.00    +0.018 C 
BRANCH  29  30
ATOM     30  S   UNL     1      28.551 -30.125 -28.294  0.00  0.00    -0.155 S 
BRANCH  30  31
ATOM     31  C   UNL     1      28.212 -28.970 -29.652  0.00  0.00    +0.012 C 
BRANCH  31  33
ATOM     32  C   UNL     1      28.856 -28.840 -32.140  0.00  0.00    -0.102 C 
ATOM     33  C   UNL     1      28.499 -29.502 -31.029  0.00  0.00    -0.081 C 
ENDBRANCH  31  33
ENDBRANCH  30  31
ENDBRANCH  29  30
ENDBRANCH  24  29
ENDBRANCH  20  24
ENDBRANCH  19  22
ENDBRANCH  18  19
ENDBRANCH   1  18
TORSDOF 11
ENDMDL
MODEL 10
REMARK VINA RESULT:    -6.187      3.398      6.368
REMARK INTER + INTRA:         -11.523
REMARK INTER:                 -10.342
REMARK INTRA:                  -1.181
REMARK UNBOUND:                -1.538
REMARK  Name = cpd147.pdb
REMARK  11 active torsions:
REMARK  status: ('A' for Active; 'I' for Inactive)
REMARK    1  A    between atoms: C_2  and  C_3
REMARK    2  A    between atoms: C_3  and  S_4
REMARK    3  A    between atoms: S_4  and  C_5
REMARK    4  A    between atoms: C_5  and  C_6
REMARK    5  A    between atoms: C_6  and  N_7
REMARK    6  A    between atoms: C_6  and  C_8
REMARK    7  A    between atoms: N_10  and  C_11
REMARK    8  A    between atoms: C_11  and  C_12
REMARK    9  A    between atoms: C_12  and  C_13
REMARK   10  A    between atoms: C_13  and  N_14
REMARK   11  A    between atoms: N_14  and  C_15
REMARK                            x       y       z     vdW  Elec       q    Type
REMARK                         _______ _______ _______ _____ _____    ______ ____
ROOT
ATOM      1  C   UNL     1      36.369 -39.030 -28.631  0.00  0.00    +0.011 C 
ENDROOT
BRANCH   1   2
ATOM      2  N   UNL     1      37.033 -37.788 -28.185  0.00  0.00    -0.343 N 
ATOM      3  H   UNL     1      37.281 -37.614 -27.248  0.00  0.00    +0.000 HD
BRANCH   2   4
ATOM      4  C   UNL     1      37.281 -36.864 -29.247  0.00  0.00    +0.041 A 
ATOM      5  C   UNL     1      36.259 -35.961 -29.598  0.00  0.00    -0.005 A 
ATOM      6  C   UNL     1      36.480 -35.122 -30.690  0.00  0.00    +0.047 A 
ATOM      7  N   UNL     1      37.635 -35.116 -31.396  0.00  0.00    -0.251 NA
ATOM      8  C   UNL     1      38.625 -35.943 -31.035  0.00  0.00    +0.073 A 
ATOM      9  C   UNL     1      39.807 -35.894 -31.762  0.00  0.00    -0.036 A 
ATOM     10  C   UNL     1      40.900 -36.707 -31.456  0.00  0.00    -0.060 A 
ATOM     11  C   UNL     1      40.818 -37.591 -30.393  0.00  0.00    -0.061 A 
ATOM     12  C   UNL     1      39.640 -37.658 -29.650  0.00  0.00    -0.051 A 
ATOM     13  C   UNL     1      38.518 -36.845 -29.958  0.00  0.00    +0.021 A 
ATOM     14  C   UNL     1      35.465 -34.094 -31.122  0.00  0.00    -0.010 C 
ATOM     15  C   UNL     1      34.065 -34.357 -30.579  0.00  0.00    -0.047 C 
ATOM     16  C   UNL     1      34.135 -34.654 -29.089  0.00  0.00    -0.049 C 
ATOM     17  C   UNL     1      34.953 -35.923 -28.841  0.00  0.00    -0.024 C 
ENDBRANCH   2   4
ENDBRANCH   1   2
BRANCH   1  18
ATOM     18  C   UNL     1      37.334 -40.214 -28.611  0.00  0.00    -0.022 C 
BRANCH  18  19
ATOM     19  C   UNL     1      36.609 -41.557 -28.558  0.00  0.00    +0.013 C 
BRANCH  19  22
ATOM     20  C   UNL     1      34.156 -41.821 -28.267  0.00  0.00    +0.231 C 
ATOM     21  O   UNL     1      33.973 -42.097 -29.449  0.00  0.00    -0.274 OA
ATOM     22  N   UNL     1      35.404 -41.511 -27.755  0.00  0.00    -0.314 N 
ATOM     23  H   UNL     1      35.475 -41.249 -26.809  0.00  0.00    +0.000 HD
BRANCH  20  24
ATOM     24  C   UNL     1      33.019 -41.628 -27.241  0.00  0.00    +0.091 C 
BRANCH  24  25
ATOM     25  N   UNL     1      32.459 -42.969 -26.929  0.00  0.00    -0.319 N 
ATOM     26  H   UNL     1      31.706 -42.873 -26.248  0.00  0.00    +0.000 HD
ATOM     27  H   UNL     1      33.194 -43.563 -26.542  0.00  0.00    +0.000 HD
ATOM     28  H   UNL     1      32.095 -43.393 -27.782  0.00  0.00    +0.000 HD
ENDBRANCH  24  25
BRANCH  24  29
ATOM     29  C   UNL     1      33.506 -40.949 -25.953  0.00  0.00    +0.018 C 
BRANCH  29  30
ATOM     30  S   UNL     1      32.576 -39.447 -25.458  0.00  0.00    -0.155 S 
BRANCH  30  31
ATOM     31  C   UNL     1      33.674 -38.152 -26.094  0.00  0.00    +0.012 C 
BRANCH  31  33
ATOM     32  C   UNL     1      32.285 -36.040 -25.614  0.00  0.00    -0.102 C 
ATOM     33  C   UNL     1      33.408 -36.770 -25.562  0.00  0.00    -0.081 C 
ENDBRANCH  31  33
ENDBRANCH  30  31
ENDBRANCH  29  30
ENDBRANCH  24  29
ENDBRANCH  20  24
ENDBRANCH  19  22
ENDBRANCH  18  19
ENDBRANCH   1  18
TORSDOF 11
ENDMDL
MODEL 11
REMARK VINA RESULT:    -6.090     17.486     19.783
REMARK INTER + INTRA:         -11.367
REMARK INTER:                  -9.862
REMARK INTRA:                  -1.505
REMARK UNBOUND:                -1.538
REMARK  Name = cpd147.pdb
REMARK  11 active torsions:
REMARK  status: ('A' for Active; 'I' for Inactive)
REMARK    1  A    between atoms: C_2  and  C_3
REMARK    2  A    between atoms: C_3  and  S_4
REMARK    3  A    between atoms: S_4  and  C_5
REMARK    4  A    between atoms: C_5  and  C_6
REMARK    5  A    between atoms: C_6  and  N_7
REMARK    6  A    between atoms: C_6  and  C_8
REMARK    7  A    between atoms: N_10  and  C_11
REMARK    8  A    between atoms: C_11  and  C_12
REMARK    9  A    between atoms: C_12  and  C_13
REMARK   10  A    between atoms: C_13  and  N_14
REMARK   11  A    between atoms: N_14  and  C_15
REMARK                            x       y       z     vdW  Elec       q    Type
REMARK                         _______ _______ _______ _____ _____    ______ ____
ROOT
ATOM      1  C   UNL     1      47.221 -19.007 -38.031  0.00  0.00    +0.011 C 
ENDROOT
BRANCH   1   2
ATOM      2  N   UNL     1      46.732 -20.386 -37.824  0.00  0.00    -0.343 N 
ATOM      3  H   UNL     1      46.924 -20.912 -37.015  0.00  0.00    +0.000 HD
BRANCH   2   4
ATOM      4  C   UNL     1      45.952 -20.881 -38.916  0.00  0.00    +0.041 A 
ATOM      5  C   UNL     1      46.609 -21.603 -39.930  0.00  0.00    -0.005 A 
ATOM      6  C   UNL     1      45.854 -22.008 -41.032  0.00  0.00    +0.047 A 
ATOM      7  N   UNL     1      44.526 -21.768 -41.147  0.00  0.00    -0.251 NA
ATOM      8  C   UNL     1      43.893 -21.120 -40.161  0.00  0.00    +0.073 A 
ATOM      9  C   UNL     1      42.526 -20.914 -40.296  0.00  0.00    -0.036 A 
ATOM     10  C   UNL     1      41.774 -20.260 -39.318  0.00  0.00    -0.060 A 
ATOM     11  C   UNL     1      42.398 -19.802 -38.169  0.00  0.00    -0.061 A 
ATOM     12  C   UNL     1      43.770 -19.998 -38.012  0.00  0.00    -0.051 A 
ATOM     13  C   UNL     1      44.547 -20.652 -39.005  0.00  0.00    +0.021 A 
ATOM     14  C   UNL     1      46.454 -22.819 -42.152  0.00  0.00    -0.010 C 
ATOM     15  C   UNL     1      47.976 -22.762 -42.197  0.00  0.00    -0.047 C 
ATOM     16  C   UNL     1      48.545 -23.004 -40.807  0.00  0.00    -0.049 C 
ATOM     17  C   UNL     1      48.087 -21.902 -39.850  0.00  0.00    -0.024 C 
ENDBRANCH   2   4
ENDBRANCH   1   2
BRANCH   1  18
ATOM     18  C   UNL     1      46.678 -18.059 -36.964  0.00  0.00    -0.022 C 
BRANCH  18  19
ATOM     19  C   UNL     1      47.048 -18.498 -35.549  0.00  0.00    +0.013 C 
BRANCH  19  22
ATOM     20  C   UNL     1      45.270 -19.853 -34.465  0.00  0.00    +0.231 C 
ATOM     21  O   UNL     1      45.612 -20.887 -35.031  0.00  0.00    -0.274 OA
ATOM     22  N   UNL     1      45.892 -18.638 -34.686  0.00  0.00    -0.314 N 
ATOM     23  H   UNL     1      45.536 -17.836 -34.239  0.00  0.00    +0.000 HD
BRANCH  20  24
ATOM     24  C   UNL     1      44.018 -19.736 -33.569  0.00  0.00    +0.091 C 
BRANCH  24  25
ATOM     25  N   UNL     1      44.283 -18.679 -32.558  0.00  0.00    -0.319 N 
ATOM     26  H   UNL     1      44.839 -19.069 -31.797  0.00  0.00    +0.000 HD
ATOM     27  H   UNL     1      43.397 -18.332 -32.190  0.00  0.00    +0.000 HD
ATOM     28  H   UNL     1      44.793 -17.912 -32.995  0.00  0.00    +0.000 HD
ENDBRANCH  24  25
BRANCH  24  29
ATOM     29  C   UNL     1      42.757 -19.389 -34.374  0.00  0.00    +0.018 C 
BRANCH  29  30
ATOM     30  S   UNL     1      41.555 -20.760 -34.579  0.00  0.00    -0.155 S 
BRANCH  30  31
ATOM     31  C   UNL     1      40.691 -20.685 -32.985  0.00  0.00    +0.012 C 
BRANCH  31  33
ATOM     32  C   UNL     1      39.978 -18.453 -31.922  0.00  0.00    -0.102 C 
ATOM     33  C   UNL     1      39.828 -19.470 -32.783  0.00  0.00    -0.081 C 
ENDBRANCH  31  33
ENDBRANCH  30  31
ENDBRANCH  29  30
ENDBRANCH  24  29
ENDBRANCH  20  24
ENDBRANCH  19  22
ENDBRANCH  18  19
ENDBRANCH   1  18
TORSDOF 11
ENDMDL
MODEL 12
REMARK VINA RESULT:    -6.053     18.580     21.289
REMARK INTER + INTRA:         -11.307
REMARK INTER:                  -9.573
REMARK INTRA:                  -1.734
REMARK UNBOUND:                -1.538
REMARK  Name = cpd147.pdb
REMARK  11 active torsions:
REMARK  status: ('A' for Active; 'I' for Inactive)
REMARK    1  A    between atoms: C_2  and  C_3
REMARK    2  A    between atoms: C_3  and  S_4
REMARK    3  A    between atoms: S_4  and  C_5
REMARK    4  A    between atoms: C_5  and  C_6
REMARK    5  A    between atoms: C_6  and  N_7
REMARK    6  A    between atoms: C_6  and  C_8
REMARK    7  A    between atoms: N_10  and  C_11
REMARK    8  A    between atoms: C_11  and  C_12
REMARK    9  A    between atoms: C_12  and  C_13
REMARK   10  A    between atoms: C_13  and  N_14
REMARK   11  A    between atoms: N_14  and  C_15
REMARK                            x       y       z     vdW  Elec       q    Type
REMARK                         _______ _______ _______ _____ _____    ______ ____
ROOT
ATOM      1  C   UNL     1      46.786 -19.070 -37.690  0.00  0.00    +0.011 C 
ENDROOT
BRANCH   1   2
ATOM      2  N   UNL     1      47.329 -18.926 -39.056  0.00  0.00    -0.343 N 
ATOM      3  H   UNL     1      48.279 -18.748 -39.245  0.00  0.00    +0.000 HD
BRANCH   2   4
ATOM      4  C   UNL     1      46.340 -19.071 -40.078  0.00  0.00    +0.041 A 
ATOM      5  C   UNL     1      46.241 -20.309 -40.740  0.00  0.00    -0.005 A 
ATOM      6  C   UNL     1      45.331 -20.412 -41.793  0.00  0.00    +0.047 A 
ATOM      7  N   UNL     1      44.524 -19.395 -42.175  0.00  0.00    -0.251 NA
ATOM      8  C   UNL     1      44.586 -18.231 -41.516  0.00  0.00    +0.073 A 
ATOM      9  C   UNL     1      43.727 -17.215 -41.915  0.00  0.00    -0.036 A 
ATOM     10  C   UNL     1      43.706 -15.970 -41.284  0.00  0.00    -0.060 A 
ATOM     11  C   UNL     1      44.562 -15.729 -40.222  0.00  0.00    -0.061 A 
ATOM     12  C   UNL     1      45.434 -16.734 -39.804  0.00  0.00    -0.051 A 
ATOM     13  C   UNL     1      45.472 -18.000 -40.445  0.00  0.00    +0.021 A 
ATOM     14  C   UNL     1      45.122 -21.705 -42.539  0.00  0.00    -0.010 C 
ATOM     15  C   UNL     1      46.261 -22.703 -42.360  0.00  0.00    -0.047 C 
ATOM     16  C   UNL     1      46.616 -22.823 -40.886  0.00  0.00    -0.049 C 
ATOM     17  C   UNL     1      47.113 -21.479 -40.351  0.00  0.00    -0.024 C 
ENDBRANCH   2   4
ENDBRANCH   1   2
BRANCH   1  18
ATOM     18  C   UNL     1      47.260 -17.938 -36.781  0.00  0.00    -0.022 C 
BRANCH  18  19
ATOM     19  C   UNL     1      47.197 -18.311 -35.302  0.00  0.00    +0.013 C 
BRANCH  19  22
ATOM     20  C   UNL     1      45.325 -19.734 -34.503  0.00  0.00    +0.231 C 
ATOM     21  O   UNL     1      45.957 -20.776 -34.650  0.00  0.00    -0.274 OA
ATOM     22  N   UNL     1      45.840 -18.493 -34.828  0.00  0.00    -0.314 N 
ATOM     23  H   UNL     1      45.262 -17.701 -34.734  0.00  0.00    +0.000 HD
BRANCH  20  24
ATOM     24  C   UNL     1      43.837 -19.682 -34.094  0.00  0.00    +0.091 C 
BRANCH  24  25
ATOM     25  N   UNL     1      43.758 -19.044 -32.754  0.00  0.00    -0.319 N 
ATOM     26  H   UNL     1      44.337 -19.566 -32.095  0.00  0.00    +0.000 HD
ATOM     27  H   UNL     1      42.790 -19.046 -32.432  0.00  0.00    +0.000 HD
ATOM     28  H   UNL     1      44.094 -18.083 -32.814  0.00  0.00    +0.000 HD
ENDBRANCH  24  25
BRANCH  24  29
ATOM     29  C   UNL     1      42.984 -18.896 -35.101  0.00  0.00    +0.018 C 
BRANCH  29  30
ATOM     30  S   UNL     1      41.784 -19.896 -36.062  0.00  0.00    -0.155 S 
BRANCH  30  31
ATOM     31  C   UNL     1      42.916 -20.936 -37.026  0.00  0.00    +0.012 C 
BRANCH  31  33
ATOM     32  C   UNL     1      42.388 -20.374 -39.481  0.00  0.00    -0.102 C 
ATOM     33  C   UNL     1      43.203 -20.447 -38.418  0.00  0.00    -0.081 C 
ENDBRANCH  31  33
ENDBRANCH  30  31
ENDBRANCH  29  30
ENDBRANCH  24  29
ENDBRANCH  20  24
ENDBRANCH  19  22
ENDBRANCH  18  19
ENDBRANCH   1  18
TORSDOF 11
ENDMDL
MODEL 13
REMARK VINA RESULT:    -5.922     18.614     21.407
REMARK INTER + INTRA:         -11.095
REMARK INTER:                  -9.262
REMARK INTRA:                  -1.833
REMARK UNBOUND:                -1.538
REMARK  Name = cpd147.pdb
REMARK  11 active torsions:
REMARK  status: ('A' for Active; 'I' for Inactive)
REMARK    1  A    between atoms: C_2  and  C_3
REMARK    2  A    between atoms: C_3  and  S_4
REMARK    3  A    between atoms: S_4  and  C_5
REMARK    4  A    between atoms: C_5  and  C_6
REMARK    5  A    between atoms: C_6  and  N_7
REMARK    6  A    between atoms: C_6  and  C_8
REMARK    7  A    between atoms: N_10  and  C_11
REMARK    8  A    between atoms: C_11  and  C_12
REMARK    9  A    between atoms: C_12  and  C_13
REMARK   10  A    between atoms: C_13  and  N_14
REMARK   11  A    between atoms: N_14  and  C_15
REMARK                            x       y       z     vdW  Elec       q    Type
REMARK                         _______ _______ _______ _____ _____    ______ ____
ROOT
ATOM      1  C   UNL     1      43.731 -20.773 -38.535  0.00  0.00    +0.011 C 
ENDROOT
BRANCH   1   2
ATOM      2  N   UNL     1      43.654 -20.471 -39.978  0.00  0.00    -0.343 N 
ATOM      3  H   UNL     1      42.870 -20.684 -40.534  0.00  0.00    +0.000 HD
BRANCH   2   4
ATOM      4  C   UNL     1      44.830 -19.838 -40.489  0.00  0.00    +0.041 A 
ATOM      5  C   UNL     1      45.872 -20.654 -40.969  0.00  0.00    -0.005 A 
ATOM      6  C   UNL     1      47.047 -20.029 -41.385  0.00  0.00    +0.047 A 
ATOM      7  N   UNL     1      47.212 -18.685 -41.380  0.00  0.00    -0.251 NA
ATOM      8  C   UNL     1      46.205 -17.906 -40.965  0.00  0.00    +0.073 A 
ATOM      9  C   UNL     1      46.395 -16.531 -40.997  0.00  0.00    -0.036 A 
ATOM     10  C   UNL     1      45.402 -15.635 -40.597  0.00  0.00    -0.060 A 
ATOM     11  C   UNL     1      44.182 -16.120 -40.158  0.00  0.00    -0.061 A 
ATOM     12  C   UNL     1      43.968 -17.497 -40.117  0.00  0.00    -0.051 A 
ATOM     13  C   UNL     1      44.974 -18.419 -40.510  0.00  0.00    +0.021 A 
ATOM     14  C   UNL     1      48.206 -20.810 -41.952  0.00  0.00    -0.010 C 
ATOM     15  C   UNL     1      48.160 -22.296 -41.615  0.00  0.00    -0.047 C 
ATOM     16  C   UNL     1      46.771 -22.848 -41.895  0.00  0.00    -0.049 C 
ATOM     17  C   UNL     1      45.738 -22.158 -41.002  0.00  0.00    -0.024 C 
ENDBRANCH   2   4
ENDBRANCH   1   2
BRANCH   1  18
ATOM     18  C   UNL     1      42.342 -20.814 -37.901  0.00  0.00    -0.022 C 
BRANCH  18  19
ATOM     19  C   UNL     1      42.196 -19.823 -36.748  0.00  0.00    +0.013 C 
BRANCH  19  22
ATOM     20  C   UNL     1      43.395 -20.119 -34.592  0.00  0.00    +0.231 C 
ATOM     21  O   UNL     1      42.385 -20.484 -33.997  0.00  0.00    -0.274 OA
ATOM     22  N   UNL     1      43.386 -19.745 -35.924  0.00  0.00    -0.314 N 
ATOM     23  H   UNL     1      44.220 -19.413 -36.327  0.00  0.00    +0.000 HD
BRANCH  20  24
ATOM     24  C   UNL     1      44.757 -19.876 -33.906  0.00  0.00    +0.091 C 
BRANCH  24  25
ATOM     25  N   UNL     1      45.481 -21.174 -33.868  0.00  0.00    -0.319 N 
ATOM     26  H   UNL     1      44.923 -21.888 -34.336  0.00  0.00    +0.000 HD
ATOM     27  H   UNL     1      45.639 -21.446 -32.898  0.00  0.00    +0.000 HD
ATOM     28  H   UNL     1      46.378 -21.077 -34.344  0.00  0.00    +0.000 HD
ENDBRANCH  24  25
BRANCH  24  29
ATOM     29  C   UNL     1      45.600 -18.825 -34.643  0.00  0.00    +0.018 C 
BRANCH  29  30
ATOM     30  S   UNL     1      47.069 -19.476 -35.528  0.00  0.00    -0.155 S 
BRANCH  30  31
ATOM     31  C   UNL     1      46.734 -18.883 -37.209  0.00  0.00    +0.012 C 
BRANCH  31  33
ATOM     32  C   UNL     1      46.793 -16.312 -37.099  0.00  0.00    -0.102 C 
ATOM     33  C   UNL     1      47.250 -17.503 -37.513  0.00  0.00    -0.081 C 
ENDBRANCH  31  33
ENDBRANCH  30  31
ENDBRANCH  29  30
ENDBRANCH  24  29
ENDBRANCH  20  24
ENDBRANCH  19  22
ENDBRANCH  18  19
ENDBRANCH   1  18
TORSDOF 11
ENDMDL
MODEL 14
REMARK VINA RESULT:    -5.873     18.470     21.250
REMARK INTER + INTRA:         -11.017
REMARK INTER:                  -9.166
REMARK INTRA:                  -1.850
REMARK UNBOUND:                -1.538
REMARK  Name = cpd147.pdb
REMARK  11 active torsions:
REMARK  status: ('A' for Active; 'I' for Inactive)
REMARK    1  A    between atoms: C_2  and  C_3
REMARK    2  A    between atoms: C_3  and  S_4
REMARK    3  A    between atoms: S_4  and  C_5
REMARK    4  A    between atoms: C_5  and  C_6
REMARK    5  A    between atoms: C_6  and  N_7
REMARK    6  A    between atoms: C_6  and  C_8
REMARK    7  A    between atoms: N_10  and  C_11
REMARK    8  A    between atoms: C_11  and  C_12
REMARK    9  A    between atoms: C_12  and  C_13
REMARK   10  A    between atoms: C_13  and  N_14
REMARK   11  A    between atoms: N_14  and  C_15
REMARK                            x       y       z     vdW  Elec       q    Type
REMARK                         _______ _______ _______ _____ _____    ______ ____
ROOT
ATOM      1  C   UNL     1      47.049 -19.702 -38.021  0.00  0.00    +0.011 C 
ENDROOT
BRANCH   1   2
ATOM      2  N   UNL     1      47.374 -18.861 -39.191  0.00  0.00    -0.343 N 
ATOM      3  H   UNL     1      48.188 -18.310 -39.251  0.00  0.00    +0.000 HD
BRANCH   2   4
ATOM      4  C   UNL     1      46.392 -18.926 -40.227  0.00  0.00    +0.041 A 
ATOM      5  C   UNL     1      45.599 -17.787 -40.466  0.00  0.00    -0.005 A 
ATOM      6  C   UNL     1      44.587 -17.890 -41.422  0.00  0.00    +0.047 A 
ATOM      7  N   UNL     1      44.362 -19.013 -42.143  0.00  0.00    -0.251 NA
ATOM      8  C   UNL     1      45.145 -20.082 -41.947  0.00  0.00    +0.073 A 
ATOM      9  C   UNL     1      44.905 -21.210 -42.721  0.00  0.00    -0.036 A 
ATOM     10  C   UNL     1      45.673 -22.369 -42.600  0.00  0.00    -0.060 A 
ATOM     11  C   UNL     1      46.714 -22.407 -41.686  0.00  0.00    -0.061 A 
ATOM     12  C   UNL     1      46.972 -21.286 -40.898  0.00  0.00    -0.051 A 
ATOM     13  C   UNL     1      46.191 -20.105 -41.003  0.00  0.00    +0.021 A 
ATOM     14  C   UNL     1      43.710 -16.717 -41.780  0.00  0.00    -0.010 C 
ATOM     15  C   UNL     1      43.721 -15.608 -40.734  0.00  0.00    -0.047 C 
ATOM     16  C   UNL     1      45.153 -15.285 -40.336  0.00  0.00    -0.049 C 
ATOM     17  C   UNL     1      45.811 -16.507 -39.694  0.00  0.00    -0.024 C 
ENDBRANCH   2   4
ENDBRANCH   1   2
BRANCH   1  18
ATOM     18  C   UNL     1      46.427 -18.875 -36.897  0.00  0.00    -0.022 C 
BRANCH  18  19
ATOM     19  C   UNL     1      46.261 -19.674 -35.607  0.00  0.00    +0.013 C 
BRANCH  19  22
ATOM     20  C   UNL     1      44.210 -19.831 -34.213  0.00  0.00    +0.231 C 
ATOM     21  O   UNL     1      44.731 -19.268 -33.255  0.00  0.00    -0.274 OA
ATOM     22  N   UNL     1      44.894 -20.101 -35.385  0.00  0.00    -0.314 N 
ATOM     23  H   UNL     1      44.433 -20.602 -36.096  0.00  0.00    +0.000 HD
BRANCH  20  24
ATOM     24  C   UNL     1      42.796 -20.450 -34.183  0.00  0.00    +0.091 C 
BRANCH  24  25
ATOM     25  N   UNL     1      42.366 -20.525 -32.762  0.00  0.00    -0.319 N 
ATOM     26  H   UNL     1      41.649 -21.244 -32.661  0.00  0.00    +0.000 HD
ATOM     27  H   UNL     1      41.986 -19.622 -32.474  0.00  0.00    +0.000 HD
ATOM     28  H   UNL     1      43.167 -20.758 -32.176  0.00  0.00    +0.000 HD
ENDBRANCH  24  25
BRANCH  24  29
ATOM     29  C   UNL     1      41.785 -19.630 -34.996  0.00  0.00    +0.018 C 
BRANCH  29  30
ATOM     30  S   UNL     1      41.232 -20.399 -36.567  0.00  0.00    -0.155 S 
BRANCH  30  31
ATOM     31  C   UNL     1      41.899 -19.216 -37.769  0.00  0.00    +0.012 C 
BRANCH  31  33
ATOM     32  C   UNL     1      43.550 -20.971 -38.674  0.00  0.00    -0.102 C 
ATOM     33  C   UNL     1      43.003 -19.746 -38.641  0.00  0.00    -0.081 C 
ENDBRANCH  31  33
ENDBRANCH  30  31
ENDBRANCH  29  30
ENDBRANCH  24  29
ENDBRANCH  20  24
ENDBRANCH  19  22
ENDBRANCH  18  19
ENDBRANCH   1  18
TORSDOF 11
ENDMDL
MODEL 15
REMARK VINA RESULT:    -5.873     15.727     18.241
REMARK INTER + INTRA:         -11.016
REMARK INTER:                  -9.951
REMARK INTRA:                  -1.065
REMARK UNBOUND:                -1.538
REMARK  Name = cpd147.pdb
REMARK  11 active torsions:
REMARK  status: ('A' for Active; 'I' for Inactive)
REMARK    1  A    between atoms: C_2  and  C_3
REMARK    2  A    between atoms: C_3  and  S_4
REMARK    3  A    between atoms: S_4  and  C_5
REMARK    4  A    between atoms: C_5  and  C_6
REMARK    5  A    between atoms: C_6  and  N_7
REMARK    6  A    between atoms: C_6  and  C_8
REMARK    7  A    between atoms: N_10  and  C_11
REMARK    8  A    between atoms: C_11  and  C_12
REMARK    9  A    between atoms: C_12  and  C_13
REMARK   10  A    between atoms: C_13  and  N_14
REMARK   11  A    between atoms: N_14  and  C_15
REMARK                            x       y       z     vdW  Elec       q    Type
REMARK                         _______ _______ _______ _____ _____    ______ ____
ROOT
ATOM      1  C   UNL     1      41.652 -21.461 -39.271  0.00  0.00    +0.011 C 
ENDROOT
BRANCH   1   2
ATOM      2  N   UNL     1      42.528 -20.310 -39.569  0.00  0.00    -0.343 N 
ATOM      3  H   UNL     1      42.194 -19.450 -39.913  0.00  0.00    +0.000 HD
BRANCH   2   4
ATOM      4  C   UNL     1      43.910 -20.567 -39.309  0.00  0.00    +0.041 A 
ATOM      5  C   UNL     1      44.680 -21.164 -40.326  0.00  0.00    -0.005 A 
ATOM      6  C   UNL     1      46.005 -21.488 -40.032  0.00  0.00    +0.047 A 
ATOM      7  N   UNL     1      46.583 -21.223 -38.836  0.00  0.00    -0.251 NA
ATOM      8  C   UNL     1      45.864 -20.615 -37.884  0.00  0.00    +0.073 A 
ATOM      9  C   UNL     1      46.493 -20.333 -36.679  0.00  0.00    -0.036 A 
ATOM     10  C   UNL     1      45.833 -19.691 -35.629  0.00  0.00    -0.060 A 
ATOM     11  C   UNL     1      44.510 -19.313 -35.785  0.00  0.00    -0.061 A 
ATOM     12  C   UNL     1      43.857 -19.586 -36.987  0.00  0.00    -0.051 A 
ATOM     13  C   UNL     1      44.515 -20.249 -38.057  0.00  0.00    +0.021 A 
ATOM     14  C   UNL     1      46.923 -22.093 -41.063  0.00  0.00    -0.010 C 
ATOM     15  C   UNL     1      46.186 -22.713 -42.244  0.00  0.00    -0.047 C 
ATOM     16  C   UNL     1      45.132 -21.747 -42.762  0.00  0.00    -0.049 C 
ATOM     17  C   UNL     1      44.087 -21.476 -41.679  0.00  0.00    -0.024 C 
ENDBRANCH   2   4
ENDBRANCH   1   2
BRANCH   1  18
ATOM     18  C   UNL     1      40.857 -21.236 -37.987  0.00  0.00    -0.022 C 
BRANCH  18  19
ATOM     19  C   UNL     1      41.312 -22.149 -36.851  0.00  0.00    +0.013 C 
BRANCH  19  22
ATOM     20  C   UNL     1      39.411 -23.079 -35.550  0.00  0.00    +0.231 C 
ATOM     21  O   UNL     1      39.187 -23.963 -36.372  0.00  0.00    -0.274 OA
ATOM     22  N   UNL     1      40.405 -22.132 -35.721  0.00  0.00    -0.314 N 
ATOM     23  H   UNL     1      40.499 -21.419 -35.049  0.00  0.00    +0.000 HD
BRANCH  20  24
ATOM     24  C   UNL     1      38.526 -22.809 -34.314  0.00  0.00    +0.091 C 
BRANCH  24  25
ATOM     25  N   UNL     1      38.151 -24.124 -33.731  0.00  0.00    -0.319 N 
ATOM     26  H   UNL     1      38.970 -24.550 -33.297  0.00  0.00    +0.000 HD
ATOM     27  H   UNL     1      37.800 -24.736 -34.469  0.00  0.00    +0.000 HD
ATOM     28  H   UNL     1      37.424 -23.989 -33.029  0.00  0.00    +0.000 HD
ENDBRANCH  24  25
BRANCH  24  29
ATOM     29  C   UNL     1      39.245 -21.953 -33.260  0.00  0.00    +0.018 C 
BRANCH  29  30
ATOM     30  S   UNL     1      38.443 -20.350 -32.873  0.00  0.00    -0.155 S 
BRANCH  30  31
ATOM     31  C   UNL     1      39.731 -19.195 -33.418  0.00  0.00    +0.012 C 
BRANCH  31  33
ATOM     32  C   UNL     1      42.194 -19.715 -32.884  0.00  0.00    -0.102 C 
ATOM     33  C   UNL     1      40.989 -19.204 -32.593  0.00  0.00    -0.081 C 
ENDBRANCH  31  33
ENDBRANCH  30  31
ENDBRANCH  29  30
ENDBRANCH  24  29
ENDBRANCH  20  24
ENDBRANCH  19  22
ENDBRANCH  18  19
ENDBRANCH   1  18
TORSDOF 11
ENDMDL
MODEL 16
REMARK VINA RESULT:    -5.857      1.825      4.204
REMARK INTER + INTRA:         -10.991
REMARK INTER:                  -9.614
REMARK INTRA:                  -1.377
REMARK UNBOUND:                -1.538
REMARK  Name = cpd147.pdb
REMARK  11 active torsions:
REMARK  status: ('A' for Active; 'I' for Inactive)
REMARK    1  A    between atoms: C_2  and  C_3
REMARK    2  A    between atoms: C_3  and  S_4
REMARK    3  A    between atoms: S_4  and  C_5
REMARK    4  A    between atoms: C_5  and  C_6
REMARK    5  A    between atoms: C_6  and  N_7
REMARK    6  A    between atoms: C_6  and  C_8
REMARK    7  A    between atoms: N_10  and  C_11
REMARK    8  A    between atoms: C_11  and  C_12
REMARK    9  A    between atoms: C_12  and  C_13
REMARK   10  A    between atoms: C_13  and  N_14
REMARK   11  A    between atoms: N_14  and  C_15
REMARK                            x       y       z     vdW  Elec       q    Type
REMARK                         _______ _______ _______ _____ _____    ______ ____
ROOT
ATOM      1  C   UNL     1      36.309 -33.679 -30.840  0.00  0.00    +0.011 C 
ENDROOT
BRANCH   1   2
ATOM      2  N   UNL     1      36.543 -34.889 -31.654  0.00  0.00    -0.343 N 
ATOM      3  H   UNL     1      36.160 -35.019 -32.552  0.00  0.00    +0.000 HD
BRANCH   2   4
ATOM      4  C   UNL     1      37.380 -35.853 -31.011  0.00  0.00    +0.041 A 
ATOM      5  C   UNL     1      36.765 -36.894 -30.289  0.00  0.00    -0.005 A 
ATOM      6  C   UNL     1      37.592 -37.779 -29.595  0.00  0.00    +0.047 A 
ATOM      7  N   UNL     1      38.943 -37.700 -29.616  0.00  0.00    -0.251 NA
ATOM      8  C   UNL     1      39.529 -36.737 -30.340  0.00  0.00    +0.073 A 
ATOM      9  C   UNL     1      40.917 -36.699 -30.362  0.00  0.00    -0.036 A 
ATOM     10  C   UNL     1      41.621 -35.742 -31.096  0.00  0.00    -0.060 A 
ATOM     11  C   UNL     1      40.924 -34.798 -31.832  0.00  0.00    -0.061 A 
ATOM     12  C   UNL     1      39.530 -34.816 -31.823  0.00  0.00    -0.051 A 
ATOM     13  C   UNL     1      38.803 -35.777 -31.072  0.00  0.00    +0.021 A 
ATOM     14  C   UNL     1      37.034 -38.949 -28.825  0.00  0.00    -0.010 C 
ATOM     15  C   UNL     1      35.550 -38.816 -28.506  0.00  0.00    -0.047 C 
ATOM     16  C   UNL     1      34.787 -38.403 -29.755  0.00  0.00    -0.049 C 
ATOM     17  C   UNL     1      35.263 -37.032 -30.236  0.00  0.00    -0.024 C 
ENDBRANCH   2   4
ENDBRANCH   1   2
BRANCH   1  18
ATOM     18  C   UNL     1      35.025 -32.967 -31.259  0.00  0.00    -0.022 C 
BRANCH  18  19
ATOM     19  C   UNL     1      34.216 -32.468 -30.063  0.00  0.00    +0.013 C 
BRANCH  19  22
ATOM     20  C   UNL     1      31.874 -33.241 -30.362  0.00  0.00    +0.231 C 
ATOM     21  O   UNL     1      31.616 -32.372 -31.189  0.00  0.00    -0.274 OA
ATOM     22  N   UNL     1      33.105 -33.339 -29.738  0.00  0.00    -0.314 N 
ATOM     23  H   UNL     1      33.230 -34.028 -29.045  0.00  0.00    +0.000 HD
BRANCH  20  24
ATOM     24  C   UNL     1      30.830 -34.226 -29.794  0.00  0.00    +0.091 C 
BRANCH  24  25
ATOM     25  N   UNL     1      29.636 -33.437 -29.391  0.00  0.00    -0.319 N 
ATOM     26  H   UNL     1      29.834 -32.942 -28.522  0.00  0.00    +0.000 HD
ATOM     27  H   UNL     1      28.844 -34.065 -29.253  0.00  0.00    +0.000 HD
ATOM     28  H   UNL     1      29.411 -32.763 -30.123  0.00  0.00    +0.000 HD
ENDBRANCH  24  25
BRANCH  24  29
ATOM     29  C   UNL     1      30.429 -35.301 -30.814  0.00  0.00    +0.018 C 
BRANCH  29  30
ATOM     30  S   UNL     1      31.190 -36.951 -30.557  0.00  0.00    -0.155 S 
BRANCH  30  31
ATOM     31  C   UNL     1      32.002 -37.195 -32.160  0.00  0.00    +0.012 C 
BRANCH  31  33
ATOM     32  C   UNL     1      33.298 -35.349 -33.399  0.00  0.00    -0.102 C 
ATOM     33  C   UNL     1      32.172 -35.950 -32.986  0.00  0.00    -0.081 C 
ENDBRANCH  31  33
ENDBRANCH  30  31
ENDBRANCH  29  30
ENDBRANCH  24  29
ENDBRANCH  20  24
ENDBRANCH  19  22
ENDBRANCH  18  19
ENDBRANCH   1  18
TORSDOF 11
ENDMDL
MODEL 17
REMARK VINA RESULT:    -5.782     16.441     19.411
REMARK INTER + INTRA:         -10.869
REMARK INTER:                  -9.662
REMARK INTRA:                  -1.207
REMARK UNBOUND:                -1.538
REMARK  Name = cpd147.pdb
REMARK  11 active torsions:
REMARK  status: ('A' for Active; 'I' for Inactive)
REMARK    1  A    between atoms: C_2  and  C_3
REMARK    2  A    between atoms: C_3  and  S_4
REMARK    3  A    between atoms: S_4  and  C_5
REMARK    4  A    between atoms: C_5  and  C_6
REMARK    5  A    between atoms: C_6  and  N_7
REMARK    6  A    between atoms: C_6  and  C_8
REMARK    7  A    between atoms: N_10  and  C_11
REMARK    8  A    between atoms: C_11  and  C_12
REMARK    9  A    between atoms: C_12  and  C_13
REMARK   10  A    between atoms: C_13  and  N_14
REMARK   11  A    between atoms: N_14  and  C_15
REMARK                            x       y       z     vdW  Elec       q    Type
REMARK                         _______ _______ _______ _____ _____    ______ ____
ROOT
ATOM      1  C   UNL     1      44.264 -19.990 -35.009  0.00  0.00    +0.011 C 
ENDROOT
BRANCH   1   2
ATOM      2  N   UNL     1      42.855 -19.609 -35.239  0.00  0.00    -0.343 N 
ATOM      3  H   UNL     1      42.511 -18.698 -35.093  0.00  0.00    +0.000 HD
BRANCH   2   4
ATOM      4  C   UNL     1      42.041 -20.692 -35.694  0.00  0.00    +0.041 A 
ATOM      5  C   UNL     1      41.318 -21.430 -34.738  0.00  0.00    -0.005 A 
ATOM      6  C   UNL     1      40.595 -22.537 -35.184  0.00  0.00    +0.047 A 
ATOM      7  N   UNL     1      40.533 -22.905 -36.485  0.00  0.00    -0.251 NA
ATOM      8  C   UNL     1      41.185 -22.177 -37.401  0.00  0.00    +0.073 A 
ATOM      9  C   UNL     1      41.080 -22.564 -38.730  0.00  0.00    -0.036 A 
ATOM     10  C   UNL     1      41.712 -21.864 -39.759  0.00  0.00    -0.060 A 
ATOM     11  C   UNL     1      42.466 -20.742 -39.458  0.00  0.00    -0.061 A 
ATOM     12  C   UNL     1      42.586 -20.334 -38.130  0.00  0.00    -0.051 A 
ATOM     13  C   UNL     1      41.958 -21.045 -37.074  0.00  0.00    +0.021 A 
ATOM     14  C   UNL     1      39.757 -23.369 -34.247  0.00  0.00    -0.010 C 
ATOM     15  C   UNL     1      40.120 -23.183 -32.778  0.00  0.00    -0.047 C 
ATOM     16  C   UNL     1      40.226 -21.701 -32.455  0.00  0.00    -0.049 C 
ATOM     17  C   UNL     1      41.348 -21.061 -33.275  0.00  0.00    -0.024 C 
ENDBRANCH   2   4
ENDBRANCH   1   2
BRANCH   1  18
ATOM     18  C   UNL     1      45.129 -18.767 -34.713  0.00  0.00    -0.022 C 
BRANCH  18  19
ATOM     19  C   UNL     1      46.529 -18.882 -35.313  0.00  0.00    +0.013 C 
BRANCH  19  22
ATOM     20  C   UNL     1      46.277 -18.728 -37.780  0.00  0.00    +0.231 C 
ATOM     21  O   UNL     1      45.986 -17.536 -37.748  0.00  0.00    -0.274 OA
ATOM     22  N   UNL     1      46.523 -19.469 -36.638  0.00  0.00    -0.314 N 
ATOM     23  H   UNL     1      46.701 -20.433 -36.730  0.00  0.00    +0.000 HD
BRANCH  20  24
ATOM     24  C   UNL     1      46.251 -19.586 -39.063  0.00  0.00    +0.091 C 
BRANCH  24  25
ATOM     25  N   UNL     1      47.232 -19.005 -40.016  0.00  0.00    -0.319 N 
ATOM     26  H   UNL     1      47.197 -19.520 -40.896  0.00  0.00    +0.000 HD
ATOM     27  H   UNL     1      48.171 -19.072 -39.620  0.00  0.00    +0.000 HD
ATOM     28  H   UNL     1      47.004 -18.026 -40.185  0.00  0.00    +0.000 HD
ENDBRANCH  24  25
BRANCH  24  29
ATOM     29  C   UNL     1      46.594 -21.057 -38.785  0.00  0.00    +0.018 C 
BRANCH  29  30
ATOM     30  S   UNL     1      47.004 -22.060 -40.266  0.00  0.00    -0.155 S 
BRANCH  30  31
ATOM     31  C   UNL     1      45.471 -21.886 -41.219  0.00  0.00    +0.012 C 
BRANCH  31  33
ATOM     32  C   UNL     1      44.543 -20.208 -42.935  0.00  0.00    -0.102 C 
ATOM     33  C   UNL     1      45.533 -20.901 -42.354  0.00  0.00    -0.081 C 
ENDBRANCH  31  33
ENDBRANCH  30  31
ENDBRANCH  29  30
ENDBRANCH  24  29
ENDBRANCH  20  24
ENDBRANCH  19  22
ENDBRANCH  18  19
ENDBRANCH   1  18
TORSDOF 11
ENDMDL
MODEL 18
REMARK VINA RESULT:    -5.762     15.545     18.651
REMARK INTER + INTRA:         -10.837
REMARK INTER:                  -9.560
REMARK INTRA:                  -1.278
REMARK UNBOUND:                -1.538
REMARK  Name = cpd147.pdb
REMARK  11 active torsions:
REMARK  status: ('A' for Active; 'I' for Inactive)
REMARK    1  A    between atoms: C_2  and  C_3
REMARK    2  A    between atoms: C_3  and  S_4
REMARK    3  A    between atoms: S_4  and  C_5
REMARK    4  A    between atoms: C_5  and  C_6
REMARK    5  A    between atoms: C_6  and  N_7
REMARK    6  A    between atoms: C_6  and  C_8
REMARK    7  A    between atoms: N_10  and  C_11
REMARK    8  A    between atoms: C_11  and  C_12
REMARK    9  A    between atoms: C_12  and  C_13
REMARK   10  A    between atoms: C_13  and  N_14
REMARK   11  A    between atoms: N_14  and  C_15
REMARK                            x       y       z     vdW  Elec       q    Type
REMARK                         _______ _______ _______ _____ _____    ______ ____
ROOT
ATOM      1  C   UNL     1      41.500 -19.902 -33.237  0.00  0.00    +0.011 C 
ENDROOT
BRANCH   1   2
ATOM      2  N   UNL     1      42.148 -21.115 -33.778  0.00  0.00    -0.343 N 
ATOM      3  H   UNL     1      43.006 -21.463 -33.445  0.00  0.00    +0.000 HD
BRANCH   2   4
ATOM      4  C   UNL     1      41.405 -21.733 -34.831  0.00  0.00    +0.041 A 
ATOM      5  C   UNL     1      40.259 -22.477 -34.492  0.00  0.00    -0.005 A 
ATOM      6  C   UNL     1      39.591 -23.145 -35.518  0.00  0.00    +0.047 A 
ATOM      7  N   UNL     1      39.974 -23.080 -36.815  0.00  0.00    -0.251 NA
ATOM      8  C   UNL     1      41.038 -22.336 -37.144  0.00  0.00    +0.073 A 
ATOM      9  C   UNL     1      41.389 -22.268 -38.486  0.00  0.00    -0.036 A 
ATOM     10  C   UNL     1      42.474 -21.510 -38.932  0.00  0.00    -0.060 A 
ATOM     11  C   UNL     1      43.228 -20.795 -38.017  0.00  0.00    -0.061 A 
ATOM     12  C   UNL     1      42.894 -20.849 -36.664  0.00  0.00    -0.051 A 
ATOM     13  C   UNL     1      41.801 -21.625 -36.197  0.00  0.00    +0.021 A 
ATOM     14  C   UNL     1      38.332 -23.936 -35.265  0.00  0.00    -0.010 C 
ATOM     15  C   UNL     1      38.129 -24.303 -33.800  0.00  0.00    -0.047 C 
ATOM     16  C   UNL     1      38.345 -23.078 -32.924  0.00  0.00    -0.049 C 
ATOM     17  C   UNL     1      39.785 -22.579 -33.062  0.00  0.00    -0.024 C 
ENDBRANCH   2   4
ENDBRANCH   1   2
BRANCH   1  18
ATOM     18  C   UNL     1      42.186 -18.634 -33.741  0.00  0.00    -0.022 C 
BRANCH  18  19
ATOM     19  C   UNL     1      43.522 -18.377 -33.045  0.00  0.00    +0.013 C 
BRANCH  19  22
ATOM     20  C   UNL     1      45.351 -19.561 -34.238  0.00  0.00    +0.231 C 
ATOM     21  O   UNL     1      45.120 -20.630 -33.681  0.00  0.00    -0.274 OA
ATOM     22  N   UNL     1      44.644 -18.405 -33.962  0.00  0.00    -0.314 N 
ATOM     23  H   UNL     1      44.913 -17.568 -34.406  0.00  0.00    +0.000 HD
BRANCH  20  24
ATOM     24  C   UNL     1      46.547 -19.325 -35.185  0.00  0.00    +0.091 C 
BRANCH  24  25
ATOM     25  N   UNL     1      47.590 -20.331 -34.856  0.00  0.00    -0.319 N 
ATOM     26  H   UNL     1      47.144 -21.208 -34.589  0.00  0.00    +0.000 HD
ATOM     27  H   UNL     1      48.159 -19.989 -34.080  0.00  0.00    +0.000 HD
ATOM     28  H   UNL     1      48.184 -20.484 -35.670  0.00  0.00    +0.000 HD
ENDBRANCH  24  25
BRANCH  24  29
ATOM     29  C   UNL     1      46.150 -19.444 -36.664  0.00  0.00    +0.018 C 
BRANCH  29  30
ATOM     30  S   UNL     1      47.542 -19.392 -37.857  0.00  0.00    -0.155 S 
BRANCH  30  31
ATOM     31  C   UNL     1      46.639 -19.504 -39.426  0.00  0.00    +0.012 C 
BRANCH  31  33
ATOM     32  C   UNL     1      47.156 -21.994 -39.818  0.00  0.00    -0.102 C 
ATOM     33  C   UNL     1      46.384 -20.902 -39.918  0.00  0.00    -0.081 C 
ENDBRANCH  31  33
ENDBRANCH  30  31
ENDBRANCH  29  30
ENDBRANCH  24  29
ENDBRANCH  20  24
ENDBRANCH  19  22
ENDBRANCH  18  19
ENDBRANCH   1  18
TORSDOF 11
ENDMDL
MODEL 19
REMARK VINA RESULT:    -5.656     18.054     20.697
REMARK INTER + INTRA:         -10.666
REMARK INTER:                 -10.003
REMARK INTRA:                  -0.664
REMARK UNBOUND:                -1.538
REMARK  Name = cpd147.pdb
REMARK  11 active torsions:
REMARK  status: ('A' for Active; 'I' for Inactive)
REMARK    1  A    between atoms: C_2  and  C_3
REMARK    2  A    between atoms: C_3  and  S_4
REMARK    3  A    between atoms: S_4  and  C_5
REMARK    4  A    between atoms: C_5  and  C_6
REMARK    5  A    between atoms: C_6  and  N_7
REMARK    6  A    between atoms: C_6  and  C_8
REMARK    7  A    between atoms: N_10  and  C_11
REMARK    8  A    between atoms: C_11  and  C_12
REMARK    9  A    between atoms: C_12  and  C_13
REMARK   10  A    between atoms: C_13  and  N_14
REMARK   11  A    between atoms: N_14  and  C_15
REMARK                            x       y       z     vdW  Elec       q    Type
REMARK                         _______ _______ _______ _____ _____    ______ ____
ROOT
ATOM      1  C   UNL     1      46.733 -19.280 -37.514  0.00  0.00    +0.011 C 
ENDROOT
BRANCH   1   2
ATOM      2  N   UNL     1      47.308 -19.027 -38.851  0.00  0.00    -0.343 N 
ATOM      3  H   UNL     1      48.259 -18.819 -39.000  0.00  0.00    +0.000 HD
BRANCH   2   4
ATOM      4  C   UNL     1      46.349 -19.113 -39.907  0.00  0.00    +0.041 A 
ATOM      5  C   UNL     1      46.251 -20.322 -40.622  0.00  0.00    -0.005 A 
ATOM      6  C   UNL     1      45.372 -20.368 -41.705  0.00  0.00    +0.047 A 
ATOM      7  N   UNL     1      44.594 -19.322 -42.069  0.00  0.00    -0.251 NA
ATOM      8  C   UNL     1      44.653 -18.186 -41.362  0.00  0.00    +0.073 A 
ATOM      9  C   UNL     1      43.823 -17.141 -41.745  0.00  0.00    -0.036 A 
ATOM     10  C   UNL     1      43.803 -15.922 -41.065  0.00  0.00    -0.060 A 
ATOM     11  C   UNL     1      44.629 -15.739 -39.968  0.00  0.00    -0.061 A 
ATOM     12  C   UNL     1      45.471 -16.774 -39.565  0.00  0.00    -0.051 A 
ATOM     13  C   UNL     1      45.509 -18.014 -40.256  0.00  0.00    +0.021 A 
ATOM     14  C   UNL     1      45.166 -21.626 -42.509  0.00  0.00    -0.010 C 
ATOM     15  C   UNL     1      46.283 -22.649 -42.336  0.00  0.00    -0.047 C 
ATOM     16  C   UNL     1      46.591 -22.834 -40.858  0.00  0.00    -0.049 C 
ATOM     17  C   UNL     1      47.092 -21.521 -40.254  0.00  0.00    -0.024 C 
ENDBRANCH   2   4
ENDBRANCH   1   2
BRANCH   1  18
ATOM     18  C   UNL     1      47.160 -18.209 -36.513  0.00  0.00    -0.022 C 
BRANCH  18  19
ATOM     19  C   UNL     1      46.607 -18.464 -35.113  0.00  0.00    +0.013 C 
BRANCH  19  22
ATOM     20  C   UNL     1      44.447 -18.971 -33.994  0.00  0.00    +0.231 C 
ATOM     21  O   UNL     1      44.869 -18.668 -32.882  0.00  0.00    -0.274 OA
ATOM     22  N   UNL     1      45.236 -18.933 -35.130  0.00  0.00    -0.314 N 
ATOM     23  H   UNL     1      44.850 -19.238 -35.984  0.00  0.00    +0.000 HD
BRANCH  20  24
ATOM     24  C   UNL     1      43.051 -19.578 -34.249  0.00  0.00    +0.091 C 
BRANCH  24  25
ATOM     25  N   UNL     1      43.246 -20.931 -34.833  0.00  0.00    -0.319 N 
ATOM     26  H   UNL     1      42.341 -21.321 -35.098  0.00  0.00    +0.000 HD
ATOM     27  H   UNL     1      43.689 -21.538 -34.142  0.00  0.00    +0.000 HD
ATOM     28  H   UNL     1      43.843 -20.863 -35.657  0.00  0.00    +0.000 HD
ENDBRANCH  24  25
BRANCH  24  29
ATOM     29  C   UNL     1      42.215 -19.675 -32.964  0.00  0.00    +0.018 C 
BRANCH  29  30
ATOM     30  S   UNL     1      41.307 -21.253 -32.736  0.00  0.00    -0.155 S 
BRANCH  30  31
ATOM     31  C   UNL     1      39.743 -20.857 -33.565  0.00  0.00    +0.012 C 
BRANCH  31  33
ATOM     32  C   UNL     1      39.109 -22.678 -35.270  0.00  0.00    -0.102 C 
ATOM     33  C   UNL     1      38.984 -22.043 -34.096  0.00  0.00    -0.081 C 
ENDBRANCH  31  33
ENDBRANCH  30  31
ENDBRANCH  29  30
ENDBRANCH  24  29
ENDBRANCH  20  24
ENDBRANCH  19  22
ENDBRANCH  18  19
ENDBRANCH   1  18
TORSDOF 11
ENDMDL
MODEL 20
REMARK VINA RESULT:    -5.554     18.256     21.103
REMARK INTER + INTRA:         -10.501
REMARK INTER:                  -9.109
REMARK INTRA:                  -1.392
REMARK UNBOUND:                -1.538
REMARK  Name = cpd147.pdb
REMARK  11 active torsions:
REMARK  status: ('A' for Active; 'I' for Inactive)
REMARK    1  A    between atoms: C_2  and  C_3
REMARK    2  A    between atoms: C_3  and  S_4
REMARK    3  A    between atoms: S_4  and  C_5
REMARK    4  A    between atoms: C_5  and  C_6
REMARK    5  A    between atoms: C_6  and  N_7
REMARK    6  A    between atoms: C_6  and  C_8
REMARK    7  A    between atoms: N_10  and  C_11
REMARK    8  A    between atoms: C_11  and  C_12
REMARK    9  A    between atoms: C_12  and  C_13
REMARK   10  A    between atoms: C_13  and  N_14
REMARK   11  A    between atoms: N_14  and  C_15
REMARK                            x       y       z     vdW  Elec       q    Type
REMARK                         _______ _______ _______ _____ _____    ______ ____
ROOT
ATOM      1  C   UNL     1      43.306 -20.883 -39.005  0.00  0.00    +0.011 C 
ENDROOT
BRANCH   1   2
ATOM      2  N   UNL     1      43.383 -20.131 -40.274  0.00  0.00    -0.343 N 
ATOM      3  H   UNL     1      42.599 -19.941 -40.838  0.00  0.00    +0.000 HD
BRANCH   2   4
ATOM      4  C   UNL     1      44.708 -19.706 -40.602  0.00  0.00    +0.041 A 
ATOM      5  C   UNL     1      45.015 -18.336 -40.494  0.00  0.00    -0.005 A 
ATOM      6  C   UNL     1      46.285 -17.922 -40.897  0.00  0.00    +0.047 A 
ATOM      7  N   UNL     1      47.233 -18.776 -41.350  0.00  0.00    -0.251 NA
ATOM      8  C   UNL     1      46.956 -20.085 -41.411  0.00  0.00    +0.073 A 
ATOM      9  C   UNL     1      47.958 -20.938 -41.854  0.00  0.00    -0.036 A 
ATOM     10  C   UNL     1      47.771 -22.319 -41.942  0.00  0.00    -0.060 A 
ATOM     11  C   UNL     1      46.554 -22.868 -41.573  0.00  0.00    -0.061 A 
ATOM     12  C   UNL     1      45.533 -22.031 -41.126  0.00  0.00    -0.051 A 
ATOM     13  C   UNL     1      45.707 -20.624 -41.043  0.00  0.00    +0.021 A 
ATOM     14  C   UNL     1      46.725 -16.484 -40.784  0.00  0.00    -0.010 C 
ATOM     15  C   UNL     1      45.567 -15.503 -40.635  0.00  0.00    -0.047 C 
ATOM     16  C   UNL     1      44.602 -16.001 -39.570  0.00  0.00    -0.049 C 
ATOM     17  C   UNL     1      43.997 -17.341 -39.990  0.00  0.00    -0.024 C 
ENDBRANCH   2   4
ENDBRANCH   1   2
BRANCH   1  18
ATOM     18  C   UNL     1      42.147 -21.878 -39.018  0.00  0.00    -0.022 C 
BRANCH  18  19
ATOM     19  C   UNL     1      41.618 -22.177 -37.617  0.00  0.00    +0.013 C 
BRANCH  19  22
ATOM     20  C   UNL     1      41.705 -20.770 -35.571  0.00  0.00    +0.231 C 
ATOM     21  O   UNL     1      40.484 -20.651 -35.513  0.00  0.00    -0.274 OA
ATOM     22  N   UNL     1      42.342 -21.466 -36.582  0.00  0.00    -0.314 N 
ATOM     23  H   UNL     1      43.327 -21.480 -36.598  0.00  0.00    +0.000 HD
BRANCH  20  24
ATOM     24  C   UNL     1      42.686 -20.035 -34.632  0.00  0.00    +0.091 C 
BRANCH  24  25
ATOM     25  N   UNL     1      43.255 -21.041 -33.697  0.00  0.00    -0.319 N 
ATOM     26  H   UNL     1      43.458 -21.901 -34.205  0.00  0.00    +0.000 HD
ATOM     27  H   UNL     1      42.581 -21.234 -32.955  0.00  0.00    +0.000 HD
ATOM     28  H   UNL     1      44.115 -20.676 -33.287  0.00  0.00    +0.000 HD
ENDBRANCH  24  25
BRANCH  24  29
ATOM     29  C   UNL     1      43.816 -19.337 -35.403  0.00  0.00    +0.018 C 
BRANCH  29  30
ATOM     30  S   UNL     1      45.510 -19.926 -35.018  0.00  0.00    -0.155 S 
BRANCH  30  31
ATOM     31  C   UNL     1      46.424 -18.359 -35.063  0.00  0.00    +0.012 C 
BRANCH  31  33
ATOM     32  C   UNL     1      47.206 -16.964 -37.079  0.00  0.00    -0.102 C 
ATOM     33  C   UNL     1      46.270 -17.566 -36.331  0.00  0.00    -0.081 C 
ENDBRANCH  31  33
ENDBRANCH  30  31
ENDBRANCH  29  30
ENDBRANCH  24  29
ENDBRANCH  20  24
ENDBRANCH  19  22
ENDBRANCH  18  19
ENDBRANCH   1  18
TORSDOF 11
ENDMDL
