REMARK  Name = cpd23.pdb
REMARK  13 active torsions:
REMARK  status: ('A' for Active; 'I' for Inactive)
REMARK    1  A    between atoms: C_1  and  C_2
REMARK    2  A    between atoms: C_6  and  N_7
REMARK    3  A    between atoms: N_7  and  C_8
REMARK    4  A    between atoms: C_13  and  C_14
REMARK    5  A    between atoms: N_16  and  C_17
REMARK    6  A    between atoms: C_17  and  C_18
REMARK    7  A    between atoms: C_18  and  C_19
REMARK    8  A    between atoms: C_19  and  C_20
REMARK    9  A    between atoms: C_20  and  C_21
REMARK   10  A    between atoms: C_21  and  C_22
REMARK   11  A    between atoms: C_22  and  N_23
REMARK   12  A    between atoms: N_23  and  C_24
REMARK   13  A    between atoms: C_38  and  C_39
REMARK                            x       y       z     vdW  Elec       q    Type
REMARK                         _______ _______ _______ _____ _____    ______ ____
ROOT
ATOM      1  C   UNL A   1      -4.404  -2.584  -0.054  0.00  0.00    +0.012 C 
ENDROOT
BRANCH   1   4
ATOM      2  C   UNL A   1      -1.968  -2.775  -0.281  0.00  0.00    +0.246 C 
ATOM      3  O   UNL A   1      -1.886  -1.719  -0.903  0.00  0.00    -0.270 OA
ATOM      4  N   UNL A   1      -3.168  -3.315   0.144  0.00  0.00    -0.311 N 
ATOM      5  H   UNL A   1      -3.183  -4.197   0.581  0.00  0.00    +0.000 HD
BRANCH   2  11
ATOM      6  C   UNL A   1       0.478  -2.821   0.319  0.00  0.00    +0.044 A 
ATOM      7  C   UNL A   1       1.597  -3.560   0.739  0.00  0.00    -0.040 A 
ATOM      8  C   UNL A   1       1.548  -4.952   0.852  0.00  0.00    -0.060 A 
ATOM      9  C   UNL A   1       0.369  -5.633   0.568  0.00  0.00    -0.061 A 
ATOM     10  C   UNL A   1      -0.771  -4.921   0.197  0.00  0.00    -0.048 A 
ATOM     11  C   UNL A   1      -0.732  -3.519   0.099  0.00  0.00    +0.058 A 
BRANCH   6  12
ATOM     12  N   UNL A   1       0.532  -1.399   0.275  0.00  0.00    -0.314 N 
ATOM     13  H   UNL A   1      -0.302  -0.925   0.494  0.00  0.00    +0.000 HD
BRANCH  12  19
ATOM     14  C   UNL A   1       2.953   2.960   0.659  0.00  0.00    -0.039 C 
ATOM     15  C   UNL A   1       2.795   1.574   0.093  0.00  0.00    -0.046 A 
ATOM     16  C   UNL A   1       3.709   1.135  -0.877  0.00  0.00    -0.058 A 
ATOM     17  C   UNL A   1       3.586  -0.128  -1.449  0.00  0.00    -0.060 A 
ATOM     18  C   UNL A   1       2.552  -0.971  -1.052  0.00  0.00    -0.040 A 
ATOM     19  C   UNL A   1       1.651  -0.584  -0.049  0.00  0.00    +0.035 A 
ATOM     20  C   UNL A   1       1.763   0.705   0.523  0.00  0.00    -0.026 A 
ATOM     21  C   UNL A   1       0.752   1.159   1.548  0.00  0.00    -0.038 C 
ENDBRANCH  12  19
ENDBRANCH   6  12
ENDBRANCH   2  11
ENDBRANCH   1   4
BRANCH   1  22
ATOM     22  C   UNL A   1      -5.621  -3.482   0.152  0.00  0.00    -0.037 C 
BRANCH  22  23
ATOM     23  C   UNL A   1      -6.953  -2.740   0.000  0.00  0.00    -0.052 C 
BRANCH  23  24
ATOM     24  C   UNL A   1      -7.249  -2.333  -1.446  0.00  0.00    -0.052 C 
BRANCH  24  25
ATOM     25  C   UNL A   1      -8.522  -1.496  -1.616  0.00  0.00    -0.037 C 
BRANCH  25  26
ATOM     26  C   UNL A   1      -9.832  -2.274  -1.466  0.00  0.00    +0.009 C 
BRANCH  26  27
ATOM     27  N   UNL A   1     -10.150  -2.484  -0.047  0.00  0.00    -0.343 N 
ATOM     28  H   UNL A   1      -9.567  -2.212   0.699  0.00  0.00    +0.000 HD
BRANCH  27  29
ATOM     29  C   UNL A   1     -11.413  -3.134   0.113  0.00  0.00    +0.041 A 
ATOM     30  C   UNL A   1     -11.444  -4.541   0.190  0.00  0.00    -0.005 A 
ATOM     31  C   UNL A   1     -12.690  -5.155   0.316  0.00  0.00    +0.047 A 
ATOM     32  N   UNL A   1     -13.858  -4.470   0.314  0.00  0.00    -0.251 NA
ATOM     33  C   UNL A   1     -13.829  -3.135   0.217  0.00  0.00    +0.073 A 
ATOM     34  C   UNL A   1     -15.044  -2.461   0.219  0.00  0.00    -0.036 A 
ATOM     35  C   UNL A   1     -15.120  -1.071   0.119  0.00  0.00    -0.060 A 
ATOM     36  C   UNL A   1     -13.955  -0.328   0.016  0.00  0.00    -0.061 A 
ATOM     37  C   UNL A   1     -12.723  -0.983   0.012  0.00  0.00    -0.051 A 
ATOM     38  C   UNL A   1     -12.633  -2.397   0.112  0.00  0.00    +0.021 A 
ATOM     39  C   UNL A   1     -12.829  -6.653   0.411  0.00  0.00    -0.010 C 
ATOM     40  C   UNL A   1     -11.555  -7.344   0.881  0.00  0.00    -0.047 C 
ATOM     41  C   UNL A   1     -10.372  -6.852   0.062  0.00  0.00    -0.049 C 
ATOM     42  C   UNL A   1     -10.169  -5.350   0.257  0.00  0.00    -0.024 C 
ENDBRANCH  27  29
ENDBRANCH  26  27
ENDBRANCH  25  26
ENDBRANCH  24  25
ENDBRANCH  23  24
ENDBRANCH  22  23
ENDBRANCH   1  22
TORSDOF 11
