MODEL 1
REMARK VINA RESULT:    -7.875      0.000      0.000
REMARK INTER + INTRA:         -16.089
REMARK INTER:                 -12.939
REMARK INTRA:                  -3.150
REMARK UNBOUND:                -3.150
REMARK  Name = cpd23.pdb
REMARK  13 active torsions:
REMARK  status: ('A' for Active; 'I' for Inactive)
REMARK    1  A    between atoms: C_1  and  C_2
REMARK    2  A    between atoms: C_6  and  N_7
REMARK    3  A    between atoms: N_7  and  C_8
REMARK    4  A    between atoms: C_13  and  C_14
REMARK    5  A    between atoms: N_16  and  C_17
REMARK    6  A    between atoms: C_17  and  C_18
REMARK    7  A    between atoms: C_18  and  C_19
REMARK    8  A    between atoms: C_19  and  C_20
REMARK    9  A    between atoms: C_20  and  C_21
REMARK   10  A    between atoms: C_21  and  C_22
REMARK   11  A    between atoms: C_22  and  N_23
REMARK   12  A    between atoms: N_23  and  C_24
REMARK   13  A    between atoms: C_38  and  C_39
REMARK                            x       y       z     vdW  Elec       q    Type
REMARK                         _______ _______ _______ _____ _____    ______ ____
ROOT
ATOM      1  C   UNL A   1      39.778 -19.796 -37.076  0.00  0.00    +0.012 C 
ENDROOT
BRANCH   1   4
ATOM      2  C   UNL A   1      41.948 -20.712 -36.387  0.00  0.00    +0.246 C 
ATOM      3  O   UNL A   1      41.568 -21.871 -36.528  0.00  0.00    -0.270 OA
ATOM      4  N   UNL A   1      41.131 -19.615 -36.587  0.00  0.00    -0.311 N 
ATOM      5  H   UNL A   1      41.467 -18.709 -36.396  0.00  0.00    +0.000 HD
BRANCH   2  11
ATOM      6  C   UNL A   1      43.811 -20.576 -34.697  0.00  0.00    +0.044 A 
ATOM      7  C   UNL A   1      45.173 -20.359 -34.427  0.00  0.00    -0.040 A 
ATOM      8  C   UNL A   1      46.051 -19.923 -35.423  0.00  0.00    -0.060 A 
ATOM      9  C   UNL A   1      45.588 -19.717 -36.718  0.00  0.00    -0.061 A 
ATOM     10  C   UNL A   1      44.253 -19.972 -37.026  0.00  0.00    -0.048 A 
ATOM     11  C   UNL A   1      43.369 -20.427 -36.032  0.00  0.00    +0.058 A 
BRANCH   6  12
ATOM     12  N   UNL A   1      42.950 -21.083 -33.683  0.00  0.00    -0.314 N 
ATOM     13  H   UNL A   1      43.173 -21.973 -33.327  0.00  0.00    +0.000 HD
BRANCH  12  19
ATOM     14  C   UNL A   1      38.109 -21.246 -32.440  0.00  0.00    -0.039 C 
ATOM     15  C   UNL A   1      39.420 -20.520 -32.579  0.00  0.00    -0.046 A 
ATOM     16  C   UNL A   1      39.469 -19.153 -32.270  0.00  0.00    -0.058 A 
ATOM     17  C   UNL A   1      40.653 -18.434 -32.410  0.00  0.00    -0.060 A 
ATOM     18  C   UNL A   1      41.805 -19.076 -32.854  0.00  0.00    -0.040 A 
ATOM     19  C   UNL A   1      41.804 -20.453 -33.124  0.00  0.00    +0.035 A 
ATOM     20  C   UNL A   1      40.599 -21.183 -32.998  0.00  0.00    -0.026 A 
ATOM     21  C   UNL A   1      40.571 -22.648 -33.360  0.00  0.00    -0.038 C 
ENDBRANCH  12  19
ENDBRANCH   6  12
ENDBRANCH   2  11
ENDBRANCH   1   4
BRANCH   1  22
ATOM     22  C   UNL A   1      39.589 -19.147 -38.444  0.00  0.00    -0.037 C 
BRANCH  22  23
ATOM     23  C   UNL A   1      40.503 -19.736 -39.524  0.00  0.00    -0.052 C 
BRANCH  23  24
ATOM     24  C   UNL A   1      40.328 -21.247 -39.697  0.00  0.00    -0.052 C 
BRANCH  24  25
ATOM     25  C   UNL A   1      41.392 -21.906 -40.583  0.00  0.00    -0.037 C 
BRANCH  25  26
ATOM     26  C   UNL A   1      42.831 -21.470 -40.298  0.00  0.00    +0.009 C 
BRANCH  26  27
ATOM     27  N   UNL A   1      43.420 -20.823 -41.479  0.00  0.00    -0.343 N 
ATOM     28  H   UNL A   1      42.941 -20.676 -42.328  0.00  0.00    +0.000 HD
BRANCH  27  29
ATOM     29  C   UNL A   1      44.775 -20.437 -41.241  0.00  0.00    +0.041 A 
ATOM     30  C   UNL A   1      45.029 -19.160 -40.702  0.00  0.00    -0.005 A 
ATOM     31  C   UNL A   1      46.360 -18.793 -40.505  0.00  0.00    +0.047 A 
ATOM     32  N   UNL A   1      47.405 -19.579 -40.855  0.00  0.00    -0.251 NA
ATOM     33  C   UNL A   1      47.164 -20.783 -41.388  0.00  0.00    +0.073 A 
ATOM     34  C   UNL A   1      48.258 -21.567 -41.735  0.00  0.00    -0.036 A 
ATOM     35  C   UNL A   1      48.111 -22.834 -42.300  0.00  0.00    -0.060 A 
ATOM     36  C   UNL A   1      46.841 -23.339 -42.527  0.00  0.00    -0.061 A 
ATOM     37  C   UNL A   1      45.727 -22.571 -42.187  0.00  0.00    -0.051 A 
ATOM     38  C   UNL A   1      45.864 -21.279 -41.612  0.00  0.00    +0.021 A 
ATOM     39  C   UNL A   1      46.735 -17.451 -39.930  0.00  0.00    -0.010 C 
ATOM     40  C   UNL A   1      45.610 -16.807 -39.130  0.00  0.00    -0.047 C 
ATOM     41  C   UNL A   1      44.324 -16.829 -39.941  0.00  0.00    -0.049 C 
ATOM     42  C   UNL A   1      43.900 -18.266 -40.239  0.00  0.00    -0.024 C 
ENDBRANCH  27  29
ENDBRANCH  26  27
ENDBRANCH  25  26
ENDBRANCH  24  25
ENDBRANCH  23  24
ENDBRANCH  22  23
ENDBRANCH   1  22
TORSDOF 11
ENDMDL
MODEL 2
REMARK VINA RESULT:    -7.841     17.431     21.139
REMARK INTER + INTRA:         -16.033
REMARK INTER:                 -11.637
REMARK INTRA:                  -4.396
REMARK UNBOUND:                -3.150
REMARK  Name = cpd23.pdb
REMARK  13 active torsions:
REMARK  status: ('A' for Active; 'I' for Inactive)
REMARK    1  A    between atoms: C_1  and  C_2
REMARK    2  A    between atoms: C_6  and  N_7
REMARK    3  A    between atoms: N_7  and  C_8
REMARK    4  A    between atoms: C_13  and  C_14
REMARK    5  A    between atoms: N_16  and  C_17
REMARK    6  A    between atoms: C_17  and  C_18
REMARK    7  A    between atoms: C_18  and  C_19
REMARK    8  A    between atoms: C_19  and  C_20
REMARK    9  A    between atoms: C_20  and  C_21
REMARK   10  A    between atoms: C_21  and  C_22
REMARK   11  A    between atoms: C_22  and  N_23
REMARK   12  A    between atoms: N_23  and  C_24
REMARK   13  A    between atoms: C_38  and  C_39
REMARK                            x       y       z     vdW  Elec       q    Type
REMARK                         _______ _______ _______ _____ _____    ______ ____
ROOT
ATOM      1  C   UNL A   1      29.768 -34.490 -31.434  0.00  0.00    +0.012 C 
ENDROOT
BRANCH   1   4
ATOM      2  C   UNL A   1      30.645 -36.772 -31.653  0.00  0.00    +0.246 C 
ATOM      3  O   UNL A   1      30.701 -36.928 -30.436  0.00  0.00    -0.270 OA
ATOM      4  N   UNL A   1      30.242 -35.591 -32.249  0.00  0.00    -0.311 N 
ATOM      5  H   UNL A   1      30.279 -35.497 -33.229  0.00  0.00    +0.000 HD
BRANCH   2  11
ATOM      6  C   UNL A   1      32.179 -38.620 -32.412  0.00  0.00    +0.044 A 
ATOM      7  C   UNL A   1      32.408 -39.718 -33.258  0.00  0.00    -0.040 A 
ATOM      8  C   UNL A   1      31.517 -40.043 -34.284  0.00  0.00    -0.060 A 
ATOM      9  C   UNL A   1      30.363 -39.288 -34.471  0.00  0.00    -0.061 A 
ATOM     10  C   UNL A   1      30.086 -38.223 -33.614  0.00  0.00    -0.048 A 
ATOM     11  C   UNL A   1      30.970 -37.903 -32.569  0.00  0.00    +0.058 A 
BRANCH   6  12
ATOM     12  N   UNL A   1      33.066 -38.348 -31.332  0.00  0.00    -0.314 N 
ATOM     13  H   UNL A   1      32.989 -37.458 -30.919  0.00  0.00    +0.000 HD
BRANCH  12  19
ATOM     14  C   UNL A   1      34.490 -41.562 -27.775  0.00  0.00    -0.039 C 
ATOM     15  C   UNL A   1      34.761 -40.733 -29.002  0.00  0.00    -0.046 A 
ATOM     16  C   UNL A   1      36.061 -40.721 -29.531  0.00  0.00    -0.058 A 
ATOM     17  C   UNL A   1      36.366 -39.948 -30.648  0.00  0.00    -0.060 A 
ATOM     18  C   UNL A   1      35.373 -39.184 -31.254  0.00  0.00    -0.040 A 
ATOM     19  C   UNL A   1      34.052 -39.212 -30.782  0.00  0.00    +0.035 A 
ATOM     20  C   UNL A   1      33.742 -39.984 -29.638  0.00  0.00    -0.026 A 
ATOM     21  C   UNL A   1      32.341 -39.961 -29.077  0.00  0.00    -0.038 C 
ENDBRANCH  12  19
ENDBRANCH   6  12
ENDBRANCH   2  11
ENDBRANCH   1   4
BRANCH   1  22
ATOM     22  C   UNL A   1      30.531 -33.203 -31.737  0.00  0.00    -0.037 C 
BRANCH  22  23
ATOM     23  C   UNL A   1      31.799 -33.038 -30.892  0.00  0.00    -0.052 C 
BRANCH  23  24
ATOM     24  C   UNL A   1      33.075 -32.971 -31.735  0.00  0.00    -0.052 C 
BRANCH  24  25
ATOM     25  C   UNL A   1      33.283 -34.177 -32.658  0.00  0.00    -0.037 C 
BRANCH  25  26
ATOM     26  C   UNL A   1      34.348 -35.173 -32.190  0.00  0.00    +0.009 C 
BRANCH  26  27
ATOM     27  N   UNL A   1      35.382 -34.492 -31.399  0.00  0.00    -0.343 N 
ATOM     28  H   UNL A   1      35.544 -33.521 -31.416  0.00  0.00    +0.000 HD
BRANCH  27  29
ATOM     29  C   UNL A   1      36.124 -35.419 -30.603  0.00  0.00    +0.041 A 
ATOM     30  C   UNL A   1      35.539 -35.913 -29.419  0.00  0.00    -0.005 A 
ATOM     31  C   UNL A   1      36.293 -36.793 -28.643  0.00  0.00    +0.047 A 
ATOM     32  N   UNL A   1      37.564 -37.147 -28.947  0.00  0.00    -0.251 NA
ATOM     33  C   UNL A   1      38.127 -36.659 -30.059  0.00  0.00    +0.073 A 
ATOM     34  C   UNL A   1      39.432 -37.043 -30.343  0.00  0.00    -0.036 A 
ATOM     35  C   UNL A   1      40.108 -36.586 -31.476  0.00  0.00    -0.060 A 
ATOM     36  C   UNL A   1      39.468 -35.726 -32.353  0.00  0.00    -0.061 A 
ATOM     37  C   UNL A   1      38.158 -35.327 -32.089  0.00  0.00    -0.051 A 
ATOM     38  C   UNL A   1      37.460 -35.784 -30.939  0.00  0.00    +0.021 A 
ATOM     39  C   UNL A   1      35.755 -37.380 -27.363  0.00  0.00    -0.010 C 
ATOM     40  C   UNL A   1      34.233 -37.364 -27.290  0.00  0.00    -0.047 C 
ATOM     41  C   UNL A   1      33.717 -35.976 -27.635  0.00  0.00    -0.049 C 
ATOM     42  C   UNL A   1      34.104 -35.598 -29.064  0.00  0.00    -0.024 C 
ENDBRANCH  27  29
ENDBRANCH  26  27
ENDBRANCH  25  26
ENDBRANCH  24  25
ENDBRANCH  23  24
ENDBRANCH  22  23
ENDBRANCH   1  22
TORSDOF 11
ENDMDL
MODEL 3
REMARK VINA RESULT:    -7.833      1.893      3.859
REMARK INTER + INTRA:         -16.020
REMARK INTER:                 -12.609
REMARK INTRA:                  -3.411
REMARK UNBOUND:                -3.150
REMARK  Name = cpd23.pdb
REMARK  13 active torsions:
REMARK  status: ('A' for Active; 'I' for Inactive)
REMARK    1  A    between atoms: C_1  and  C_2
REMARK    2  A    between atoms: C_6  and  N_7
REMARK    3  A    between atoms: N_7  and  C_8
REMARK    4  A    between atoms: C_13  and  C_14
REMARK    5  A    between atoms: N_16  and  C_17
REMARK    6  A    between atoms: C_17  and  C_18
REMARK    7  A    between atoms: C_18  and  C_19
REMARK    8  A    between atoms: C_19  and  C_20
REMARK    9  A    between atoms: C_20  and  C_21
REMARK   10  A    between atoms: C_21  and  C_22
REMARK   11  A    between atoms: C_22  and  N_23
REMARK   12  A    between atoms: N_23  and  C_24
REMARK   13  A    between atoms: C_38  and  C_39
REMARK                            x       y       z     vdW  Elec       q    Type
REMARK                         _______ _______ _______ _____ _____    ______ ____
ROOT
ATOM      1  C   UNL A   1      43.282 -18.035 -34.894  0.00  0.00    +0.012 C 
ENDROOT
BRANCH   1   4
ATOM      2  C   UNL A   1      43.139 -20.182 -36.075  0.00  0.00    +0.246 C 
ATOM      3  O   UNL A   1      43.683 -20.788 -35.156  0.00  0.00    -0.270 OA
ATOM      4  N   UNL A   1      42.934 -18.814 -36.066  0.00  0.00    -0.311 N 
ATOM      5  H   UNL A   1      42.553 -18.369 -36.857  0.00  0.00    +0.000 HD
BRANCH   2  11
ATOM      6  C   UNL A   1      41.527 -21.820 -37.105  0.00  0.00    +0.044 A 
ATOM      7  C   UNL A   1      41.025 -22.446 -38.259  0.00  0.00    -0.040 A 
ATOM      8  C   UNL A   1      41.631 -22.264 -39.506  0.00  0.00    -0.060 A 
ATOM      9  C   UNL A   1      42.739 -21.433 -39.628  0.00  0.00    -0.061 A 
ATOM     10  C   UNL A   1      43.228 -20.760 -38.509  0.00  0.00    -0.048 A 
ATOM     11  C   UNL A   1      42.612 -20.926 -37.256  0.00  0.00    +0.058 A 
BRANCH   6  12
ATOM     12  N   UNL A   1      40.854 -21.967 -35.859  0.00  0.00    -0.314 N 
ATOM     13  H   UNL A   1      41.218 -22.646 -35.246  0.00  0.00    +0.000 HD
BRANCH  12  19
ATOM     14  C   UNL A   1      36.912 -21.626 -32.801  0.00  0.00    -0.039 C 
ATOM     15  C   UNL A   1      37.756 -21.122 -33.941  0.00  0.00    -0.046 A 
ATOM     16  C   UNL A   1      37.328 -19.985 -34.643  0.00  0.00    -0.058 A 
ATOM     17  C   UNL A   1      38.061 -19.499 -35.723  0.00  0.00    -0.060 A 
ATOM     18  C   UNL A   1      39.235 -20.140 -36.108  0.00  0.00    -0.040 A 
ATOM     19  C   UNL A   1      39.718 -21.248 -35.397  0.00  0.00    +0.035 A 
ATOM     20  C   UNL A   1      38.968 -21.755 -34.310  0.00  0.00    -0.026 A 
ATOM     21  C   UNL A   1      39.440 -22.993 -33.588  0.00  0.00    -0.038 C 
ENDBRANCH  12  19
ENDBRANCH   6  12
ENDBRANCH   2  11
ENDBRANCH   1   4
BRANCH   1  22
ATOM     22  C   UNL A   1      44.542 -17.206 -35.131  0.00  0.00    -0.037 C 
BRANCH  22  23
ATOM     23  C   UNL A   1      45.808 -17.854 -34.561  0.00  0.00    -0.052 C 
BRANCH  23  24
ATOM     24  C   UNL A   1      46.949 -17.934 -35.580  0.00  0.00    -0.052 C 
BRANCH  24  25
ATOM     25  C   UNL A   1      47.305 -19.360 -36.015  0.00  0.00    -0.037 C 
BRANCH  25  26
ATOM     26  C   UNL A   1      46.600 -19.843 -37.286  0.00  0.00    +0.009 C 
BRANCH  26  27
ATOM     27  N   UNL A   1      47.401 -19.523 -38.475  0.00  0.00    -0.343 N 
ATOM     28  H   UNL A   1      48.378 -19.396 -38.470  0.00  0.00    +0.000 HD
BRANCH  27  29
ATOM     29  C   UNL A   1      46.582 -19.419 -39.642  0.00  0.00    +0.041 A 
ATOM     30  C   UNL A   1      45.871 -18.222 -39.864  0.00  0.00    -0.005 A 
ATOM     31  C   UNL A   1      45.055 -18.154 -40.993  0.00  0.00    +0.047 A 
ATOM     32  N   UNL A   1      44.877 -19.192 -41.843  0.00  0.00    -0.251 NA
ATOM     33  C   UNL A   1      45.534 -20.337 -41.619  0.00  0.00    +0.073 A 
ATOM     34  C   UNL A   1      45.332 -21.383 -42.510  0.00  0.00    -0.036 A 
ATOM     35  C   UNL A   1      45.968 -22.617 -42.361  0.00  0.00    -0.060 A 
ATOM     36  C   UNL A   1      46.831 -22.817 -41.296  0.00  0.00    -0.061 A 
ATOM     37  C   UNL A   1      47.050 -21.780 -40.388  0.00  0.00    -0.051 A 
ATOM     38  C   UNL A   1      46.409 -20.521 -40.529  0.00  0.00    +0.021 A 
ATOM     39  C   UNL A   1      44.259 -16.917 -41.321  0.00  0.00    -0.010 C 
ATOM     40  C   UNL A   1      44.813 -15.657 -40.668  0.00  0.00    -0.047 C 
ATOM     41  C   UNL A   1      45.045 -15.906 -39.186  0.00  0.00    -0.049 C 
ATOM     42  C   UNL A   1      46.078 -17.013 -38.981  0.00  0.00    -0.024 C 
ENDBRANCH  27  29
ENDBRANCH  26  27
ENDBRANCH  25  26
ENDBRANCH  24  25
ENDBRANCH  23  24
ENDBRANCH  22  23
ENDBRANCH   1  22
TORSDOF 11
ENDMDL
MODEL 4
REMARK VINA RESULT:    -7.795      2.433      8.297
REMARK INTER + INTRA:         -15.957
REMARK INTER:                 -12.369
REMARK INTRA:                  -3.588
REMARK UNBOUND:                -3.150
REMARK  Name = cpd23.pdb
REMARK  13 active torsions:
REMARK  status: ('A' for Active; 'I' for Inactive)
REMARK    1  A    between atoms: C_1  and  C_2
REMARK    2  A    between atoms: C_6  and  N_7
REMARK    3  A    between atoms: N_7  and  C_8
REMARK    4  A    between atoms: C_13  and  C_14
REMARK    5  A    between atoms: N_16  and  C_17
REMARK    6  A    between atoms: C_17  and  C_18
REMARK    7  A    between atoms: C_18  and  C_19
REMARK    8  A    between atoms: C_19  and  C_20
REMARK    9  A    between atoms: C_20  and  C_21
REMARK   10  A    between atoms: C_21  and  C_22
REMARK   11  A    between atoms: C_22  and  N_23
REMARK   12  A    between atoms: N_23  and  C_24
REMARK   13  A    between atoms: C_38  and  C_39
REMARK                            x       y       z     vdW  Elec       q    Type
REMARK                         _______ _______ _______ _____ _____    ______ ____
ROOT
ATOM      1  C   UNL A   1      44.636 -16.562 -37.779  0.00  0.00    +0.012 C 
ENDROOT
BRANCH   1   4
ATOM      2  C   UNL A   1      43.263 -17.963 -39.254  0.00  0.00    +0.246 C 
ATOM      3  O   UNL A   1      43.423 -17.211 -40.212  0.00  0.00    -0.270 OA
ATOM      4  N   UNL A   1      43.780 -17.711 -37.996  0.00  0.00    -0.311 N 
ATOM      5  H   UNL A   1      43.567 -18.314 -37.247  0.00  0.00    +0.000 HD
BRANCH   2  11
ATOM      6  C   UNL A   1      43.012 -20.238 -40.304  0.00  0.00    +0.044 A 
ATOM      7  C   UNL A   1      42.313 -21.455 -40.379  0.00  0.00    -0.040 A 
ATOM      8  C   UNL A   1      41.121 -21.653 -39.677  0.00  0.00    -0.060 A 
ATOM      9  C   UNL A   1      40.615 -20.644 -38.865  0.00  0.00    -0.061 A 
ATOM     10  C   UNL A   1      41.313 -19.444 -38.733  0.00  0.00    -0.048 A 
ATOM     11  C   UNL A   1      42.522 -19.246 -39.424  0.00  0.00    +0.058 A 
BRANCH   6  12
ATOM     12  N   UNL A   1      44.257 -20.083 -40.976  0.00  0.00    -0.314 N 
ATOM     13  H   UNL A   1      44.285 -19.407 -41.691  0.00  0.00    +0.000 HD
BRANCH  12  19
ATOM     14  C   UNL A   1      47.451 -23.724 -42.223  0.00  0.00    -0.039 C 
ATOM     15  C   UNL A   1      46.989 -22.616 -41.314  0.00  0.00    -0.046 A 
ATOM     16  C   UNL A   1      47.706 -22.371 -40.133  0.00  0.00    -0.058 A 
ATOM     17  C   UNL A   1      47.301 -21.375 -39.249  0.00  0.00    -0.060 A 
ATOM     18  C   UNL A   1      46.177 -20.607 -39.539  0.00  0.00    -0.040 A 
ATOM     19  C   UNL A   1      45.467 -20.791 -40.735  0.00  0.00    +0.035 A 
ATOM     20  C   UNL A   1      45.866 -21.812 -41.628  0.00  0.00    -0.026 A 
ATOM     21  C   UNL A   1      45.063 -22.068 -42.880  0.00  0.00    -0.038 C 
ENDBRANCH  12  19
ENDBRANCH   6  12
ENDBRANCH   2  11
ENDBRANCH   1   4
BRANCH   1  22
ATOM     22  C   UNL A   1      45.040 -16.437 -36.312  0.00  0.00    -0.037 C 
BRANCH  22  23
ATOM     23  C   UNL A   1      46.517 -16.756 -36.062  0.00  0.00    -0.052 C 
BRANCH  23  24
ATOM     24  C   UNL A   1      46.856 -18.233 -36.281  0.00  0.00    -0.052 C 
BRANCH  24  25
ATOM     25  C   UNL A   1      46.883 -19.069 -34.997  0.00  0.00    -0.037 C 
BRANCH  25  26
ATOM     26  C   UNL A   1      45.708 -20.038 -34.832  0.00  0.00    +0.009 C 
BRANCH  26  27
ATOM     27  N   UNL A   1      45.078 -19.868 -33.516  0.00  0.00    -0.343 N 
ATOM     28  H   UNL A   1      45.417 -20.269 -32.682  0.00  0.00    +0.000 HD
BRANCH  27  29
ATOM     29  C   UNL A   1      43.910 -19.047 -33.599  0.00  0.00    +0.041 A 
ATOM     30  C   UNL A   1      43.945 -17.762 -33.022  0.00  0.00    -0.005 A 
ATOM     31  C   UNL A   1      42.785 -16.991 -33.090  0.00  0.00    +0.047 A 
ATOM     32  N   UNL A   1      41.627 -17.438 -33.632  0.00  0.00    -0.251 NA
ATOM     33  C   UNL A   1      41.588 -18.669 -34.158  0.00  0.00    +0.073 A 
ATOM     34  C   UNL A   1      40.387 -19.098 -34.707  0.00  0.00    -0.036 A 
ATOM     35  C   UNL A   1      40.243 -20.364 -35.277  0.00  0.00    -0.060 A 
ATOM     36  C   UNL A   1      41.326 -21.228 -35.305  0.00  0.00    -0.061 A 
ATOM     37  C   UNL A   1      42.543 -20.819 -34.760  0.00  0.00    -0.051 A 
ATOM     38  C   UNL A   1      42.701 -19.533 -34.176  0.00  0.00    +0.021 A 
ATOM     39  C   UNL A   1      42.722 -15.602 -32.508  0.00  0.00    -0.010 C 
ATOM     40  C   UNL A   1      44.093 -14.957 -32.348  0.00  0.00    -0.047 C 
ATOM     41  C   UNL A   1      45.032 -15.917 -31.636  0.00  0.00    -0.049 C 
ATOM     42  C   UNL A   1      45.226 -17.190 -32.459  0.00  0.00    -0.024 C 
ENDBRANCH  27  29
ENDBRANCH  26  27
ENDBRANCH  25  26
ENDBRANCH  24  25
ENDBRANCH  23  24
ENDBRANCH  22  23
ENDBRANCH   1  22
TORSDOF 11
ENDMDL
MODEL 5
REMARK VINA RESULT:    -7.749      1.728      5.024
REMARK INTER + INTRA:         -15.881
REMARK INTER:                 -12.580
REMARK INTRA:                  -3.301
REMARK UNBOUND:                -3.150
REMARK  Name = cpd23.pdb
REMARK  13 active torsions:
REMARK  status: ('A' for Active; 'I' for Inactive)
REMARK    1  A    between atoms: C_1  and  C_2
REMARK    2  A    between atoms: C_6  and  N_7
REMARK    3  A    between atoms: N_7  and  C_8
REMARK    4  A    between atoms: C_13  and  C_14
REMARK    5  A    between atoms: N_16  and  C_17
REMARK    6  A    between atoms: C_17  and  C_18
REMARK    7  A    between atoms: C_18  and  C_19
REMARK    8  A    between atoms: C_19  and  C_20
REMARK    9  A    between atoms: C_20  and  C_21
REMARK   10  A    between atoms: C_21  and  C_22
REMARK   11  A    between atoms: C_22  and  N_23
REMARK   12  A    between atoms: N_23  and  C_24
REMARK   13  A    between atoms: C_38  and  C_39
REMARK                            x       y       z     vdW  Elec       q    Type
REMARK                         _______ _______ _______ _____ _____    ______ ____
ROOT
ATOM      1  C   UNL A   1      42.671 -19.694 -33.877  0.00  0.00    +0.012 C 
ENDROOT
BRANCH   1   4
ATOM      2  C   UNL A   1      41.855 -19.786 -36.189  0.00  0.00    +0.246 C 
ATOM      3  O   UNL A   1      41.387 -18.652 -36.129  0.00  0.00    -0.270 OA
ATOM      4  N   UNL A   1      42.468 -20.412 -35.120  0.00  0.00    -0.311 N 
ATOM      5  H   UNL A   1      42.767 -21.346 -35.202  0.00  0.00    +0.000 HD
BRANCH   2  11
ATOM      6  C   UNL A   1      40.606 -21.064 -37.964  0.00  0.00    +0.044 A 
ATOM      7  C   UNL A   1      40.620 -21.711 -39.212  0.00  0.00    -0.040 A 
ATOM      8  C   UNL A   1      41.813 -21.914 -39.911  0.00  0.00    -0.060 A 
ATOM      9  C   UNL A   1      43.016 -21.454 -39.386  0.00  0.00    -0.061 A 
ATOM     10  C   UNL A   1      43.025 -20.765 -38.174  0.00  0.00    -0.048 A 
ATOM     11  C   UNL A   1      41.825 -20.542 -37.475  0.00  0.00    +0.058 A 
BRANCH   6  12
ATOM     12  N   UNL A   1      39.371 -20.810 -37.302  0.00  0.00    -0.314 N 
ATOM     13  H   UNL A   1      38.824 -20.078 -37.667  0.00  0.00    +0.000 HD
BRANCH  12  19
ATOM     14  C   UNL A   1      36.931 -20.679 -32.939  0.00  0.00    -0.039 C 
ATOM     15  C   UNL A   1      37.699 -21.407 -34.009  0.00  0.00    -0.046 A 
ATOM     16  C   UNL A   1      38.003 -22.763 -33.815  0.00  0.00    -0.058 A 
ATOM     17  C   UNL A   1      38.736 -23.470 -34.765  0.00  0.00    -0.060 A 
ATOM     18  C   UNL A   1      39.167 -22.831 -35.924  0.00  0.00    -0.040 A 
ATOM     19  C   UNL A   1      38.837 -21.490 -36.173  0.00  0.00    +0.035 A 
ATOM     20  C   UNL A   1      38.107 -20.764 -35.203  0.00  0.00    -0.026 A 
ATOM     21  C   UNL A   1      37.814 -19.301 -35.428  0.00  0.00    -0.038 C 
ENDBRANCH  12  19
ENDBRANCH   6  12
ENDBRANCH   2  11
ENDBRANCH   1   4
BRANCH   1  22
ATOM     22  C   UNL A   1      44.075 -19.100 -33.799  0.00  0.00    -0.037 C 
BRANCH  22  23
ATOM     23  C   UNL A   1      45.046 -19.709 -34.816  0.00  0.00    -0.052 C 
BRANCH  23  24
ATOM     24  C   UNL A   1      45.585 -18.682 -35.816  0.00  0.00    -0.052 C 
BRANCH  24  25
ATOM     25  C   UNL A   1      46.876 -19.111 -36.523  0.00  0.00    -0.037 C 
BRANCH  25  26
ATOM     26  C   UNL A   1      46.674 -19.985 -37.764  0.00  0.00    +0.009 C 
BRANCH  26  27
ATOM     27  N   UNL A   1      47.294 -19.363 -38.942  0.00  0.00    -0.343 N 
ATOM     28  H   UNL A   1      48.254 -19.156 -39.020  0.00  0.00    +0.000 HD
BRANCH  27  29
ATOM     29  C   UNL A   1      46.327 -19.096 -39.960  0.00  0.00    +0.041 A 
ATOM     30  C   UNL A   1      46.082 -20.084 -40.935  0.00  0.00    -0.005 A 
ATOM     31  C   UNL A   1      45.156 -19.790 -41.936  0.00  0.00    +0.047 A 
ATOM     32  N   UNL A   1      44.531 -18.593 -42.039  0.00  0.00    -0.251 NA
ATOM     33  C   UNL A   1      44.781 -17.647 -41.126  0.00  0.00    +0.073 A 
ATOM     34  C   UNL A   1      44.123 -16.431 -41.259  0.00  0.00    -0.036 A 
ATOM     35  C   UNL A   1      44.319 -15.380 -40.360  0.00  0.00    -0.060 A 
ATOM     36  C   UNL A   1      45.193 -15.543 -39.298  0.00  0.00    -0.061 A 
ATOM     37  C   UNL A   1      45.866 -16.756 -39.144  0.00  0.00    -0.051 A 
ATOM     38  C   UNL A   1      45.675 -17.832 -40.052  0.00  0.00    +0.021 A 
ATOM     39  C   UNL A   1      44.821 -20.781 -43.021  0.00  0.00    -0.010 C 
ATOM     40  C   UNL A   1      45.142 -22.220 -42.638  0.00  0.00    -0.047 C 
ATOM     41  C   UNL A   1      46.561 -22.303 -42.097  0.00  0.00    -0.049 C 
ATOM     42  C   UNL A   1      46.707 -21.456 -40.834  0.00  0.00    -0.024 C 
ENDBRANCH  27  29
ENDBRANCH  26  27
ENDBRANCH  25  26
ENDBRANCH  24  25
ENDBRANCH  23  24
ENDBRANCH  22  23
ENDBRANCH   1  22
TORSDOF 11
ENDMDL
MODEL 6
REMARK VINA RESULT:    -7.635      1.730      4.873
REMARK INTER + INTRA:         -15.695
REMARK INTER:                 -12.512
REMARK INTRA:                  -3.183
REMARK UNBOUND:                -3.150
REMARK  Name = cpd23.pdb
REMARK  13 active torsions:
REMARK  status: ('A' for Active; 'I' for Inactive)
REMARK    1  A    between atoms: C_1  and  C_2
REMARK    2  A    between atoms: C_6  and  N_7
REMARK    3  A    between atoms: N_7  and  C_8
REMARK    4  A    between atoms: C_13  and  C_14
REMARK    5  A    between atoms: N_16  and  C_17
REMARK    6  A    between atoms: C_17  and  C_18
REMARK    7  A    between atoms: C_18  and  C_19
REMARK    8  A    between atoms: C_19  and  C_20
REMARK    9  A    between atoms: C_20  and  C_21
REMARK   10  A    between atoms: C_21  and  C_22
REMARK   11  A    between atoms: C_22  and  N_23
REMARK   12  A    between atoms: N_23  and  C_24
REMARK   13  A    between atoms: C_38  and  C_39
REMARK                            x       y       z     vdW  Elec       q    Type
REMARK                         _______ _______ _______ _____ _____    ______ ____
ROOT
ATOM      1  C   UNL A   1      44.631 -19.977 -33.872  0.00  0.00    +0.012 C 
ENDROOT
BRANCH   1   4
ATOM      2  C   UNL A   1      42.300 -20.582 -33.396  0.00  0.00    +0.246 C 
ATOM      3  O   UNL A   1      42.022 -19.446 -33.022  0.00  0.00    -0.270 OA
ATOM      4  N   UNL A   1      43.570 -20.962 -33.792  0.00  0.00    -0.311 N 
ATOM      5  H   UNL A   1      43.753 -21.902 -34.020  0.00  0.00    +0.000 HD
BRANCH   2  11
ATOM      6  C   UNL A   1      40.167 -21.465 -34.403  0.00  0.00    +0.044 A 
ATOM      7  C   UNL A   1      39.225 -22.503 -34.499  0.00  0.00    -0.040 A 
ATOM      8  C   UNL A   1      39.286 -23.619 -33.661  0.00  0.00    -0.060 A 
ATOM      9  C   UNL A   1      40.305 -23.730 -32.721  0.00  0.00    -0.061 A 
ATOM     10  C   UNL A   1      41.281 -22.739 -32.636  0.00  0.00    -0.048 A 
ATOM     11  C   UNL A   1      41.235 -21.622 -33.490  0.00  0.00    +0.058 A 
BRANCH   6  12
ATOM     12  N   UNL A   1      40.124 -20.370 -35.311  0.00  0.00    -0.314 N 
ATOM     13  H   UNL A   1      39.746 -19.530 -34.964  0.00  0.00    +0.000 HD
BRANCH  12  19
ATOM     14  C   UNL A   1      39.209 -19.402 -40.132  0.00  0.00    -0.039 C 
ATOM     15  C   UNL A   1      40.082 -19.932 -39.026  0.00  0.00    -0.046 A 
ATOM     16  C   UNL A   1      41.303 -20.537 -39.364  0.00  0.00    -0.058 A 
ATOM     17  C   UNL A   1      42.130 -21.067 -38.378  0.00  0.00    -0.060 A 
ATOM     18  C   UNL A   1      41.751 -20.991 -37.041  0.00  0.00    -0.040 A 
ATOM     19  C   UNL A   1      40.563 -20.348 -36.664  0.00  0.00    +0.035 A 
ATOM     20  C   UNL A   1      39.711 -19.823 -37.664  0.00  0.00    -0.026 A 
ATOM     21  C   UNL A   1      38.394 -19.198 -37.273  0.00  0.00    -0.038 C 
ENDBRANCH  12  19
ENDBRANCH   6  12
ENDBRANCH   2  11
ENDBRANCH   1   4
BRANCH   1  22
ATOM     22  C   UNL A   1      44.924 -19.591 -35.319  0.00  0.00    -0.037 C 
BRANCH  22  23
ATOM     23  C   UNL A   1      45.219 -18.098 -35.499  0.00  0.00    -0.052 C 
BRANCH  23  24
ATOM     24  C   UNL A   1      46.599 -17.830 -36.107  0.00  0.00    -0.052 C 
BRANCH  24  25
ATOM     25  C   UNL A   1      47.402 -19.096 -36.424  0.00  0.00    -0.037 C 
BRANCH  25  26
ATOM     26  C   UNL A   1      47.423 -19.495 -37.902  0.00  0.00    +0.009 C 
BRANCH  26  27
ATOM     27  N   UNL A   1      46.352 -20.458 -38.194  0.00  0.00    -0.343 N 
ATOM     28  H   UNL A   1      45.915 -21.024 -37.518  0.00  0.00    +0.000 HD
BRANCH  27  29
ATOM     29  C   UNL A   1      46.027 -20.468 -39.586  0.00  0.00    +0.041 A 
ATOM     30  C   UNL A   1      45.161 -19.474 -40.085  0.00  0.00    -0.005 A 
ATOM     31  C   UNL A   1      44.834 -19.522 -41.440  0.00  0.00    +0.047 A 
ATOM     32  N   UNL A   1      45.264 -20.499 -42.273  0.00  0.00    -0.251 NA
ATOM     33  C   UNL A   1      46.067 -21.456 -41.793  0.00  0.00    +0.073 A 
ATOM     34  C   UNL A   1      46.492 -22.444 -42.673  0.00  0.00    -0.036 A 
ATOM     35  C   UNL A   1      47.328 -23.486 -42.269  0.00  0.00    -0.060 A 
ATOM     36  C   UNL A   1      47.756 -23.548 -40.952  0.00  0.00    -0.061 A 
ATOM     37  C   UNL A   1      47.342 -22.567 -40.051  0.00  0.00    -0.051 A 
ATOM     38  C   UNL A   1      46.491 -21.503 -40.450  0.00  0.00    +0.021 A 
ATOM     39  C   UNL A   1      43.920 -18.502 -42.071  0.00  0.00    -0.010 C 
ATOM     40  C   UNL A   1      43.841 -17.201 -41.283  0.00  0.00    -0.047 C 
ATOM     41  C   UNL A   1      43.564 -17.503 -39.819  0.00  0.00    -0.049 C 
ATOM     42  C   UNL A   1      44.700 -18.328 -39.215  0.00  0.00    -0.024 C 
ENDBRANCH  27  29
ENDBRANCH  26  27
ENDBRANCH  25  26
ENDBRANCH  24  25
ENDBRANCH  23  24
ENDBRANCH  22  23
ENDBRANCH   1  22
TORSDOF 11
ENDMDL
MODEL 7
REMARK VINA RESULT:    -7.629      2.302      6.931
REMARK INTER + INTRA:         -15.684
REMARK INTER:                 -10.623
REMARK INTRA:                  -5.062
REMARK UNBOUND:                -3.150
REMARK  Name = cpd23.pdb
REMARK  13 active torsions:
REMARK  status: ('A' for Active; 'I' for Inactive)
REMARK    1  A    between atoms: C_1  and  C_2
REMARK    2  A    between atoms: C_6  and  N_7
REMARK    3  A    between atoms: N_7  and  C_8
REMARK    4  A    between atoms: C_13  and  C_14
REMARK    5  A    between atoms: N_16  and  C_17
REMARK    6  A    between atoms: C_17  and  C_18
REMARK    7  A    between atoms: C_18  and  C_19
REMARK    8  A    between atoms: C_19  and  C_20
REMARK    9  A    between atoms: C_20  and  C_21
REMARK   10  A    between atoms: C_21  and  C_22
REMARK   11  A    between atoms: C_22  and  N_23
REMARK   12  A    between atoms: N_23  and  C_24
REMARK   13  A    between atoms: C_38  and  C_39
REMARK                            x       y       z     vdW  Elec       q    Type
REMARK                         _______ _______ _______ _____ _____    ______ ____
ROOT
ATOM      1  C   UNL A   1      43.401 -16.579 -40.534  0.00  0.00    +0.012 C 
ENDROOT
BRANCH   1   4
ATOM      2  C   UNL A   1      45.128 -18.318 -40.667  0.00  0.00    +0.246 C 
ATOM      3  O   UNL A   1      46.030 -17.519 -40.428  0.00  0.00    -0.270 OA
ATOM      4  N   UNL A   1      43.800 -17.950 -40.786  0.00  0.00    -0.311 N 
ATOM      5  H   UNL A   1      43.125 -18.619 -41.044  0.00  0.00    +0.000 HD
BRANCH   2  11
ATOM      6  C   UNL A   1      46.093 -20.454 -39.746  0.00  0.00    +0.044 A 
ATOM      7  C   UNL A   1      46.294 -21.838 -39.884  0.00  0.00    -0.040 A 
ATOM      8  C   UNL A   1      45.931 -22.512 -41.053  0.00  0.00    -0.060 A 
ATOM      9  C   UNL A   1      45.337 -21.817 -42.102  0.00  0.00    -0.061 A 
ATOM     10  C   UNL A   1      45.081 -20.453 -41.973  0.00  0.00    -0.048 A 
ATOM     11  C   UNL A   1      45.428 -19.774 -40.792  0.00  0.00    +0.058 A 
BRANCH   6  12
ATOM     12  N   UNL A   1      46.410 -19.802 -38.521  0.00  0.00    -0.314 N 
ATOM     13  H   UNL A   1      47.338 -19.487 -38.423  0.00  0.00    +0.000 HD
BRANCH  12  19
ATOM     14  C   UNL A   1      45.501 -17.499 -34.175  0.00  0.00    -0.039 C 
ATOM     15  C   UNL A   1      45.135 -18.471 -35.265  0.00  0.00    -0.046 A 
ATOM     16  C   UNL A   1      43.971 -19.240 -35.119  0.00  0.00    -0.058 A 
ATOM     17  C   UNL A   1      43.607 -20.171 -36.087  0.00  0.00    -0.060 A 
ATOM     18  C   UNL A   1      44.400 -20.339 -37.219  0.00  0.00    -0.040 A 
ATOM     19  C   UNL A   1      45.543 -19.552 -37.422  0.00  0.00    +0.035 A 
ATOM     20  C   UNL A   1      45.925 -18.616 -36.432  0.00  0.00    -0.026 A 
ATOM     21  C   UNL A   1      47.195 -17.819 -36.606  0.00  0.00    -0.038 C 
ENDBRANCH  12  19
ENDBRANCH   6  12
ENDBRANCH   2  11
ENDBRANCH   1   4
BRANCH   1  22
ATOM     22  C   UNL A   1      42.500 -16.479 -39.305  0.00  0.00    -0.037 C 
BRANCH  22  23
ATOM     23  C   UNL A   1      43.271 -16.553 -37.983  0.00  0.00    -0.052 C 
BRANCH  23  24
ATOM     24  C   UNL A   1      42.371 -16.380 -36.756  0.00  0.00    -0.052 C 
BRANCH  24  25
ATOM     25  C   UNL A   1      40.924 -16.840 -36.967  0.00  0.00    -0.037 C 
BRANCH  25  26
ATOM     26  C   UNL A   1      40.477 -17.998 -36.071  0.00  0.00    +0.009 C 
BRANCH  26  27
ATOM     27  N   UNL A   1      39.389 -18.754 -36.706  0.00  0.00    -0.343 N 
ATOM     28  H   UNL A   1      38.556 -18.351 -37.044  0.00  0.00    +0.000 HD
BRANCH  27  29
ATOM     29  C   UNL A   1      39.692 -20.150 -36.771  0.00  0.00    +0.041 A 
ATOM     30  C   UNL A   1      39.247 -20.987 -35.728  0.00  0.00    -0.005 A 
ATOM     31  C   UNL A   1      39.581 -22.340 -35.796  0.00  0.00    +0.047 A 
ATOM     32  N   UNL A   1      40.348 -22.865 -36.780  0.00  0.00    -0.251 NA
ATOM     33  C   UNL A   1      40.791 -22.065 -37.758  0.00  0.00    +0.073 A 
ATOM     34  C   UNL A   1      41.575 -22.634 -38.754  0.00  0.00    -0.036 A 
ATOM     35  C   UNL A   1      42.087 -21.884 -39.813  0.00  0.00    -0.060 A 
ATOM     36  C   UNL A   1      41.810 -20.528 -39.888  0.00  0.00    -0.061 A 
ATOM     37  C   UNL A   1      41.025 -19.934 -38.899  0.00  0.00    -0.051 A 
ATOM     38  C   UNL A   1      40.499 -20.687 -37.816  0.00  0.00    +0.021 A 
ATOM     39  C   UNL A   1      39.148 -23.317 -34.734  0.00  0.00    -0.010 C 
ATOM     40  C   UNL A   1      37.941 -22.839 -33.936  0.00  0.00    -0.047 C 
ATOM     41  C   UNL A   1      38.175 -21.416 -33.453  0.00  0.00    -0.049 C 
ATOM     42  C   UNL A   1      38.339 -20.465 -34.638  0.00  0.00    -0.024 C 
ENDBRANCH  27  29
ENDBRANCH  26  27
ENDBRANCH  25  26
ENDBRANCH  24  25
ENDBRANCH  23  24
ENDBRANCH  22  23
ENDBRANCH   1  22
TORSDOF 11
ENDMDL
MODEL 8
REMARK VINA RESULT:    -7.620      2.235      7.635
REMARK INTER + INTRA:         -15.669
REMARK INTER:                 -11.632
REMARK INTRA:                  -4.037
REMARK UNBOUND:                -3.150
REMARK  Name = cpd23.pdb
REMARK  13 active torsions:
REMARK  status: ('A' for Active; 'I' for Inactive)
REMARK    1  A    between atoms: C_1  and  C_2
REMARK    2  A    between atoms: C_6  and  N_7
REMARK    3  A    between atoms: N_7  and  C_8
REMARK    4  A    between atoms: C_13  and  C_14
REMARK    5  A    between atoms: N_16  and  C_17
REMARK    6  A    between atoms: C_17  and  C_18
REMARK    7  A    between atoms: C_18  and  C_19
REMARK    8  A    between atoms: C_19  and  C_20
REMARK    9  A    between atoms: C_20  and  C_21
REMARK   10  A    between atoms: C_21  and  C_22
REMARK   11  A    between atoms: C_22  and  N_23
REMARK   12  A    between atoms: N_23  and  C_24
REMARK   13  A    between atoms: C_38  and  C_39
REMARK                            x       y       z     vdW  Elec       q    Type
REMARK                         _______ _______ _______ _____ _____    ______ ____
ROOT
ATOM      1  C   UNL A   1      42.894 -16.983 -39.637  0.00  0.00    +0.012 C 
ENDROOT
BRANCH   1   4
ATOM      2  C   UNL A   1      44.315 -18.231 -41.200  0.00  0.00    +0.246 C 
ATOM      3  O   UNL A   1      44.724 -17.205 -41.737  0.00  0.00    -0.270 OA
ATOM      4  N   UNL A   1      43.375 -18.235 -40.186  0.00  0.00    -0.311 N 
ATOM      5  H   UNL A   1      43.033 -19.089 -39.836  0.00  0.00    +0.000 HD
BRANCH   2  11
ATOM      6  C   UNL A   1      46.203 -19.896 -41.277  0.00  0.00    +0.044 A 
ATOM      7  C   UNL A   1      46.656 -21.182 -41.616  0.00  0.00    -0.040 A 
ATOM      8  C   UNL A   1      45.849 -22.072 -42.330  0.00  0.00    -0.060 A 
ATOM      9  C   UNL A   1      44.560 -21.701 -42.699  0.00  0.00    -0.061 A 
ATOM     10  C   UNL A   1      44.067 -20.450 -42.332  0.00  0.00    -0.048 A 
ATOM     11  C   UNL A   1      44.869 -19.557 -41.599  0.00  0.00    +0.058 A 
BRANCH   6  12
ATOM     12  N   UNL A   1      47.019 -19.031 -40.493  0.00  0.00    -0.314 N 
ATOM     13  H   UNL A   1      47.739 -18.562 -40.971  0.00  0.00    +0.000 HD
BRANCH  12  19
ATOM     14  C   UNL A   1      47.178 -15.789 -36.688  0.00  0.00    -0.039 C 
ATOM     15  C   UNL A   1      47.057 -17.185 -37.240  0.00  0.00    -0.046 A 
ATOM     16  C   UNL A   1      46.970 -18.259 -36.341  0.00  0.00    -0.058 A 
ATOM     17  C   UNL A   1      46.884 -19.568 -36.804  0.00  0.00    -0.060 A 
ATOM     18  C   UNL A   1      46.878 -19.820 -38.173  0.00  0.00    -0.040 A 
ATOM     19  C   UNL A   1      46.913 -18.768 -39.100  0.00  0.00    +0.035 A 
ATOM     20  C   UNL A   1      47.016 -17.437 -38.633  0.00  0.00    -0.026 A 
ATOM     21  C   UNL A   1      47.132 -16.303 -39.623  0.00  0.00    -0.038 C 
ENDBRANCH  12  19
ENDBRANCH   6  12
ENDBRANCH   2  11
ENDBRANCH   1   4
BRANCH   1  22
ATOM     22  C   UNL A   1      41.800 -17.214 -38.598  0.00  0.00    -0.037 C 
BRANCH  22  23
ATOM     23  C   UNL A   1      42.106 -16.569 -37.242  0.00  0.00    -0.052 C 
BRANCH  23  24
ATOM     24  C   UNL A   1      43.517 -16.881 -36.737  0.00  0.00    -0.052 C 
BRANCH  24  25
ATOM     25  C   UNL A   1      43.565 -17.442 -35.311  0.00  0.00    -0.037 C 
BRANCH  25  26
ATOM     26  C   UNL A   1      42.336 -18.253 -34.894  0.00  0.00    +0.009 C 
BRANCH  26  27
ATOM     27  N   UNL A   1      42.706 -19.646 -34.609  0.00  0.00    -0.343 N 
ATOM     28  H   UNL A   1      43.452 -19.913 -34.023  0.00  0.00    +0.000 HD
BRANCH  27  29
ATOM     29  C   UNL A   1      41.847 -20.563 -35.290  0.00  0.00    +0.041 A 
ATOM     30  C   UNL A   1      40.755 -21.114 -34.589  0.00  0.00    -0.005 A 
ATOM     31  C   UNL A   1      39.948 -22.029 -35.264  0.00  0.00    +0.047 A 
ATOM     32  N   UNL A   1      40.196 -22.445 -36.529  0.00  0.00    -0.251 NA
ATOM     33  C   UNL A   1      41.247 -21.938 -37.186  0.00  0.00    +0.073 A 
ATOM     34  C   UNL A   1      41.474 -22.384 -38.482  0.00  0.00    -0.036 A 
ATOM     35  C   UNL A   1      42.544 -21.920 -39.248  0.00  0.00    -0.060 A 
ATOM     36  C   UNL A   1      43.414 -20.984 -38.712  0.00  0.00    -0.061 A 
ATOM     37  C   UNL A   1      43.206 -20.521 -37.412  0.00  0.00    -0.051 A 
ATOM     38  C   UNL A   1      42.121 -20.987 -36.623  0.00  0.00    +0.021 A 
ATOM     39  C   UNL A   1      38.754 -22.670 -34.604  0.00  0.00    -0.010 C 
ATOM     40  C   UNL A   1      38.226 -21.873 -33.418  0.00  0.00    -0.047 C 
ATOM     41  C   UNL A   1      39.373 -21.521 -32.484  0.00  0.00    -0.049 C 
ATOM     42  C   UNL A   1      40.398 -20.641 -33.198  0.00  0.00    -0.024 C 
ENDBRANCH  27  29
ENDBRANCH  26  27
ENDBRANCH  25  26
ENDBRANCH  24  25
ENDBRANCH  23  24
ENDBRANCH  22  23
ENDBRANCH   1  22
TORSDOF 11
ENDMDL
MODEL 9
REMARK VINA RESULT:    -7.600      1.995      4.902
REMARK INTER + INTRA:         -15.637
REMARK INTER:                 -11.858
REMARK INTRA:                  -3.779
REMARK UNBOUND:                -3.150
REMARK  Name = cpd23.pdb
REMARK  13 active torsions:
REMARK  status: ('A' for Active; 'I' for Inactive)
REMARK    1  A    between atoms: C_1  and  C_2
REMARK    2  A    between atoms: C_6  and  N_7
REMARK    3  A    between atoms: N_7  and  C_8
REMARK    4  A    between atoms: C_13  and  C_14
REMARK    5  A    between atoms: N_16  and  C_17
REMARK    6  A    between atoms: C_17  and  C_18
REMARK    7  A    between atoms: C_18  and  C_19
REMARK    8  A    between atoms: C_19  and  C_20
REMARK    9  A    between atoms: C_20  and  C_21
REMARK   10  A    between atoms: C_21  and  C_22
REMARK   11  A    between atoms: C_22  and  N_23
REMARK   12  A    between atoms: N_23  and  C_24
REMARK   13  A    between atoms: C_38  and  C_39
REMARK                            x       y       z     vdW  Elec       q    Type
REMARK                         _______ _______ _______ _____ _____    ______ ____
ROOT
ATOM      1  C   UNL A   1      43.591 -16.829 -36.973  0.00  0.00    +0.012 C 
ENDROOT
BRANCH   1   4
ATOM      2  C   UNL A   1      42.014 -18.494 -37.846  0.00  0.00    +0.246 C 
ATOM      3  O   UNL A   1      41.046 -17.763 -37.651  0.00  0.00    -0.270 OA
ATOM      4  N   UNL A   1      43.308 -18.148 -37.505  0.00  0.00    -0.311 N 
ATOM      5  H   UNL A   1      44.038 -18.798 -37.623  0.00  0.00    +0.000 HD
BRANCH   2  11
ATOM      6  C   UNL A   1      41.053 -20.821 -37.924  0.00  0.00    +0.044 A 
ATOM      7  C   UNL A   1      40.861 -22.017 -38.637  0.00  0.00    -0.040 A 
ATOM      8  C   UNL A   1      41.491 -22.240 -39.865  0.00  0.00    -0.060 A 
ATOM      9  C   UNL A   1      42.311 -21.261 -40.416  0.00  0.00    -0.061 A 
ATOM     10  C   UNL A   1      42.480 -20.046 -39.754  0.00  0.00    -0.048 A 
ATOM     11  C   UNL A   1      41.834 -19.808 -38.528  0.00  0.00    +0.058 A 
BRANCH   6  12
ATOM     12  N   UNL A   1      40.349 -20.589 -36.709  0.00  0.00    -0.314 N 
ATOM     13  H   UNL A   1      39.506 -20.088 -36.784  0.00  0.00    +0.000 HD
BRANCH  12  19
ATOM     14  C   UNL A   1      39.897 -23.780 -32.885  0.00  0.00    -0.039 C 
ATOM     15  C   UNL A   1      40.447 -22.526 -33.510  0.00  0.00    -0.046 A 
ATOM     16  C   UNL A   1      41.245 -21.678 -32.727  0.00  0.00    -0.058 A 
ATOM     17  C   UNL A   1      41.752 -20.494 -33.254  0.00  0.00    -0.060 A 
ATOM     18  C   UNL A   1      41.475 -20.147 -34.573  0.00  0.00    -0.040 A 
ATOM     19  C   UNL A   1      40.724 -20.996 -35.399  0.00  0.00    +0.035 A 
ATOM     20  C   UNL A   1      40.193 -22.192 -34.863  0.00  0.00    -0.026 A 
ATOM     21  C   UNL A   1      39.320 -23.075 -35.722  0.00  0.00    -0.038 C 
ENDBRANCH  12  19
ENDBRANCH   6  12
ENDBRANCH   2  11
ENDBRANCH   1   4
BRANCH   1  22
ATOM     22  C   UNL A   1      44.165 -16.910 -35.560  0.00  0.00    -0.037 C 
BRANCH  22  23
ATOM     23  C   UNL A   1      44.543 -18.335 -35.142  0.00  0.00    -0.052 C 
BRANCH  23  24
ATOM     24  C   UNL A   1      45.964 -18.436 -34.582  0.00  0.00    -0.052 C 
BRANCH  24  25
ATOM     25  C   UNL A   1      46.745 -19.663 -35.068  0.00  0.00    -0.037 C 
BRANCH  25  26
ATOM     26  C   UNL A   1      46.320 -20.199 -36.437  0.00  0.00    +0.009 C 
BRANCH  26  27
ATOM     27  N   UNL A   1      47.415 -20.067 -37.408  0.00  0.00    -0.343 N 
ATOM     28  H   UNL A   1      48.336 -20.380 -37.253  0.00  0.00    +0.000 HD
BRANCH  27  29
ATOM     29  C   UNL A   1      46.974 -19.426 -38.607  0.00  0.00    +0.041 A 
ATOM     30  C   UNL A   1      46.651 -20.226 -39.722  0.00  0.00    -0.005 A 
ATOM     31  C   UNL A   1      46.252 -19.577 -40.890  0.00  0.00    +0.047 A 
ATOM     32  N   UNL A   1      46.212 -18.229 -41.013  0.00  0.00    -0.251 NA
ATOM     33  C   UNL A   1      46.541 -17.470 -39.961  0.00  0.00    +0.073 A 
ATOM     34  C   UNL A   1      46.489 -16.090 -40.119  0.00  0.00    -0.036 A 
ATOM     35  C   UNL A   1      46.816 -15.213 -39.084  0.00  0.00    -0.060 A 
ATOM     36  C   UNL A   1      47.205 -15.721 -37.854  0.00  0.00    -0.061 A 
ATOM     37  C   UNL A   1      47.264 -17.103 -37.672  0.00  0.00    -0.051 A 
ATOM     38  C   UNL A   1      46.935 -18.006 -38.719  0.00  0.00    +0.021 A 
ATOM     39  C   UNL A   1      45.881 -20.343 -42.135  0.00  0.00    -0.010 C 
ATOM     40  C   UNL A   1      45.478 -21.785 -41.853  0.00  0.00    -0.047 C 
ATOM     41  C   UNL A   1      46.524 -22.447 -40.970  0.00  0.00    -0.049 C 
ATOM     42  C   UNL A   1      46.621 -21.734 -39.622  0.00  0.00    -0.024 C 
ENDBRANCH  27  29
ENDBRANCH  26  27
ENDBRANCH  25  26
ENDBRANCH  24  25
ENDBRANCH  23  24
ENDBRANCH  22  23
ENDBRANCH   1  22
TORSDOF 11
ENDMDL
MODEL 10
REMARK VINA RESULT:    -7.442      2.194      7.395
REMARK INTER + INTRA:         -15.378
REMARK INTER:                 -10.362
REMARK INTRA:                  -5.016
REMARK UNBOUND:                -3.150
REMARK  Name = cpd23.pdb
REMARK  13 active torsions:
REMARK  status: ('A' for Active; 'I' for Inactive)
REMARK    1  A    between atoms: C_1  and  C_2
REMARK    2  A    between atoms: C_6  and  N_7
REMARK    3  A    between atoms: N_7  and  C_8
REMARK    4  A    between atoms: C_13  and  C_14
REMARK    5  A    between atoms: N_16  and  C_17
REMARK    6  A    between atoms: C_17  and  C_18
REMARK    7  A    between atoms: C_18  and  C_19
REMARK    8  A    between atoms: C_19  and  C_20
REMARK    9  A    between atoms: C_20  and  C_21
REMARK   10  A    between atoms: C_21  and  C_22
REMARK   11  A    between atoms: C_22  and  N_23
REMARK   12  A    between atoms: N_23  and  C_24
REMARK   13  A    between atoms: C_38  and  C_39
REMARK                            x       y       z     vdW  Elec       q    Type
REMARK                         _______ _______ _______ _____ _____    ______ ____
ROOT
ATOM      1  C   UNL A   1      42.646 -15.429 -39.948  0.00  0.00    +0.012 C 
ENDROOT
BRANCH   1   4
ATOM      2  C   UNL A   1      44.123 -16.813 -38.561  0.00  0.00    +0.246 C 
ATOM      3  O   UNL A   1      45.080 -16.062 -38.730  0.00  0.00    -0.270 OA
ATOM      4  N   UNL A   1      42.890 -16.617 -39.155  0.00  0.00    -0.311 N 
ATOM      5  H   UNL A   1      42.176 -17.286 -39.039  0.00  0.00    +0.000 HD
BRANCH   2  11
ATOM      6  C   UNL A   1      44.994 -19.114 -38.019  0.00  0.00    +0.044 A 
ATOM      7  C   UNL A   1      45.127 -20.158 -37.088  0.00  0.00    -0.040 A 
ATOM      8  C   UNL A   1      44.465 -20.124 -35.858  0.00  0.00    -0.060 A 
ATOM      9  C   UNL A   1      43.671 -19.032 -35.524  0.00  0.00    -0.061 A 
ATOM     10  C   UNL A   1      43.561 -17.959 -36.407  0.00  0.00    -0.048 A 
ATOM     11  C   UNL A   1      44.239 -17.980 -37.639  0.00  0.00    +0.058 A 
BRANCH   6  12
ATOM     12  N   UNL A   1      45.731 -19.140 -39.237  0.00  0.00    -0.314 N 
ATOM     13  H   UNL A   1      46.590 -18.660 -39.236  0.00  0.00    +0.000 HD
BRANCH  12  19
ATOM     14  C   UNL A   1      46.268 -22.937 -42.446  0.00  0.00    -0.039 C 
ATOM     15  C   UNL A   1      45.687 -21.607 -42.048  0.00  0.00    -0.046 A 
ATOM     16  C   UNL A   1      44.871 -20.928 -42.966  0.00  0.00    -0.058 A 
ATOM     17  C   UNL A   1      44.334 -19.682 -42.653  0.00  0.00    -0.060 A 
ATOM     18  C   UNL A   1      44.600 -19.104 -41.415  0.00  0.00    -0.040 A 
ATOM     19  C   UNL A   1      45.369 -19.778 -40.455  0.00  0.00    +0.035 A 
ATOM     20  C   UNL A   1      45.930 -21.036 -40.775  0.00  0.00    -0.026 A 
ATOM     21  C   UNL A   1      46.821 -21.734 -39.777  0.00  0.00    -0.038 C 
ENDBRANCH  12  19
ENDBRANCH   6  12
ENDBRANCH   2  11
ENDBRANCH   1   4
BRANCH   1  22
ATOM     22  C   UNL A   1      41.180 -15.007 -39.884  0.00  0.00    -0.037 C 
BRANCH  22  23
ATOM     23  C   UNL A   1      40.210 -16.193 -39.858  0.00  0.00    -0.052 C 
BRANCH  23  24
ATOM     24  C   UNL A   1      39.281 -16.179 -38.642  0.00  0.00    -0.052 C 
BRANCH  24  25
ATOM     25  C   UNL A   1      38.201 -17.267 -38.662  0.00  0.00    -0.037 C 
BRANCH  25  26
ATOM     26  C   UNL A   1      38.295 -18.292 -37.529  0.00  0.00    +0.009 C 
BRANCH  26  27
ATOM     27  N   UNL A   1      39.586 -18.181 -36.836  0.00  0.00    -0.343 N 
ATOM     28  H   UNL A   1      40.021 -17.328 -36.605  0.00  0.00    +0.000 HD
BRANCH  27  29
ATOM     29  C   UNL A   1      40.131 -19.469 -36.540  0.00  0.00    +0.041 A 
ATOM     30  C   UNL A   1      40.015 -19.966 -35.226  0.00  0.00    -0.005 A 
ATOM     31  C   UNL A   1      40.580 -21.211 -34.953  0.00  0.00    +0.047 A 
ATOM     32  N   UNL A   1      41.271 -21.929 -35.870  0.00  0.00    -0.251 NA
ATOM     33  C   UNL A   1      41.401 -21.446 -37.112  0.00  0.00    +0.073 A 
ATOM     34  C   UNL A   1      42.114 -22.207 -38.030  0.00  0.00    -0.036 A 
ATOM     35  C   UNL A   1      42.308 -21.788 -39.347  0.00  0.00    -0.060 A 
ATOM     36  C   UNL A   1      41.775 -20.579 -39.766  0.00  0.00    -0.061 A 
ATOM     37  C   UNL A   1      41.055 -19.798 -38.862  0.00  0.00    -0.051 A 
ATOM     38  C   UNL A   1      40.852 -20.213 -37.518  0.00  0.00    +0.021 A 
ATOM     39  C   UNL A   1      40.506 -21.832 -33.581  0.00  0.00    -0.010 C 
ATOM     40  C   UNL A   1      39.369 -21.276 -32.734  0.00  0.00    -0.047 C 
ATOM     41  C   UNL A   1      39.406 -19.756 -32.758  0.00  0.00    -0.049 C 
ATOM     42  C   UNL A   1      39.204 -19.235 -34.181  0.00  0.00    -0.024 C 
ENDBRANCH  27  29
ENDBRANCH  26  27
ENDBRANCH  25  26
ENDBRANCH  24  25
ENDBRANCH  23  24
ENDBRANCH  22  23
ENDBRANCH   1  22
TORSDOF 11
ENDMDL
MODEL 11
REMARK VINA RESULT:    -7.426     17.815     23.181
REMARK INTER + INTRA:         -15.351
REMARK INTER:                 -12.849
REMARK INTRA:                  -2.502
REMARK UNBOUND:                -3.150
REMARK  Name = cpd23.pdb
REMARK  13 active torsions:
REMARK  status: ('A' for Active; 'I' for Inactive)
REMARK    1  A    between atoms: C_1  and  C_2
REMARK    2  A    between atoms: C_6  and  N_7
REMARK    3  A    between atoms: N_7  and  C_8
REMARK    4  A    between atoms: C_13  and  C_14
REMARK    5  A    between atoms: N_16  and  C_17
REMARK    6  A    between atoms: C_17  and  C_18
REMARK    7  A    between atoms: C_18  and  C_19
REMARK    8  A    between atoms: C_19  and  C_20
REMARK    9  A    between atoms: C_20  and  C_21
REMARK   10  A    between atoms: C_21  and  C_22
REMARK   11  A    between atoms: C_22  and  N_23
REMARK   12  A    between atoms: N_23  and  C_24
REMARK   13  A    between atoms: C_38  and  C_39
REMARK                            x       y       z     vdW  Elec       q    Type
REMARK                         _______ _______ _______ _____ _____    ______ ____
ROOT
ATOM      1  C   UNL A   1      33.558 -39.407 -30.622  0.00  0.00    +0.012 C 
ENDROOT
BRANCH   1   4
ATOM      2  C   UNL A   1      34.018 -37.118 -31.378  0.00  0.00    +0.246 C 
ATOM      3  O   UNL A   1      33.912 -37.427 -32.562  0.00  0.00    -0.270 OA
ATOM      4  N   UNL A   1      33.907 -38.028 -30.343  0.00  0.00    -0.311 N 
ATOM      5  H   UNL A   1      34.065 -37.739 -29.415  0.00  0.00    +0.000 HD
BRANCH   2  11
ATOM      6  C   UNL A   1      35.522 -35.127 -31.032  0.00  0.00    +0.044 A 
ATOM      7  C   UNL A   1      35.656 -33.763 -30.722  0.00  0.00    -0.040 A 
ATOM      8  C   UNL A   1      34.562 -33.004 -30.298  0.00  0.00    -0.060 A 
ATOM      9  C   UNL A   1      33.304 -33.590 -30.197  0.00  0.00    -0.061 A 
ATOM     10  C   UNL A   1      33.133 -34.928 -30.547  0.00  0.00    -0.048 A 
ATOM     11  C   UNL A   1      34.227 -35.692 -30.991  0.00  0.00    +0.058 A 
BRANCH   6  12
ATOM     12  N   UNL A   1      36.636 -35.864 -31.525  0.00  0.00    -0.314 N 
ATOM     13  H   UNL A   1      36.676 -35.993 -32.500  0.00  0.00    +0.000 HD
BRANCH  12  19
ATOM     14  C   UNL A   1      41.478 -37.040 -31.097  0.00  0.00    -0.039 C 
ATOM     15  C   UNL A   1      40.057 -37.063 -30.601  0.00  0.00    -0.046 A 
ATOM     16  C   UNL A   1      39.764 -37.782 -29.433  0.00  0.00    -0.058 A 
ATOM     17  C   UNL A   1      38.460 -37.856 -28.952  0.00  0.00    -0.060 A 
ATOM     18  C   UNL A   1      37.434 -37.204 -29.630  0.00  0.00    -0.040 A 
ATOM     19  C   UNL A   1      37.699 -36.435 -30.772  0.00  0.00    +0.035 A 
ATOM     20  C   UNL A   1      39.020 -36.371 -31.273  0.00  0.00    -0.026 A 
ATOM     21  C   UNL A   1      39.302 -35.609 -32.545  0.00  0.00    -0.038 C 
ENDBRANCH  12  19
ENDBRANCH   6  12
ENDBRANCH   2  11
ENDBRANCH   1   4
BRANCH   1  22
ATOM     22  C   UNL A   1      34.794 -40.302 -30.637  0.00  0.00    -0.037 C 
BRANCH  22  23
ATOM     23  C   UNL A   1      35.437 -40.468 -29.256  0.00  0.00    -0.052 C 
BRANCH  23  24
ATOM     24  C   UNL A   1      35.201 -41.854 -28.649  0.00  0.00    -0.052 C 
BRANCH  24  25
ATOM     25  C   UNL A   1      34.287 -41.854 -27.419  0.00  0.00    -0.037 C 
BRANCH  25  26
ATOM     26  C   UNL A   1      34.164 -40.505 -26.705  0.00  0.00    +0.009 C 
BRANCH  26  27
ATOM     27  N   UNL A   1      33.086 -40.544 -25.707  0.00  0.00    -0.343 N 
ATOM     28  H   UNL A   1      32.464 -41.298 -25.590  0.00  0.00    +0.000 HD
BRANCH  27  29
ATOM     29  C   UNL A   1      33.056 -39.347 -24.926  0.00  0.00    +0.041 A 
ATOM     30  C   UNL A   1      32.676 -38.142 -25.552  0.00  0.00    -0.005 A 
ATOM     31  C   UNL A   1      32.683 -36.981 -24.778  0.00  0.00    +0.047 A 
ATOM     32  N   UNL A   1      33.083 -36.954 -23.485  0.00  0.00    -0.251 NA
ATOM     33  C   UNL A   1      33.465 -38.095 -22.898  0.00  0.00    +0.073 A 
ATOM     34  C   UNL A   1      33.869 -38.034 -21.570  0.00  0.00    -0.036 A 
ATOM     35  C   UNL A   1      34.289 -39.167 -20.871  0.00  0.00    -0.060 A 
ATOM     36  C   UNL A   1      34.306 -40.397 -21.509  0.00  0.00    -0.061 A 
ATOM     37  C   UNL A   1      33.905 -40.482 -22.843  0.00  0.00    -0.051 A 
ATOM     38  C   UNL A   1      33.477 -39.337 -23.565  0.00  0.00    +0.021 A 
ATOM     39  C   UNL A   1      32.289 -35.644 -25.353  0.00  0.00    -0.010 C 
ATOM     40  C   UNL A   1      31.420 -35.760 -26.598  0.00  0.00    -0.047 C 
ATOM     41  C   UNL A   1      32.059 -36.727 -27.583  0.00  0.00    -0.049 C 
ATOM     42  C   UNL A   1      32.164 -38.125 -26.974  0.00  0.00    -0.024 C 
ENDBRANCH  27  29
ENDBRANCH  26  27
ENDBRANCH  25  26
ENDBRANCH  24  25
ENDBRANCH  23  24
ENDBRANCH  22  23
ENDBRANCH   1  22
TORSDOF 11
ENDMDL
MODEL 12
REMARK VINA RESULT:    -7.361      2.211      7.742
REMARK INTER + INTRA:         -15.244
REMARK INTER:                 -10.385
REMARK INTRA:                  -4.858
REMARK UNBOUND:                -3.150
REMARK  Name = cpd23.pdb
REMARK  13 active torsions:
REMARK  status: ('A' for Active; 'I' for Inactive)
REMARK    1  A    between atoms: C_1  and  C_2
REMARK    2  A    between atoms: C_6  and  N_7
REMARK    3  A    between atoms: N_7  and  C_8
REMARK    4  A    between atoms: C_13  and  C_14
REMARK    5  A    between atoms: N_16  and  C_17
REMARK    6  A    between atoms: C_17  and  C_18
REMARK    7  A    between atoms: C_18  and  C_19
REMARK    8  A    between atoms: C_19  and  C_20
REMARK    9  A    between atoms: C_20  and  C_21
REMARK   10  A    between atoms: C_21  and  C_22
REMARK   11  A    between atoms: C_22  and  N_23
REMARK   12  A    between atoms: N_23  and  C_24
REMARK   13  A    between atoms: C_38  and  C_39
REMARK                            x       y       z     vdW  Elec       q    Type
REMARK                         _______ _______ _______ _____ _____    ______ ____
ROOT
ATOM      1  C   UNL A   1      42.734 -15.254 -39.919  0.00  0.00    +0.012 C 
ENDROOT
BRANCH   1   4
ATOM      2  C   UNL A   1      44.181 -16.854 -38.750  0.00  0.00    +0.246 C 
ATOM      3  O   UNL A   1      45.205 -16.295 -39.133  0.00  0.00    -0.270 OA
ATOM      4  N   UNL A   1      42.911 -16.449 -39.117  0.00  0.00    -0.311 N 
ATOM      5  H   UNL A   1      42.127 -16.972 -38.835  0.00  0.00    +0.000 HD
BRANCH   2  11
ATOM      6  C   UNL A   1      45.008 -19.155 -38.141  0.00  0.00    +0.044 A 
ATOM      7  C   UNL A   1      45.110 -20.180 -37.185  0.00  0.00    -0.040 A 
ATOM      8  C   UNL A   1      44.426 -20.109 -35.968  0.00  0.00    -0.060 A 
ATOM      9  C   UNL A   1      43.644 -18.998 -35.673  0.00  0.00    -0.061 A 
ATOM     10  C   UNL A   1      43.565 -17.943 -36.582  0.00  0.00    -0.048 A 
ATOM     11  C   UNL A   1      44.264 -18.002 -37.800  0.00  0.00    +0.058 A 
BRANCH   6  12
ATOM     12  N   UNL A   1      45.765 -19.218 -39.345  0.00  0.00    -0.314 N 
ATOM     13  H   UNL A   1      46.625 -18.740 -39.345  0.00  0.00    +0.000 HD
BRANCH  12  19
ATOM     14  C   UNL A   1      46.458 -23.037 -42.500  0.00  0.00    -0.039 C 
ATOM     15  C   UNL A   1      45.815 -21.730 -42.117  0.00  0.00    -0.046 A 
ATOM     16  C   UNL A   1      44.958 -21.107 -43.037  0.00  0.00    -0.058 A 
ATOM     17  C   UNL A   1      44.364 -19.884 -42.738  0.00  0.00    -0.060 A 
ATOM     18  C   UNL A   1      44.612 -19.274 -41.512  0.00  0.00    -0.040 A 
ATOM     19  C   UNL A   1      45.423 -19.893 -40.549  0.00  0.00    +0.035 A 
ATOM     20  C   UNL A   1      46.042 -21.128 -40.856  0.00  0.00    -0.026 A 
ATOM     21  C   UNL A   1      46.978 -21.764 -39.856  0.00  0.00    -0.038 C 
ENDBRANCH  12  19
ENDBRANCH   6  12
ENDBRANCH   2  11
ENDBRANCH   1   4
BRANCH   1  22
ATOM     22  C   UNL A   1      41.256 -14.909 -40.085  0.00  0.00    -0.037 C 
BRANCH  22  23
ATOM     23  C   UNL A   1      40.333 -16.125 -39.954  0.00  0.00    -0.052 C 
BRANCH  23  24
ATOM     24  C   UNL A   1      39.431 -16.061 -38.719  0.00  0.00    -0.052 C 
BRANCH  24  25
ATOM     25  C   UNL A   1      38.352 -17.149 -38.670  0.00  0.00    -0.037 C 
BRANCH  25  26
ATOM     26  C   UNL A   1      38.482 -18.136 -37.506  0.00  0.00    +0.009 C 
BRANCH  26  27
ATOM     27  N   UNL A   1      39.844 -18.111 -36.956  0.00  0.00    -0.343 N 
ATOM     28  H   UNL A   1      40.385 -17.295 -36.846  0.00  0.00    +0.000 HD
BRANCH  27  29
ATOM     29  C   UNL A   1      40.286 -19.424 -36.601  0.00  0.00    +0.041 A 
ATOM     30  C   UNL A   1      40.884 -20.227 -37.593  0.00  0.00    -0.005 A 
ATOM     31  C   UNL A   1      41.280 -21.514 -37.232  0.00  0.00    +0.047 A 
ATOM     32  N   UNL A   1      41.070 -22.037 -36.001  0.00  0.00    -0.251 NA
ATOM     33  C   UNL A   1      40.480 -21.281 -35.065  0.00  0.00    +0.073 A 
ATOM     34  C   UNL A   1      40.279 -21.846 -33.812  0.00  0.00    -0.036 A 
ATOM     35  C   UNL A   1      39.671 -21.142 -32.772  0.00  0.00    -0.060 A 
ATOM     36  C   UNL A   1      39.251 -19.838 -32.982  0.00  0.00    -0.061 A 
ATOM     37  C   UNL A   1      39.442 -19.250 -34.233  0.00  0.00    -0.051 A 
ATOM     38  C   UNL A   1      40.059 -19.957 -35.299  0.00  0.00    +0.021 A 
ATOM     39  C   UNL A   1      41.933 -22.449 -38.218  0.00  0.00    -0.010 C 
ATOM     40  C   UNL A   1      42.575 -21.724 -39.395  0.00  0.00    -0.047 C 
ATOM     41  C   UNL A   1      41.585 -20.737 -39.992  0.00  0.00    -0.049 C 
ATOM     42  C   UNL A   1      41.197 -19.674 -38.965  0.00  0.00    -0.024 C 
ENDBRANCH  27  29
ENDBRANCH  26  27
ENDBRANCH  25  26
ENDBRANCH  24  25
ENDBRANCH  23  24
ENDBRANCH  22  23
ENDBRANCH   1  22
TORSDOF 11
ENDMDL
MODEL 13
REMARK VINA RESULT:    -7.318      2.213      7.266
REMARK INTER + INTRA:         -15.174
REMARK INTER:                 -10.548
REMARK INTRA:                  -4.625
REMARK UNBOUND:                -3.150
REMARK  Name = cpd23.pdb
REMARK  13 active torsions:
REMARK  status: ('A' for Active; 'I' for Inactive)
REMARK    1  A    between atoms: C_1  and  C_2
REMARK    2  A    between atoms: C_6  and  N_7
REMARK    3  A    between atoms: N_7  and  C_8
REMARK    4  A    between atoms: C_13  and  C_14
REMARK    5  A    between atoms: N_16  and  C_17
REMARK    6  A    between atoms: C_17  and  C_18
REMARK    7  A    between atoms: C_18  and  C_19
REMARK    8  A    between atoms: C_19  and  C_20
REMARK    9  A    between atoms: C_20  and  C_21
REMARK   10  A    between atoms: C_21  and  C_22
REMARK   11  A    between atoms: C_22  and  N_23
REMARK   12  A    between atoms: N_23  and  C_24
REMARK   13  A    between atoms: C_38  and  C_39
REMARK                            x       y       z     vdW  Elec       q    Type
REMARK                         _______ _______ _______ _____ _____    ______ ____
ROOT
ATOM      1  C   UNL A   1      43.925 -15.788 -39.887  0.00  0.00    +0.012 C 
ENDROOT
BRANCH   1   4
ATOM      2  C   UNL A   1      45.215 -17.755 -40.587  0.00  0.00    +0.246 C 
ATOM      3  O   UNL A   1      46.288 -17.175 -40.437  0.00  0.00    -0.270 OA
ATOM      4  N   UNL A   1      43.989 -17.147 -40.387  0.00  0.00    -0.311 N 
ATOM      5  H   UNL A   1      43.159 -17.638 -40.585  0.00  0.00    +0.000 HD
BRANCH   2  11
ATOM      6  C   UNL A   1      45.789 -20.160 -40.106  0.00  0.00    +0.044 A 
ATOM      7  C   UNL A   1      45.680 -21.514 -40.464  0.00  0.00    -0.040 A 
ATOM      8  C   UNL A   1      45.077 -21.903 -41.663  0.00  0.00    -0.060 A 
ATOM      9  C   UNL A   1      44.550 -20.943 -42.521  0.00  0.00    -0.061 A 
ATOM     10  C   UNL A   1      44.600 -19.595 -42.168  0.00  0.00    -0.048 A 
ATOM     11  C   UNL A   1      45.189 -19.200 -40.954  0.00  0.00    +0.058 A 
BRANCH   6  12
ATOM     12  N   UNL A   1      46.348 -19.792 -38.849  0.00  0.00    -0.314 N 
ATOM     13  H   UNL A   1      47.317 -19.626 -38.836  0.00  0.00    +0.000 HD
BRANCH  12  19
ATOM     14  C   UNL A   1      46.119 -17.796 -34.270  0.00  0.00    -0.039 C 
ATOM     15  C   UNL A   1      45.598 -18.707 -35.349  0.00  0.00    -0.046 A 
ATOM     16  C   UNL A   1      44.487 -19.518 -35.067  0.00  0.00    -0.058 A 
ATOM     17  C   UNL A   1      43.988 -20.396 -36.024  0.00  0.00    -0.060 A 
ATOM     18  C   UNL A   1      44.588 -20.469 -37.278  0.00  0.00    -0.040 A 
ATOM     19  C   UNL A   1      45.667 -19.638 -37.611  0.00  0.00    +0.035 A 
ATOM     20  C   UNL A   1      46.188 -18.755 -36.635  0.00  0.00    -0.026 A 
ATOM     21  C   UNL A   1      47.397 -17.912 -36.959  0.00  0.00    -0.038 C 
ENDBRANCH  12  19
ENDBRANCH   6  12
ENDBRANCH   2  11
ENDBRANCH   1   4
BRANCH   1  22
ATOM     22  C   UNL A   1      43.067 -15.698 -38.628  0.00  0.00    -0.037 C 
BRANCH  22  23
ATOM     23  C   UNL A   1      43.860 -15.927 -37.337  0.00  0.00    -0.052 C 
BRANCH  23  24
ATOM     24  C   UNL A   1      43.004 -16.497 -36.203  0.00  0.00    -0.052 C 
BRANCH  24  25
ATOM     25  C   UNL A   1      41.763 -17.264 -36.675  0.00  0.00    -0.037 C 
BRANCH  25  26
ATOM     26  C   UNL A   1      40.979 -17.971 -35.566  0.00  0.00    +0.009 C 
BRANCH  26  27
ATOM     27  N   UNL A   1      39.930 -18.825 -36.138  0.00  0.00    -0.343 N 
ATOM     28  H   UNL A   1      39.065 -18.494 -36.473  0.00  0.00    +0.000 HD
BRANCH  27  29
ATOM     29  C   UNL A   1      40.323 -20.200 -36.145  0.00  0.00    +0.041 A 
ATOM     30  C   UNL A   1      40.668 -20.798 -37.373  0.00  0.00    -0.005 A 
ATOM     31  C   UNL A   1      41.020 -22.147 -37.360  0.00  0.00    +0.047 A 
ATOM     32  N   UNL A   1      40.993 -22.910 -36.241  0.00  0.00    -0.251 NA
ATOM     33  C   UNL A   1      40.642 -22.347 -35.079  0.00  0.00    +0.073 A 
ATOM     34  C   UNL A   1      40.625 -23.155 -33.949  0.00  0.00    -0.036 A 
ATOM     35  C   UNL A   1      40.270 -22.664 -32.692  0.00  0.00    -0.060 A 
ATOM     36  C   UNL A   1      39.924 -21.330 -32.552  0.00  0.00    -0.061 A 
ATOM     37  C   UNL A   1      39.934 -20.498 -33.672  0.00  0.00    -0.051 A 
ATOM     38  C   UNL A   1      40.292 -20.987 -34.957  0.00  0.00    +0.021 A 
ATOM     39  C   UNL A   1      41.410 -22.877 -38.620  0.00  0.00    -0.010 C 
ATOM     40  C   UNL A   1      41.886 -21.946 -39.728  0.00  0.00    -0.047 C 
ATOM     41  C   UNL A   1      40.885 -20.816 -39.915  0.00  0.00    -0.049 C 
ATOM     42  C   UNL A   1      40.773 -19.980 -38.640  0.00  0.00    -0.024 C 
ENDBRANCH  27  29
ENDBRANCH  26  27
ENDBRANCH  25  26
ENDBRANCH  24  25
ENDBRANCH  23  24
ENDBRANCH  22  23
ENDBRANCH   1  22
TORSDOF 11
ENDMDL
MODEL 14
REMARK VINA RESULT:    -7.208      1.956      5.265
REMARK INTER + INTRA:         -14.993
REMARK INTER:                 -11.951
REMARK INTRA:                  -3.042
REMARK UNBOUND:                -3.150
REMARK  Name = cpd23.pdb
REMARK  13 active torsions:
REMARK  status: ('A' for Active; 'I' for Inactive)
REMARK    1  A    between atoms: C_1  and  C_2
REMARK    2  A    between atoms: C_6  and  N_7
REMARK    3  A    between atoms: N_7  and  C_8
REMARK    4  A    between atoms: C_13  and  C_14
REMARK    5  A    between atoms: N_16  and  C_17
REMARK    6  A    between atoms: C_17  and  C_18
REMARK    7  A    between atoms: C_18  and  C_19
REMARK    8  A    between atoms: C_19  and  C_20
REMARK    9  A    between atoms: C_20  and  C_21
REMARK   10  A    between atoms: C_21  and  C_22
REMARK   11  A    between atoms: C_22  and  N_23
REMARK   12  A    between atoms: N_23  and  C_24
REMARK   13  A    between atoms: C_38  and  C_39
REMARK                            x       y       z     vdW  Elec       q    Type
REMARK                         _______ _______ _______ _____ _____    ______ ____
ROOT
ATOM      1  C   UNL A   1      46.043 -18.790 -34.470  0.00  0.00    +0.012 C 
ENDROOT
BRANCH   1   4
ATOM      2  C   UNL A   1      44.226 -18.147 -32.951  0.00  0.00    +0.246 C 
ATOM      3  O   UNL A   1      44.948 -18.228 -31.961  0.00  0.00    -0.270 OA
ATOM      4  N   UNL A   1      44.655 -18.447 -34.231  0.00  0.00    -0.311 N 
ATOM      5  H   UNL A   1      44.017 -18.428 -34.980  0.00  0.00    +0.000 HD
BRANCH   2  11
ATOM      6  C   UNL A   1      41.746 -18.571 -32.843  0.00  0.00    +0.044 A 
ATOM      7  C   UNL A   1      40.449 -18.065 -32.647  0.00  0.00    -0.040 A 
ATOM      8  C   UNL A   1      40.215 -16.693 -32.520  0.00  0.00    -0.060 A 
ATOM      9  C   UNL A   1      41.279 -15.798 -32.564  0.00  0.00    -0.061 A 
ATOM     10  C   UNL A   1      42.581 -16.276 -32.707  0.00  0.00    -0.048 A 
ATOM     11  C   UNL A   1      42.824 -17.656 -32.818  0.00  0.00    +0.058 A 
BRANCH   6  12
ATOM     12  N   UNL A   1      41.967 -19.976 -32.904  0.00  0.00    -0.314 N 
ATOM     13  H   UNL A   1      42.862 -20.287 -32.638  0.00  0.00    +0.000 HD
BRANCH  12  19
ATOM     14  C   UNL A   1      39.970 -22.816 -36.504  0.00  0.00    -0.039 C 
ATOM     15  C   UNL A   1      40.031 -22.320 -35.084  0.00  0.00    -0.046 A 
ATOM     16  C   UNL A   1      39.065 -22.771 -34.171  0.00  0.00    -0.058 A 
ATOM     17  C   UNL A   1      39.064 -22.318 -32.855  0.00  0.00    -0.060 A 
ATOM     18  C   UNL A   1      40.035 -21.414 -32.433  0.00  0.00    -0.040 A 
ATOM     19  C   UNL A   1      41.045 -20.982 -33.304  0.00  0.00    +0.035 A 
ATOM     20  C   UNL A   1      41.039 -21.427 -34.647  0.00  0.00    -0.026 A 
ATOM     21  C   UNL A   1      42.078 -20.907 -35.612  0.00  0.00    -0.038 C 
ENDBRANCH  12  19
ENDBRANCH   6  12
ENDBRANCH   2  11
ENDBRANCH   1   4
BRANCH   1  22
ATOM     22  C   UNL A   1      46.167 -20.035 -35.344  0.00  0.00    -0.037 C 
BRANCH  22  23
ATOM     23  C   UNL A   1      46.208 -19.720 -36.843  0.00  0.00    -0.052 C 
BRANCH  23  24
ATOM     24  C   UNL A   1      47.165 -18.576 -37.188  0.00  0.00    -0.052 C 
BRANCH  24  25
ATOM     25  C   UNL A   1      46.485 -17.357 -37.822  0.00  0.00    -0.037 C 
BRANCH  25  26
ATOM     26  C   UNL A   1      44.974 -17.493 -38.027  0.00  0.00    +0.009 C 
BRANCH  26  27
ATOM     27  N   UNL A   1      44.648 -17.548 -39.458  0.00  0.00    -0.343 N 
ATOM     28  H   UNL A   1      44.720 -16.783 -40.074  0.00  0.00    +0.000 HD
BRANCH  27  29
ATOM     29  C   UNL A   1      44.212 -18.854 -39.844  0.00  0.00    +0.041 A 
ATOM     30  C   UNL A   1      45.082 -19.659 -40.606  0.00  0.00    -0.005 A 
ATOM     31  C   UNL A   1      44.624 -20.918 -40.996  0.00  0.00    +0.047 A 
ATOM     32  N   UNL A   1      43.378 -21.371 -40.722  0.00  0.00    -0.251 NA
ATOM     33  C   UNL A   1      42.544 -20.596 -40.018  0.00  0.00    +0.073 A 
ATOM     34  C   UNL A   1      41.272 -21.089 -39.752  0.00  0.00    -0.036 A 
ATOM     35  C   UNL A   1      40.329 -20.357 -39.030  0.00  0.00    -0.060 A 
ATOM     36  C   UNL A   1      40.659 -19.098 -38.555  0.00  0.00    -0.061 A 
ATOM     37  C   UNL A   1      41.930 -18.581 -38.809  0.00  0.00    -0.051 A 
ATOM     38  C   UNL A   1      42.898 -19.316 -39.544  0.00  0.00    +0.021 A 
ATOM     39  C   UNL A   1      45.480 -21.855 -41.808  0.00  0.00    -0.010 C 
ATOM     40  C   UNL A   1      46.969 -21.555 -41.698  0.00  0.00    -0.047 C 
ATOM     41  C   UNL A   1      47.214 -20.074 -41.944  0.00  0.00    -0.049 C 
ATOM     42  C   UNL A   1      46.503 -19.228 -40.888  0.00  0.00    -0.024 C 
ENDBRANCH  27  29
ENDBRANCH  26  27
ENDBRANCH  25  26
ENDBRANCH  24  25
ENDBRANCH  23  24
ENDBRANCH  22  23
ENDBRANCH   1  22
TORSDOF 11
ENDMDL
MODEL 15
REMARK VINA RESULT:    -7.201      2.424      7.309
REMARK INTER + INTRA:         -14.981
REMARK INTER:                 -10.732
REMARK INTRA:                  -4.248
REMARK UNBOUND:                -3.150
REMARK  Name = cpd23.pdb
REMARK  13 active torsions:
REMARK  status: ('A' for Active; 'I' for Inactive)
REMARK    1  A    between atoms: C_1  and  C_2
REMARK    2  A    between atoms: C_6  and  N_7
REMARK    3  A    between atoms: N_7  and  C_8
REMARK    4  A    between atoms: C_13  and  C_14
REMARK    5  A    between atoms: N_16  and  C_17
REMARK    6  A    between atoms: C_17  and  C_18
REMARK    7  A    between atoms: C_18  and  C_19
REMARK    8  A    between atoms: C_19  and  C_20
REMARK    9  A    between atoms: C_20  and  C_21
REMARK   10  A    between atoms: C_21  and  C_22
REMARK   11  A    between atoms: C_22  and  N_23
REMARK   12  A    between atoms: N_23  and  C_24
REMARK   13  A    between atoms: C_38  and  C_39
REMARK                            x       y       z     vdW  Elec       q    Type
REMARK                         _______ _______ _______ _____ _____    ______ ____
ROOT
ATOM      1  C   UNL A   1      42.062 -20.210 -36.661  0.00  0.00    +0.012 C 
ENDROOT
BRANCH   1   4
ATOM      2  C   UNL A   1      43.977 -19.464 -38.002  0.00  0.00    +0.246 C 
ATOM      3  O   UNL A   1      44.562 -20.536 -37.867  0.00  0.00    -0.270 OA
ATOM      4  N   UNL A   1      42.759 -19.183 -37.409  0.00  0.00    -0.311 N 
ATOM      5  H   UNL A   1      42.366 -18.285 -37.496  0.00  0.00    +0.000 HD
BRANCH   2  11
ATOM      6  C   UNL A   1      45.682 -18.679 -39.681  0.00  0.00    +0.044 A 
ATOM      7  C   UNL A   1      46.143 -17.666 -40.539  0.00  0.00    -0.040 A 
ATOM      8  C   UNL A   1      45.562 -16.395 -40.542  0.00  0.00    -0.060 A 
ATOM      9  C   UNL A   1      44.491 -16.117 -39.700  0.00  0.00    -0.061 A 
ATOM     10  C   UNL A   1      43.981 -17.117 -38.874  0.00  0.00    -0.048 A 
ATOM     11  C   UNL A   1      44.550 -18.403 -38.880  0.00  0.00    +0.058 A 
BRANCH   6  12
ATOM     12  N   UNL A   1      46.247 -19.984 -39.743  0.00  0.00    -0.314 N 
ATOM     13  H   UNL A   1      46.824 -20.245 -38.990  0.00  0.00    +0.000 HD
BRANCH  12  19
ATOM     14  C   UNL A   1      47.970 -23.930 -42.286  0.00  0.00    -0.039 C 
ATOM     15  C   UNL A   1      46.954 -22.845 -42.046  0.00  0.00    -0.046 A 
ATOM     16  C   UNL A   1      45.881 -22.718 -42.942  0.00  0.00    -0.058 A 
ATOM     17  C   UNL A   1      44.933 -21.713 -42.776  0.00  0.00    -0.060 A 
ATOM     18  C   UNL A   1      45.042 -20.826 -41.709  0.00  0.00    -0.040 A 
ATOM     19  C   UNL A   1      46.073 -20.956 -40.766  0.00  0.00    +0.035 A 
ATOM     20  C   UNL A   1      47.048 -21.966 -40.940  0.00  0.00    -0.026 A 
ATOM     21  C   UNL A   1      48.204 -22.065 -39.974  0.00  0.00    -0.038 C 
ENDBRANCH  12  19
ENDBRANCH   6  12
ENDBRANCH   2  11
ENDBRANCH   1   4
BRANCH   1  22
ATOM     22  C   UNL A   1      41.973 -19.855 -35.179  0.00  0.00    -0.037 C 
BRANCH  22  23
ATOM     23  C   UNL A   1      40.673 -19.135 -34.806  0.00  0.00    -0.052 C 
BRANCH  23  24
ATOM     24  C   UNL A   1      40.755 -17.618 -34.989  0.00  0.00    -0.052 C 
BRANCH  24  25
ATOM     25  C   UNL A   1      41.995 -16.974 -34.356  0.00  0.00    -0.037 C 
BRANCH  25  26
ATOM     26  C   UNL A   1      42.933 -16.273 -35.342  0.00  0.00    +0.009 C 
BRANCH  26  27
ATOM     27  N   UNL A   1      44.186 -15.887 -34.679  0.00  0.00    -0.343 N 
ATOM     28  H   UNL A   1      44.235 -15.393 -33.828  0.00  0.00    +0.000 HD
BRANCH  27  29
ATOM     29  C   UNL A   1      45.325 -16.319 -35.426  0.00  0.00    +0.041 A 
ATOM     30  C   UNL A   1      45.946 -15.405 -36.301  0.00  0.00    -0.005 A 
ATOM     31  C   UNL A   1      47.038 -15.857 -37.042  0.00  0.00    +0.047 A 
ATOM     32  N   UNL A   1      47.487 -17.134 -36.996  0.00  0.00    -0.251 NA
ATOM     33  C   UNL A   1      46.882 -18.008 -36.182  0.00  0.00    +0.073 A 
ATOM     34  C   UNL A   1      47.367 -19.309 -36.157  0.00  0.00    -0.036 A 
ATOM     35  C   UNL A   1      46.803 -20.295 -35.345  0.00  0.00    -0.060 A 
ATOM     36  C   UNL A   1      45.727 -19.977 -34.533  0.00  0.00    -0.061 A 
ATOM     37  C   UNL A   1      45.222 -18.677 -34.541  0.00  0.00    -0.051 A 
ATOM     38  C   UNL A   1      45.787 -17.666 -35.363  0.00  0.00    +0.021 A 
ATOM     39  C   UNL A   1      47.773 -14.956 -38.001  0.00  0.00    -0.010 C 
ATOM     40  C   UNL A   1      47.581 -13.475 -37.697  0.00  0.00    -0.047 C 
ATOM     41  C   UNL A   1      46.101 -13.173 -37.526  0.00  0.00    -0.049 C 
ATOM     42  C   UNL A   1      45.524 -13.954 -36.346  0.00  0.00    -0.024 C 
ENDBRANCH  27  29
ENDBRANCH  26  27
ENDBRANCH  25  26
ENDBRANCH  24  25
ENDBRANCH  23  24
ENDBRANCH  22  23
ENDBRANCH   1  22
TORSDOF 11
ENDMDL
MODEL 16
REMARK VINA RESULT:    -7.154      2.460      7.728
REMARK INTER + INTRA:         -14.905
REMARK INTER:                 -10.275
REMARK INTRA:                  -4.630
REMARK UNBOUND:                -3.150
REMARK  Name = cpd23.pdb
REMARK  13 active torsions:
REMARK  status: ('A' for Active; 'I' for Inactive)
REMARK    1  A    between atoms: C_1  and  C_2
REMARK    2  A    between atoms: C_6  and  N_7
REMARK    3  A    between atoms: N_7  and  C_8
REMARK    4  A    between atoms: C_13  and  C_14
REMARK    5  A    between atoms: N_16  and  C_17
REMARK    6  A    between atoms: C_17  and  C_18
REMARK    7  A    between atoms: C_18  and  C_19
REMARK    8  A    between atoms: C_19  and  C_20
REMARK    9  A    between atoms: C_20  and  C_21
REMARK   10  A    between atoms: C_21  and  C_22
REMARK   11  A    between atoms: C_22  and  N_23
REMARK   12  A    between atoms: N_23  and  C_24
REMARK   13  A    between atoms: C_38  and  C_39
REMARK                            x       y       z     vdW  Elec       q    Type
REMARK                         _______ _______ _______ _____ _____    ______ ____
ROOT
ATOM      1  C   UNL A   1      45.360 -17.625 -35.919  0.00  0.00    +0.012 C 
ENDROOT
BRANCH   1   4
ATOM      2  C   UNL A   1      46.510 -18.693 -37.805  0.00  0.00    +0.246 C 
ATOM      3  O   UNL A   1      47.581 -18.157 -37.529  0.00  0.00    -0.270 OA
ATOM      4  N   UNL A   1      45.342 -18.462 -37.102  0.00  0.00    -0.311 N 
ATOM      5  H   UNL A   1      44.498 -18.866 -37.406  0.00  0.00    +0.000 HD
BRANCH   2  11
ATOM      6  C   UNL A   1      46.505 -19.255 -40.261  0.00  0.00    +0.044 A 
ATOM      7  C   UNL A   1      46.494 -20.235 -41.267  0.00  0.00    -0.040 A 
ATOM      8  C   UNL A   1      46.328 -21.589 -40.962  0.00  0.00    -0.060 A 
ATOM      9  C   UNL A   1      46.192 -21.993 -39.638  0.00  0.00    -0.061 A 
ATOM     10  C   UNL A   1      46.249 -21.047 -38.615  0.00  0.00    -0.048 A 
ATOM     11  C   UNL A   1      46.433 -19.686 -38.916  0.00  0.00    +0.058 A 
BRANCH   6  12
ATOM     12  N   UNL A   1      46.741 -17.890 -40.590  0.00  0.00    -0.314 N 
ATOM     13  H   UNL A   1      47.683 -17.618 -40.667  0.00  0.00    +0.000 HD
BRANCH  12  19
ATOM     14  C   UNL A   1      45.234 -13.155 -40.025  0.00  0.00    -0.039 C 
ATOM     15  C   UNL A   1      45.016 -14.573 -40.483  0.00  0.00    -0.046 A 
ATOM     16  C   UNL A   1      43.771 -14.919 -41.031  0.00  0.00    -0.058 A 
ATOM     17  C   UNL A   1      43.514 -16.223 -41.442  0.00  0.00    -0.060 A 
ATOM     18  C   UNL A   1      44.501 -17.197 -41.317  0.00  0.00    -0.040 A 
ATOM     19  C   UNL A   1      45.773 -16.874 -40.820  0.00  0.00    +0.035 A 
ATOM     20  C   UNL A   1      46.033 -15.553 -40.387  0.00  0.00    -0.026 A 
ATOM     21  C   UNL A   1      47.373 -15.215 -39.780  0.00  0.00    -0.038 C 
ENDBRANCH  12  19
ENDBRANCH   6  12
ENDBRANCH   2  11
ENDBRANCH   1   4
BRANCH   1  22
ATOM     22  C   UNL A   1      44.681 -16.283 -36.176  0.00  0.00    -0.037 C 
BRANCH  22  23
ATOM     23  C   UNL A   1      43.840 -16.266 -37.456  0.00  0.00    -0.052 C 
BRANCH  23  24
ATOM     24  C   UNL A   1      42.377 -15.890 -37.206  0.00  0.00    -0.052 C 
BRANCH  24  25
ATOM     25  C   UNL A   1      41.756 -16.565 -35.978  0.00  0.00    -0.037 C 
BRANCH  25  26
ATOM     26  C   UNL A   1      41.056 -17.898 -36.258  0.00  0.00    +0.009 C 
BRANCH  26  27
ATOM     27  N   UNL A   1      41.944 -19.025 -35.942  0.00  0.00    -0.343 N 
ATOM     28  H   UNL A   1      42.771 -18.949 -35.412  0.00  0.00    +0.000 HD
BRANCH  27  29
ATOM     29  C   UNL A   1      41.455 -20.246 -36.502  0.00  0.00    +0.041 A 
ATOM     30  C   UNL A   1      40.689 -21.104 -35.688  0.00  0.00    -0.005 A 
ATOM     31  C   UNL A   1      40.248 -22.304 -36.246  0.00  0.00    +0.047 A 
ATOM     32  N   UNL A   1      40.564 -22.697 -37.503  0.00  0.00    -0.251 NA
ATOM     33  C   UNL A   1      41.312 -21.892 -38.268  0.00  0.00    +0.073 A 
ATOM     34  C   UNL A   1      41.618 -22.324 -39.553  0.00  0.00    -0.036 A 
ATOM     35  C   UNL A   1      42.393 -21.559 -40.426  0.00  0.00    -0.060 A 
ATOM     36  C   UNL A   1      42.876 -20.328 -40.012  0.00  0.00    -0.061 A 
ATOM     37  C   UNL A   1      42.582 -19.874 -38.726  0.00  0.00    -0.051 A 
ATOM     38  C   UNL A   1      41.795 -20.643 -37.828  0.00  0.00    +0.021 A 
ATOM     39  C   UNL A   1      39.419 -23.286 -35.459  0.00  0.00    -0.010 C 
ATOM     40  C   UNL A   1      38.696 -22.650 -34.279  0.00  0.00    -0.047 C 
ATOM     41  C   UNL A   1      39.677 -21.825 -33.460  0.00  0.00    -0.049 C 
ATOM     42  C   UNL A   1      40.257 -20.688 -34.300  0.00  0.00    -0.024 C 
ENDBRANCH  27  29
ENDBRANCH  26  27
ENDBRANCH  25  26
ENDBRANCH  24  25
ENDBRANCH  23  24
ENDBRANCH  22  23
ENDBRANCH   1  22
TORSDOF 11
ENDMDL
MODEL 17
REMARK VINA RESULT:    -7.088      2.184      7.924
REMARK INTER + INTRA:         -14.795
REMARK INTER:                 -11.031
REMARK INTRA:                  -3.764
REMARK UNBOUND:                -3.150
REMARK  Name = cpd23.pdb
REMARK  13 active torsions:
REMARK  status: ('A' for Active; 'I' for Inactive)
REMARK    1  A    between atoms: C_1  and  C_2
REMARK    2  A    between atoms: C_6  and  N_7
REMARK    3  A    between atoms: N_7  and  C_8
REMARK    4  A    between atoms: C_13  and  C_14
REMARK    5  A    between atoms: N_16  and  C_17
REMARK    6  A    between atoms: C_17  and  C_18
REMARK    7  A    between atoms: C_18  and  C_19
REMARK    8  A    between atoms: C_19  and  C_20
REMARK    9  A    between atoms: C_20  and  C_21
REMARK   10  A    between atoms: C_21  and  C_22
REMARK   11  A    between atoms: C_22  and  N_23
REMARK   12  A    between atoms: N_23  and  C_24
REMARK   13  A    between atoms: C_38  and  C_39
REMARK                            x       y       z     vdW  Elec       q    Type
REMARK                         _______ _______ _______ _____ _____    ______ ____
ROOT
ATOM      1  C   UNL A   1      41.987 -17.115 -38.487  0.00  0.00    +0.012 C 
ENDROOT
BRANCH   1   4
ATOM      2  C   UNL A   1      44.397 -17.574 -38.417  0.00  0.00    +0.246 C 
ATOM      3  O   UNL A   1      44.513 -17.453 -39.633  0.00  0.00    -0.270 OA
ATOM      4  N   UNL A   1      43.187 -17.472 -37.756  0.00  0.00    -0.311 N 
ATOM      5  H   UNL A   1      43.139 -17.644 -36.787  0.00  0.00    +0.000 HD
BRANCH   2  11
ATOM      6  C   UNL A   1      46.126 -19.096 -37.399  0.00  0.00    +0.044 A 
ATOM      7  C   UNL A   1      47.302 -19.241 -36.642  0.00  0.00    -0.040 A 
ATOM      8  C   UNL A   1      47.891 -18.149 -35.999  0.00  0.00    -0.060 A 
ATOM      9  C   UNL A   1      47.327 -16.883 -36.118  0.00  0.00    -0.061 A 
ATOM     10  C   UNL A   1      46.189 -16.702 -36.903  0.00  0.00    -0.048 A 
ATOM     11  C   UNL A   1      45.603 -17.794 -37.567  0.00  0.00    +0.058 A 
BRANCH   6  12
ATOM     12  N   UNL A   1      45.582 -20.210 -38.099  0.00  0.00    -0.314 N 
ATOM     13  H   UNL A   1      44.823 -20.665 -37.669  0.00  0.00    +0.000 HD
BRANCH  12  19
ATOM     14  C   UNL A   1      44.466 -22.035 -42.619  0.00  0.00    -0.039 C 
ATOM     15  C   UNL A   1      45.448 -21.692 -41.531  0.00  0.00    -0.046 A 
ATOM     16  C   UNL A   1      46.798 -22.030 -41.712  0.00  0.00    -0.058 A 
ATOM     17  C   UNL A   1      47.737 -21.758 -40.721  0.00  0.00    -0.060 A 
ATOM     18  C   UNL A   1      47.339 -21.137 -39.540  0.00  0.00    -0.040 A 
ATOM     19  C   UNL A   1      46.007 -20.741 -39.347  0.00  0.00    +0.035 A 
ATOM     20  C   UNL A   1      45.047 -21.030 -40.345  0.00  0.00    -0.026 A 
ATOM     21  C   UNL A   1      43.598 -20.676 -40.114  0.00  0.00    -0.038 C 
ENDBRANCH  12  19
ENDBRANCH   6  12
ENDBRANCH   2  11
ENDBRANCH   1   4
BRANCH   1  22
ATOM     22  C   UNL A   1      41.044 -18.306 -38.626  0.00  0.00    -0.037 C 
BRANCH  22  23
ATOM     23  C   UNL A   1      40.934 -19.143 -37.347  0.00  0.00    -0.052 C 
BRANCH  23  24
ATOM     24  C   UNL A   1      40.745 -20.637 -37.625  0.00  0.00    -0.052 C 
BRANCH  24  25
ATOM     25  C   UNL A   1      41.614 -21.553 -36.754  0.00  0.00    -0.037 C 
BRANCH  25  26
ATOM     26  C   UNL A   1      42.780 -20.857 -36.047  0.00  0.00    +0.009 C 
BRANCH  26  27
ATOM     27  N   UNL A   1      42.722 -21.095 -34.598  0.00  0.00    -0.343 N 
ATOM     28  H   UNL A   1      43.040 -21.917 -34.157  0.00  0.00    +0.000 HD
BRANCH  27  29
ATOM     29  C   UNL A   1      42.147 -19.982 -33.910  0.00  0.00    +0.041 A 
ATOM     30  C   UNL A   1      42.972 -18.884 -33.592  0.00  0.00    -0.005 A 
ATOM     31  C   UNL A   1      42.396 -17.823 -32.895  0.00  0.00    +0.047 A 
ATOM     32  N   UNL A   1      41.110 -17.825 -32.470  0.00  0.00    -0.251 NA
ATOM     33  C   UNL A   1      40.334 -18.879 -32.751  0.00  0.00    +0.073 A 
ATOM     34  C   UNL A   1      39.019 -18.851 -32.302  0.00  0.00    -0.036 A 
ATOM     35  C   UNL A   1      38.132 -19.901 -32.542  0.00  0.00    -0.060 A 
ATOM     36  C   UNL A   1      38.562 -21.012 -33.250  0.00  0.00    -0.061 A 
ATOM     37  C   UNL A   1      39.878 -21.062 -33.711  0.00  0.00    -0.051 A 
ATOM     38  C   UNL A   1      40.790 -20.000 -33.473  0.00  0.00    +0.021 A 
ATOM     39  C   UNL A   1      43.192 -16.601 -32.512  0.00  0.00    -0.010 C 
ATOM     40  C   UNL A   1      44.433 -16.402 -33.373  0.00  0.00    -0.047 C 
ATOM     41  C   UNL A   1      45.225 -17.698 -33.440  0.00  0.00    -0.049 C 
ATOM     42  C   UNL A   1      44.395 -18.803 -34.094  0.00  0.00    -0.024 C 
ENDBRANCH  27  29
ENDBRANCH  26  27
ENDBRANCH  25  26
ENDBRANCH  24  25
ENDBRANCH  23  24
ENDBRANCH  22  23
ENDBRANCH   1  22
TORSDOF 11
ENDMDL
MODEL 18
REMARK VINA RESULT:    -7.052      2.460      7.924
REMARK INTER + INTRA:         -14.737
REMARK INTER:                 -10.234
REMARK INTRA:                  -4.503
REMARK UNBOUND:                -3.150
REMARK  Name = cpd23.pdb
REMARK  13 active torsions:
REMARK  status: ('A' for Active; 'I' for Inactive)
REMARK    1  A    between atoms: C_1  and  C_2
REMARK    2  A    between atoms: C_6  and  N_7
REMARK    3  A    between atoms: N_7  and  C_8
REMARK    4  A    between atoms: C_13  and  C_14
REMARK    5  A    between atoms: N_16  and  C_17
REMARK    6  A    between atoms: C_17  and  C_18
REMARK    7  A    between atoms: C_18  and  C_19
REMARK    8  A    between atoms: C_19  and  C_20
REMARK    9  A    between atoms: C_20  and  C_21
REMARK   10  A    between atoms: C_21  and  C_22
REMARK   11  A    between atoms: C_22  and  N_23
REMARK   12  A    between atoms: N_23  and  C_24
REMARK   13  A    between atoms: C_38  and  C_39
REMARK                            x       y       z     vdW  Elec       q    Type
REMARK                         _______ _______ _______ _____ _____    ______ ____
ROOT
ATOM      1  C   UNL A   1      45.501 -17.819 -35.811  0.00  0.00    +0.012 C 
ENDROOT
BRANCH   1   4
ATOM      2  C   UNL A   1      46.398 -18.601 -37.957  0.00  0.00    +0.246 C 
ATOM      3  O   UNL A   1      47.344 -17.819 -37.912  0.00  0.00    -0.270 OA
ATOM      4  N   UNL A   1      45.406 -18.650 -36.994  0.00  0.00    -0.311 N 
ATOM      5  H   UNL A   1      44.635 -19.251 -37.113  0.00  0.00    +0.000 HD
BRANCH   2  11
ATOM      6  C   UNL A   1      46.223 -19.163 -40.406  0.00  0.00    +0.044 A 
ATOM      7  C   UNL A   1      46.201 -20.142 -41.414  0.00  0.00    -0.040 A 
ATOM      8  C   UNL A   1      46.167 -21.504 -41.104  0.00  0.00    -0.060 A 
ATOM      9  C   UNL A   1      46.177 -21.916 -39.776  0.00  0.00    -0.061 A 
ATOM     10  C   UNL A   1      46.249 -20.969 -38.756  0.00  0.00    -0.048 A 
ATOM     11  C   UNL A   1      46.301 -19.598 -39.063  0.00  0.00    +0.058 A 
BRANCH   6  12
ATOM     12  N   UNL A   1      46.324 -17.784 -40.746  0.00  0.00    -0.314 N 
ATOM     13  H   UNL A   1      47.223 -17.459 -40.981  0.00  0.00    +0.000 HD
BRANCH  12  19
ATOM     14  C   UNL A   1      44.706 -13.127 -39.904  0.00  0.00    -0.039 C 
ATOM     15  C   UNL A   1      44.479 -14.559 -40.310  0.00  0.00    -0.046 A 
ATOM     16  C   UNL A   1      43.172 -14.975 -40.607  0.00  0.00    -0.058 A 
ATOM     17  C   UNL A   1      42.910 -16.296 -40.960  0.00  0.00    -0.060 A 
ATOM     18  C   UNL A   1      43.953 -17.216 -41.027  0.00  0.00    -0.040 A 
ATOM     19  C   UNL A   1      45.278 -16.822 -40.786  0.00  0.00    +0.035 A 
ATOM     20  C   UNL A   1      45.546 -15.485 -40.412  0.00  0.00    -0.026 A 
ATOM     21  C   UNL A   1      46.958 -15.071 -40.076  0.00  0.00    -0.038 C 
ENDBRANCH  12  19
ENDBRANCH   6  12
ENDBRANCH   2  11
ENDBRANCH   1   4
BRANCH   1  22
ATOM     22  C   UNL A   1      44.712 -16.523 -35.977  0.00  0.00    -0.037 C 
BRANCH  22  23
ATOM     23  C   UNL A   1      43.782 -16.532 -37.194  0.00  0.00    -0.052 C 
BRANCH  23  24
ATOM     24  C   UNL A   1      42.331 -16.195 -36.840  0.00  0.00    -0.052 C 
BRANCH  24  25
ATOM     25  C   UNL A   1      41.828 -16.855 -35.551  0.00  0.00    -0.037 C 
BRANCH  25  26
ATOM     26  C   UNL A   1      41.103 -18.189 -35.748  0.00  0.00    +0.009 C 
BRANCH  26  27
ATOM     27  N   UNL A   1      42.040 -19.313 -35.612  0.00  0.00    -0.343 N 
ATOM     28  H   UNL A   1      42.939 -19.241 -35.216  0.00  0.00    +0.000 HD
BRANCH  27  29
ATOM     29  C   UNL A   1      41.480 -20.523 -36.128  0.00  0.00    +0.041 A 
ATOM     30  C   UNL A   1      41.682 -20.834 -37.488  0.00  0.00    -0.005 A 
ATOM     31  C   UNL A   1      41.102 -22.004 -37.977  0.00  0.00    +0.047 A 
ATOM     32  N   UNL A   1      40.320 -22.815 -37.225  0.00  0.00    -0.251 NA
ATOM     33  C   UNL A   1      40.110 -22.506 -35.939  0.00  0.00    +0.073 A 
ATOM     34  C   UNL A   1      39.305 -23.358 -35.194  0.00  0.00    -0.036 A 
ATOM     35  C   UNL A   1      39.022 -23.122 -33.848  0.00  0.00    -0.060 A 
ATOM     36  C   UNL A   1      39.557 -22.007 -33.222  0.00  0.00    -0.061 A 
ATOM     37  C   UNL A   1      40.369 -21.137 -33.951  0.00  0.00    -0.051 A 
ATOM     38  C   UNL A   1      40.663 -21.366 -35.321  0.00  0.00    +0.021 A 
ATOM     39  C   UNL A   1      41.263 -22.428 -39.415  0.00  0.00    -0.010 C 
ATOM     40  C   UNL A   1      42.479 -21.806 -40.089  0.00  0.00    -0.047 C 
ATOM     41  C   UNL A   1      42.487 -20.304 -39.850  0.00  0.00    -0.049 C 
ATOM     42  C   UNL A   1      42.593 -19.997 -38.356  0.00  0.00    -0.024 C 
ENDBRANCH  27  29
ENDBRANCH  26  27
ENDBRANCH  25  26
ENDBRANCH  24  25
ENDBRANCH  23  24
ENDBRANCH  22  23
ENDBRANCH   1  22
TORSDOF 11
ENDMDL
MODEL 19
REMARK VINA RESULT:    -6.866      2.478      8.005
REMARK INTER + INTRA:         -14.431
REMARK INTER:                 -10.360
REMARK INTRA:                  -4.071
REMARK UNBOUND:                -3.150
REMARK  Name = cpd23.pdb
REMARK  13 active torsions:
REMARK  status: ('A' for Active; 'I' for Inactive)
REMARK    1  A    between atoms: C_1  and  C_2
REMARK    2  A    between atoms: C_6  and  N_7
REMARK    3  A    between atoms: N_7  and  C_8
REMARK    4  A    between atoms: C_13  and  C_14
REMARK    5  A    between atoms: N_16  and  C_17
REMARK    6  A    between atoms: C_17  and  C_18
REMARK    7  A    between atoms: C_18  and  C_19
REMARK    8  A    between atoms: C_19  and  C_20
REMARK    9  A    between atoms: C_20  and  C_21
REMARK   10  A    between atoms: C_21  and  C_22
REMARK   11  A    between atoms: C_22  and  N_23
REMARK   12  A    between atoms: N_23  and  C_24
REMARK   13  A    between atoms: C_38  and  C_39
REMARK                            x       y       z     vdW  Elec       q    Type
REMARK                         _______ _______ _______ _____ _____    ______ ____
ROOT
ATOM      1  C   UNL A   1      43.184 -15.264 -41.154  0.00  0.00    +0.012 C 
ENDROOT
BRANCH   1   4
ATOM      2  C   UNL A   1      43.903 -17.429 -40.250  0.00  0.00    +0.246 C 
ATOM      3  O   UNL A   1      45.090 -17.177 -40.438  0.00  0.00    -0.270 OA
ATOM      4  N   UNL A   1      42.879 -16.572 -40.610  0.00  0.00    -0.311 N 
ATOM      5  H   UNL A   1      41.941 -16.851 -40.497  0.00  0.00    +0.000 HD
BRANCH   2  11
ATOM      6  C   UNL A   1      44.111 -19.916 -39.909  0.00  0.00    +0.044 A 
ATOM      7  C   UNL A   1      43.748 -21.062 -39.182  0.00  0.00    -0.040 A 
ATOM      8  C   UNL A   1      42.754 -21.016 -38.201  0.00  0.00    -0.060 A 
ATOM      9  C   UNL A   1      42.117 -19.814 -37.911  0.00  0.00    -0.061 A 
ATOM     10  C   UNL A   1      42.492 -18.651 -38.582  0.00  0.00    -0.048 A 
ATOM     11  C   UNL A   1      43.504 -18.688 -39.557  0.00  0.00    +0.058 A 
BRANCH   6  12
ATOM     12  N   UNL A   1      45.172 -19.973 -40.857  0.00  0.00    -0.314 N 
ATOM     13  H   UNL A   1      45.175 -19.274 -41.550  0.00  0.00    +0.000 HD
BRANCH  12  19
ATOM     14  C   UNL A   1      47.111 -24.150 -42.807  0.00  0.00    -0.039 C 
ATOM     15  C   UNL A   1      47.137 -23.002 -41.833  0.00  0.00    -0.046 A 
ATOM     16  C   UNL A   1      48.167 -22.951 -40.881  0.00  0.00    -0.058 A 
ATOM     17  C   UNL A   1      48.217 -21.924 -39.943  0.00  0.00    -0.060 A 
ATOM     18  C   UNL A   1      47.242 -20.931 -39.950  0.00  0.00    -0.040 A 
ATOM     19  C   UNL A   1      46.228 -20.923 -40.919  0.00  0.00    +0.035 A 
ATOM     20  C   UNL A   1      46.164 -21.974 -41.864  0.00  0.00    -0.026 A 
ATOM     21  C   UNL A   1      45.033 -22.016 -42.862  0.00  0.00    -0.038 C 
ENDBRANCH  12  19
ENDBRANCH   6  12
ENDBRANCH   2  11
ENDBRANCH   1   4
BRANCH   1  22
ATOM     22  C   UNL A   1      42.282 -14.187 -40.556  0.00  0.00    -0.037 C 
BRANCH  22  23
ATOM     23  C   UNL A   1      42.909 -13.471 -39.356  0.00  0.00    -0.052 C 
BRANCH  23  24
ATOM     24  C   UNL A   1      43.638 -14.424 -38.404  0.00  0.00    -0.052 C 
BRANCH  24  25
ATOM     25  C   UNL A   1      43.126 -14.385 -36.960  0.00  0.00    -0.037 C 
BRANCH  25  26
ATOM     26  C   UNL A   1      42.778 -15.750 -36.361  0.00  0.00    +0.009 C 
BRANCH  26  27
ATOM     27  N   UNL A   1      43.681 -16.073 -35.248  0.00  0.00    -0.343 N 
ATOM     28  H   UNL A   1      44.081 -15.404 -34.646  0.00  0.00    +0.000 HD
BRANCH  27  29
ATOM     29  C   UNL A   1      43.907 -17.481 -35.153  0.00  0.00    +0.041 A 
ATOM     30  C   UNL A   1      44.966 -18.047 -35.890  0.00  0.00    -0.005 A 
ATOM     31  C   UNL A   1      45.149 -19.428 -35.805  0.00  0.00    +0.047 A 
ATOM     32  N   UNL A   1      44.331 -20.241 -35.096  0.00  0.00    -0.251 NA
ATOM     33  C   UNL A   1      43.311 -19.705 -34.414  0.00  0.00    +0.073 A 
ATOM     34  C   UNL A   1      42.492 -20.567 -33.695  0.00  0.00    -0.036 A 
ATOM     35  C   UNL A   1      41.401 -20.106 -32.956  0.00  0.00    -0.060 A 
ATOM     36  C   UNL A   1      41.117 -18.750 -32.928  0.00  0.00    -0.061 A 
ATOM     37  C   UNL A   1      41.927 -17.866 -33.642  0.00  0.00    -0.051 A 
ATOM     38  C   UNL A   1      43.038 -18.323 -34.399  0.00  0.00    +0.021 A 
ATOM     39  C   UNL A   1      46.255 -20.128 -36.552  0.00  0.00    -0.010 C 
ATOM     40  C   UNL A   1      47.402 -19.200 -36.931  0.00  0.00    -0.047 C 
ATOM     41  C   UNL A   1      46.852 -17.953 -37.605  0.00  0.00    -0.049 C 
ATOM     42  C   UNL A   1      45.944 -17.180 -36.649  0.00  0.00    -0.024 C 
ENDBRANCH  27  29
ENDBRANCH  26  27
ENDBRANCH  25  26
ENDBRANCH  24  25
ENDBRANCH  23  24
ENDBRANCH  22  23
ENDBRANCH   1  22
TORSDOF 11
ENDMDL
MODEL 20
REMARK VINA RESULT:    -6.864      2.468      5.502
REMARK INTER + INTRA:         -14.428
REMARK INTER:                  -9.550
REMARK INTRA:                  -4.878
REMARK UNBOUND:                -3.150
REMARK  Name = cpd23.pdb
REMARK  13 active torsions:
REMARK  status: ('A' for Active; 'I' for Inactive)
REMARK    1  A    between atoms: C_1  and  C_2
REMARK    2  A    between atoms: C_6  and  N_7
REMARK    3  A    between atoms: N_7  and  C_8
REMARK    4  A    between atoms: C_13  and  C_14
REMARK    5  A    between atoms: N_16  and  C_17
REMARK    6  A    between atoms: C_17  and  C_18
REMARK    7  A    between atoms: C_18  and  C_19
REMARK    8  A    between atoms: C_19  and  C_20
REMARK    9  A    between atoms: C_20  and  C_21
REMARK   10  A    between atoms: C_21  and  C_22
REMARK   11  A    between atoms: C_22  and  N_23
REMARK   12  A    between atoms: N_23  and  C_24
REMARK   13  A    between atoms: C_38  and  C_39
REMARK                            x       y       z     vdW  Elec       q    Type
REMARK                         _______ _______ _______ _____ _____    ______ ____
ROOT
ATOM      1  C   UNL A   1      39.459 -15.906 -33.791  0.00  0.00    +0.012 C 
ENDROOT
BRANCH   1   4
ATOM      2  C   UNL A   1      40.056 -17.989 -32.640  0.00  0.00    +0.246 C 
ATOM      3  O   UNL A   1      40.399 -17.395 -31.621  0.00  0.00    -0.270 OA
ATOM      4  N   UNL A   1      39.621 -17.347 -33.784  0.00  0.00    -0.311 N 
ATOM      5  H   UNL A   1      39.421 -17.868 -34.595  0.00  0.00    +0.000 HD
BRANCH   2  11
ATOM      6  C   UNL A   1      41.265 -20.198 -32.707  0.00  0.00    +0.044 A 
ATOM      7  C   UNL A   1      41.203 -21.602 -32.668  0.00  0.00    -0.040 A 
ATOM      8  C   UNL A   1      39.980 -22.276 -32.682  0.00  0.00    -0.060 A 
ATOM      9  C   UNL A   1      38.789 -21.559 -32.713  0.00  0.00    -0.061 A 
ATOM     10  C   UNL A   1      38.819 -20.165 -32.702  0.00  0.00    -0.048 A 
ATOM     11  C   UNL A   1      40.047 -19.481 -32.670  0.00  0.00    +0.058 A 
BRANCH   6  12
ATOM     12  N   UNL A   1      42.520 -19.532 -32.625  0.00  0.00    -0.314 N 
ATOM     13  H   UNL A   1      42.804 -19.247 -31.727  0.00  0.00    +0.000 HD
BRANCH  12  19
ATOM     14  C   UNL A   1      45.247 -16.189 -35.155  0.00  0.00    -0.039 C 
ATOM     15  C   UNL A   1      44.691 -17.575 -34.960  0.00  0.00    -0.046 A 
ATOM     16  C   UNL A   1      44.960 -18.551 -35.931  0.00  0.00    -0.058 A 
ATOM     17  C   UNL A   1      44.443 -19.838 -35.807  0.00  0.00    -0.060 A 
ATOM     18  C   UNL A   1      43.658 -20.166 -34.705  0.00  0.00    -0.040 A 
ATOM     19  C   UNL A   1      43.412 -19.230 -33.691  0.00  0.00    +0.035 A 
ATOM     20  C   UNL A   1      43.921 -17.916 -33.821  0.00  0.00    -0.026 A 
ATOM     21  C   UNL A   1      43.597 -16.880 -32.772  0.00  0.00    -0.038 C 
ENDBRANCH  12  19
ENDBRANCH   6  12
ENDBRANCH   2  11
ENDBRANCH   1   4
BRANCH   1  22
ATOM     22  C   UNL A   1      39.956 -15.297 -35.099  0.00  0.00    -0.037 C 
BRANCH  22  23
ATOM     23  C   UNL A   1      41.213 -15.982 -35.647  0.00  0.00    -0.052 C 
BRANCH  23  24
ATOM     24  C   UNL A   1      42.171 -15.009 -36.339  0.00  0.00    -0.052 C 
BRANCH  24  25
ATOM     25  C   UNL A   1      42.288 -15.212 -37.854  0.00  0.00    -0.037 C 
BRANCH  25  26
ATOM     26  C   UNL A   1      42.905 -16.546 -38.281  0.00  0.00    +0.009 C 
BRANCH  26  27
ATOM     27  N   UNL A   1      41.956 -17.318 -39.095  0.00  0.00    -0.343 N 
ATOM     28  H   UNL A   1      41.178 -16.930 -39.559  0.00  0.00    +0.000 HD
BRANCH  27  29
ATOM     29  C   UNL A   1      42.304 -18.704 -39.127  0.00  0.00    +0.041 A 
ATOM     30  C   UNL A   1      41.731 -19.568 -38.172  0.00  0.00    -0.005 A 
ATOM     31  C   UNL A   1      42.108 -20.910 -38.204  0.00  0.00    +0.047 A 
ATOM     32  N   UNL A   1      43.029 -21.401 -39.067  0.00  0.00    -0.251 NA
ATOM     33  C   UNL A   1      43.592 -20.575 -39.958  0.00  0.00    +0.073 A 
ATOM     34  C   UNL A   1      44.532 -21.109 -40.830  0.00  0.00    -0.036 A 
ATOM     35  C   UNL A   1      45.177 -20.331 -41.792  0.00  0.00    -0.060 A 
ATOM     36  C   UNL A   1      44.877 -18.982 -41.893  0.00  0.00    -0.061 A 
ATOM     37  C   UNL A   1      43.936 -18.423 -41.028  0.00  0.00    -0.051 A 
ATOM     38  C   UNL A   1      43.274 -19.205 -40.044  0.00  0.00    +0.021 A 
ATOM     39  C   UNL A   1      41.548 -21.914 -37.229  0.00  0.00    -0.010 C 
ATOM     40  C   UNL A   1      40.221 -21.479 -36.618  0.00  0.00    -0.047 C 
ATOM     41  C   UNL A   1      40.341 -20.058 -36.091  0.00  0.00    -0.049 C 
ATOM     42  C   UNL A   1      40.654 -19.086 -37.227  0.00  0.00    -0.024 C 
ENDBRANCH  27  29
ENDBRANCH  26  27
ENDBRANCH  25  26
ENDBRANCH  24  25
ENDBRANCH  23  24
ENDBRANCH  22  23
ENDBRANCH   1  22
TORSDOF 11
ENDMDL
