MODEL 1
REMARK VINA RESULT:    -6.100      0.000      0.000
REMARK INTER + INTRA:         -14.465
REMARK INTER:                 -11.271
REMARK INTRA:                  -3.194
REMARK UNBOUND:                -3.194
REMARK  Name = cpd286.pdb
REMARK  19 active torsions:
REMARK  status: ('A' for Active; 'I' for Inactive)
REMARK    1  A    between atoms: C_1  and  C_2
REMARK    2  A    between atoms: C_2  and  C_3
REMARK    3  A    between atoms: C_2  and  C_20
REMARK    4  A    between atoms: C_3  and  C_4
REMARK    5  A    between atoms: C_4  and  C_5
REMARK    6  A    between atoms: C_6  and  C_7
REMARK    7  A    between atoms: C_7  and  O_8
REMARK    8  A    between atoms: C_12  and  C_13
REMARK    9  A    between atoms: C_12  and  C_14
REMARK   10  A    between atoms: C_18  and  C_19
REMARK   11  A    between atoms: C_20  and  C_21
REMARK   12  A    between atoms: C_21  and  O_23
REMARK   13  A    between atoms: O_23  and  C_24
REMARK   14  A    between atoms: C_24  and  C_25
REMARK   15  A    between atoms: C_25  and  C_26
REMARK   16  A    between atoms: C_26  and  C_27
REMARK   17  A    between atoms: C_27  and  C_28
REMARK   18  A    between atoms: C_28  and  C_29
REMARK   19  A    between atoms: C_29  and  N_30
REMARK                            x       y       z     vdW  Elec       q    Type
REMARK                         _______ _______ _______ _____ _____    ______ ____
ROOT
ATOM      1  C   UNL     1      42.062 -19.584 -38.793  0.00  0.00    -0.062 C 
ATOM      2  C   UNL     1      42.583 -21.003 -38.562  0.00  0.00    -0.034 C 
ENDROOT
BRANCH   2   3
ATOM      3  C   UNL     1      43.517 -21.468 -39.700  0.00  0.00    -0.049 C 
BRANCH   3   4
ATOM      4  C   UNL     1      45.027 -21.223 -39.484  0.00  0.00    -0.046 C 
BRANCH   4   5
ATOM      5  C   UNL     1      45.844 -20.621 -40.667  0.00  0.00    -0.012 C 
ATOM      6  C   UNL     1      45.116 -20.846 -42.007  0.00  0.00    -0.045 C 
ATOM      7  C   UNL     1      44.451 -19.838 -42.612  0.00  0.00    -0.082 C 
ATOM      8  C   UNL     1      44.362 -18.424 -42.109  0.00  0.00    -0.031 C 
ATOM      9  C   UNL     1      44.923 -18.227 -40.688  0.00  0.00    -0.027 C 
ATOM     10  C   UNL     1      44.990 -16.731 -40.166  0.00  0.00    -0.031 C 
ATOM     11  C   UNL     1      44.060 -16.602 -38.930  0.00  0.00    -0.060 C 
ATOM     12  C   UNL     1      44.487 -15.696 -41.197  0.00  0.00    -0.060 C 
ATOM     13  C   UNL     1      46.410 -16.292 -39.735  0.00  0.00    -0.048 C 
ATOM     14  C   UNL     1      47.196 -17.298 -38.897  0.00  0.00    -0.052 C 
ATOM     15  C   UNL     1      46.786 -18.756 -39.089  0.00  0.00    -0.047 C 
ATOM     16  C   UNL     1      46.220 -19.076 -40.490  0.00  0.00    -0.022 C 
ATOM     17  C   UNL     1      47.331 -18.769 -41.543  0.00  0.00    -0.059 C 
BRANCH   6  18
ATOM     18  C   UNL     1      45.313 -22.200 -42.656  0.00  0.00    +0.066 C 
BRANCH  18  19
ATOM     19  O   UNL     1      46.657 -22.653 -42.570  0.00  0.00    -0.391 OA
ATOM     20  H   UNL     1      47.152 -22.084 -41.960  0.00  0.00    +0.000 HD
ENDBRANCH  18  19
ENDBRANCH   6  18
ENDBRANCH   4   5
ENDBRANCH   3   4
ENDBRANCH   2   3
BRANCH   2  21
ATOM     21  C   UNL     1      41.439 -22.003 -38.297  0.00  0.00    +0.048 C 
BRANCH  21  22
ATOM     22  C   UNL     1      41.182 -22.320 -36.840  0.00  0.00    +0.307 C 
ATOM     23  O   UNL     1      40.516 -23.302 -36.519  0.00  0.00    -0.251 OA
BRANCH  22  24
ATOM     24  O   UNL     1      41.694 -21.511 -35.885  0.00  0.00    -0.465 OA
BRANCH  24  25
ATOM     25  C   UNL     1      41.301 -21.487 -34.500  0.00  0.00    +0.092 C 
BRANCH  25  26
ATOM     26  C   UNL     1      40.805 -20.097 -34.112  0.00  0.00    -0.019 C 
BRANCH  26  27
ATOM     27  C   UNL     1      41.272 -19.053 -35.127  0.00  0.00    -0.050 C 
BRANCH  27  28
ATOM     28  C   UNL     1      41.351 -17.634 -34.555  0.00  0.00    -0.052 C 
BRANCH  28  29
ATOM     29  C   UNL     1      42.758 -17.032 -34.641  0.00  0.00    -0.040 C 
BRANCH  29  30
ATOM     30  C   UNL     1      43.787 -17.935 -33.944  0.00  0.00    -0.001 C 
BRANCH  30  31
ATOM     31  N   UNL     1      44.871 -18.369 -34.842  0.00  0.00    -0.302 N 
ATOM     32  C   UNL     1      44.956 -19.835 -34.938  0.00  0.00    -0.001 C 
ATOM     33  C   UNL     1      46.069 -20.274 -35.892  0.00  0.00    -0.040 C 
ATOM     34  C   UNL     1      47.415 -19.686 -35.487  0.00  0.00    -0.051 C 
ATOM     35  C   UNL     1      47.301 -18.177 -35.321  0.00  0.00    -0.040 C 
ATOM     36  C   UNL     1      46.153 -17.807 -34.380  0.00  0.00    -0.001 C 
ATOM     37  H   UNL     1      44.662 -18.019 -35.777  0.00  0.00    +0.000 HD
ENDBRANCH  30  31
ENDBRANCH  29  30
ENDBRANCH  28  29
ENDBRANCH  27  28
ENDBRANCH  26  27
ENDBRANCH  25  26
ENDBRANCH  24  25
ENDBRANCH  22  24
ENDBRANCH  21  22
ENDBRANCH   2  21
TORSDOF 15
ENDMDL
MODEL 2
REMARK VINA RESULT:    -6.045     18.491     22.168
REMARK INTER + INTRA:         -14.363
REMARK INTER:                 -12.911
REMARK INTRA:                  -1.452
REMARK UNBOUND:                -3.194
REMARK  Name = cpd286.pdb
REMARK  19 active torsions:
REMARK  status: ('A' for Active; 'I' for Inactive)
REMARK    1  A    between atoms: C_1  and  C_2
REMARK    2  A    between atoms: C_2  and  C_3
REMARK    3  A    between atoms: C_2  and  C_20
REMARK    4  A    between atoms: C_3  and  C_4
REMARK    5  A    between atoms: C_4  and  C_5
REMARK    6  A    between atoms: C_6  and  C_7
REMARK    7  A    between atoms: C_7  and  O_8
REMARK    8  A    between atoms: C_12  and  C_13
REMARK    9  A    between atoms: C_12  and  C_14
REMARK   10  A    between atoms: C_18  and  C_19
REMARK   11  A    between atoms: C_20  and  C_21
REMARK   12  A    between atoms: C_21  and  O_23
REMARK   13  A    between atoms: O_23  and  C_24
REMARK   14  A    between atoms: C_24  and  C_25
REMARK   15  A    between atoms: C_25  and  C_26
REMARK   16  A    between atoms: C_26  and  C_27
REMARK   17  A    between atoms: C_27  and  C_28
REMARK   18  A    between atoms: C_28  and  C_29
REMARK   19  A    between atoms: C_29  and  N_30
REMARK                            x       y       z     vdW  Elec       q    Type
REMARK                         _______ _______ _______ _____ _____    ______ ____
ROOT
ATOM      1  C   UNL     1      36.759 -37.929 -27.770  0.00  0.00    -0.062 C 
ATOM      2  C   UNL     1      36.739 -37.678 -29.278  0.00  0.00    -0.034 C 
ENDROOT
BRANCH   2   3
ATOM      3  C   UNL     1      36.122 -38.863 -30.053  0.00  0.00    -0.049 C 
BRANCH   3   4
ATOM      4  C   UNL     1      35.099 -38.499 -31.151  0.00  0.00    -0.046 C 
BRANCH   4   5
ATOM      5  C   UNL     1      33.585 -38.536 -30.778  0.00  0.00    -0.012 C 
ATOM      6  C   UNL     1      33.371 -39.244 -29.425  0.00  0.00    -0.045 C 
ATOM      7  C   UNL     1      33.114 -38.534 -28.305  0.00  0.00    -0.082 C 
ATOM      8  C   UNL     1      32.975 -37.039 -28.232  0.00  0.00    -0.031 C 
ATOM      9  C   UNL     1      33.367 -36.306 -29.529  0.00  0.00    -0.027 C 
ATOM     10  C   UNL     1      33.098 -34.744 -29.557  0.00  0.00    -0.031 C 
ATOM     11  C   UNL     1      34.460 -34.016 -29.705  0.00  0.00    -0.060 C 
ATOM     12  C   UNL     1      32.458 -34.207 -28.257  0.00  0.00    -0.060 C 
ATOM     13  C   UNL     1      32.193 -34.295 -30.729  0.00  0.00    -0.048 C 
ATOM     14  C   UNL     1      32.504 -34.915 -32.090  0.00  0.00    -0.052 C 
ATOM     15  C   UNL     1      33.203 -36.272 -32.035  0.00  0.00    -0.047 C 
ATOM     16  C   UNL     1      32.871 -37.106 -30.778  0.00  0.00    -0.022 C 
ATOM     17  C   UNL     1      31.334 -37.380 -30.771  0.00  0.00    -0.059 C 
BRANCH   6  18
ATOM     18  C   UNL     1      33.325 -40.757 -29.462  0.00  0.00    +0.066 C 
BRANCH  18  19
ATOM     19  O   UNL     1      34.219 -41.305 -30.421  0.00  0.00    -0.391 OA
ATOM     20  H   UNL     1      35.125 -41.022 -30.217  0.00  0.00    +0.000 HD
ENDBRANCH  18  19
ENDBRANCH   6  18
ENDBRANCH   4   5
ENDBRANCH   3   4
ENDBRANCH   2   3
BRANCH   2  21
ATOM     21  C   UNL     1      38.129 -37.284 -29.818  0.00  0.00    +0.048 C 
BRANCH  21  22
ATOM     22  C   UNL     1      38.153 -36.064 -30.712  0.00  0.00    +0.307 C 
ATOM     23  O   UNL     1      37.108 -35.509 -31.043  0.00  0.00    -0.251 OA
BRANCH  22  24
ATOM     24  O   UNL     1      39.340 -35.582 -31.146  0.00  0.00    -0.465 OA
BRANCH  24  25
ATOM     25  C   UNL     1      39.969 -35.898 -32.402  0.00  0.00    +0.092 C 
BRANCH  25  26
ATOM     26  C   UNL     1      41.458 -36.162 -32.199  0.00  0.00    -0.019 C 
BRANCH  26  27
ATOM     27  C   UNL     1      41.709 -36.848 -30.856  0.00  0.00    -0.050 C 
BRANCH  27  28
ATOM     28  C   UNL     1      43.091 -37.498 -30.747  0.00  0.00    -0.052 C 
BRANCH  28  29
ATOM     29  C   UNL     1      43.042 -39.027 -30.840  0.00  0.00    -0.040 C 
BRANCH  29  30
ATOM     30  C   UNL     1      43.428 -39.672 -29.500  0.00  0.00    -0.001 C 
BRANCH  30  31
ATOM     31  N   UNL     1      44.719 -40.381 -29.555  0.00  0.00    -0.302 N 
ATOM     32  C   UNL     1      45.857 -39.451 -29.649  0.00  0.00    -0.001 C 
ATOM     33  C   UNL     1      47.192 -40.198 -29.680  0.00  0.00    -0.040 C 
ATOM     34  C   UNL     1      47.237 -41.213 -30.815  0.00  0.00    -0.051 C 
ATOM     35  C   UNL     1      46.020 -42.125 -30.753  0.00  0.00    -0.040 C 
ATOM     36  C   UNL     1      44.724 -41.317 -30.694  0.00  0.00    -0.001 C 
ATOM     37  H   UNL     1      44.828 -40.901 -28.685  0.00  0.00    +0.000 HD
ENDBRANCH  30  31
ENDBRANCH  29  30
ENDBRANCH  28  29
ENDBRANCH  27  28
ENDBRANCH  26  27
ENDBRANCH  25  26
ENDBRANCH  24  25
ENDBRANCH  22  24
ENDBRANCH  21  22
ENDBRANCH   2  21
TORSDOF 15
ENDMDL
MODEL 3
REMARK VINA RESULT:    -5.731      2.312      5.006
REMARK INTER + INTRA:         -13.782
REMARK INTER:                 -10.513
REMARK INTRA:                  -3.269
REMARK UNBOUND:                -3.194
REMARK  Name = cpd286.pdb
REMARK  19 active torsions:
REMARK  status: ('A' for Active; 'I' for Inactive)
REMARK    1  A    between atoms: C_1  and  C_2
REMARK    2  A    between atoms: C_2  and  C_3
REMARK    3  A    between atoms: C_2  and  C_20
REMARK    4  A    between atoms: C_3  and  C_4
REMARK    5  A    between atoms: C_4  and  C_5
REMARK    6  A    between atoms: C_6  and  C_7
REMARK    7  A    between atoms: C_7  and  O_8
REMARK    8  A    between atoms: C_12  and  C_13
REMARK    9  A    between atoms: C_12  and  C_14
REMARK   10  A    between atoms: C_18  and  C_19
REMARK   11  A    between atoms: C_20  and  C_21
REMARK   12  A    between atoms: C_21  and  O_23
REMARK   13  A    between atoms: O_23  and  C_24
REMARK   14  A    between atoms: C_24  and  C_25
REMARK   15  A    between atoms: C_25  and  C_26
REMARK   16  A    between atoms: C_26  and  C_27
REMARK   17  A    between atoms: C_27  and  C_28
REMARK   18  A    between atoms: C_28  and  C_29
REMARK   19  A    between atoms: C_29  and  N_30
REMARK                            x       y       z     vdW  Elec       q    Type
REMARK                         _______ _______ _______ _____ _____    ______ ____
ROOT
ATOM      1  C   UNL     1      40.876 -22.026 -37.993  0.00  0.00    -0.062 C 
ATOM      2  C   UNL     1      41.540 -20.674 -38.258  0.00  0.00    -0.034 C 
ENDROOT
BRANCH   2   3
ATOM      3  C   UNL     1      42.815 -20.480 -37.408  0.00  0.00    -0.049 C 
BRANCH   3   4
ATOM      4  C   UNL     1      43.411 -19.055 -37.391  0.00  0.00    -0.046 C 
BRANCH   4   5
ATOM      5  C   UNL     1      44.851 -18.860 -37.957  0.00  0.00    -0.012 C 
ATOM      6  C   UNL     1      45.842 -19.825 -37.276  0.00  0.00    -0.045 C 
ATOM      7  C   UNL     1      46.282 -20.931 -37.915  0.00  0.00    -0.082 C 
ATOM      8  C   UNL     1      45.914 -21.335 -39.316  0.00  0.00    -0.031 C 
ATOM      9  C   UNL     1      44.787 -20.488 -39.938  0.00  0.00    -0.027 C 
ATOM     10  C   UNL     1      44.461 -20.774 -41.463  0.00  0.00    -0.031 C 
ATOM     11  C   UNL     1      43.004 -21.298 -41.562  0.00  0.00    -0.060 C 
ATOM     12  C   UNL     1      45.358 -21.865 -42.090  0.00  0.00    -0.060 C 
ATOM     13  C   UNL     1      44.574 -19.520 -42.363  0.00  0.00    -0.048 C 
ATOM     14  C   UNL     1      43.957 -18.239 -41.806  0.00  0.00    -0.052 C 
ATOM     15  C   UNL     1      43.862 -18.179 -40.283  0.00  0.00    -0.047 C 
ATOM     16  C   UNL     1      44.956 -18.984 -39.548  0.00  0.00    -0.022 C 
ATOM     17  C   UNL     1      46.344 -18.390 -39.945  0.00  0.00    -0.059 C 
BRANCH   6  18
ATOM     18  C   UNL     1      46.389 -19.385 -35.935  0.00  0.00    +0.066 C 
BRANCH  18  19
ATOM     19  O   UNL     1      47.477 -20.189 -35.501  0.00  0.00    -0.391 OA
ATOM     20  H   UNL     1      48.128 -19.634 -35.043  0.00  0.00    +0.000 HD
ENDBRANCH  18  19
ENDBRANCH   6  18
ENDBRANCH   4   5
ENDBRANCH   3   4
ENDBRANCH   2   3
BRANCH   2  21
ATOM     21  C   UNL     1      40.549 -19.502 -38.104  0.00  0.00    +0.048 C 
BRANCH  21  22
ATOM     22  C   UNL     1      39.530 -19.658 -36.998  0.00  0.00    +0.307 C 
ATOM     23  O   UNL     1      38.362 -19.940 -37.256  0.00  0.00    -0.251 OA
BRANCH  22  24
ATOM     24  O   UNL     1      39.914 -19.487 -35.713  0.00  0.00    -0.465 OA
BRANCH  24  25
ATOM     25  C   UNL     1      39.870 -18.251 -34.977  0.00  0.00    +0.092 C 
BRANCH  25  26
ATOM     26  C   UNL     1      41.281 -17.803 -34.606  0.00  0.00    -0.019 C 
BRANCH  26  27
ATOM     27  C   UNL     1      41.595 -18.151 -33.151  0.00  0.00    -0.050 C 
BRANCH  27  28
ATOM     28  C   UNL     1      42.801 -19.079 -32.988  0.00  0.00    -0.052 C 
BRANCH  28  29
ATOM     29  C   UNL     1      42.655 -20.392 -33.765  0.00  0.00    -0.040 C 
BRANCH  29  30
ATOM     30  C   UNL     1      41.801 -21.402 -32.984  0.00  0.00    -0.001 C 
BRANCH  30  31
ATOM     31  N   UNL     1      40.426 -21.512 -33.502  0.00  0.00    -0.302 N 
ATOM     32  C   UNL     1      39.420 -21.200 -32.473  0.00  0.00    -0.001 C 
ATOM     33  C   UNL     1      37.997 -21.295 -33.030  0.00  0.00    -0.040 C 
ATOM     34  C   UNL     1      37.728 -22.662 -33.643  0.00  0.00    -0.051 C 
ATOM     35  C   UNL     1      38.812 -23.008 -34.654  0.00  0.00    -0.040 C 
ATOM     36  C   UNL     1      40.206 -22.866 -34.044  0.00  0.00    -0.001 C 
ATOM     37  H   UNL     1      40.316 -20.825 -34.246  0.00  0.00    +0.000 HD
ENDBRANCH  30  31
ENDBRANCH  29  30
ENDBRANCH  28  29
ENDBRANCH  27  28
ENDBRANCH  26  27
ENDBRANCH  25  26
ENDBRANCH  24  25
ENDBRANCH  22  24
ENDBRANCH  21  22
ENDBRANCH   2  21
TORSDOF 15
ENDMDL
MODEL 4
REMARK VINA RESULT:    -5.721      1.620      2.380
REMARK INTER + INTRA:         -13.765
REMARK INTER:                 -10.063
REMARK INTRA:                  -3.702
REMARK UNBOUND:                -3.194
REMARK  Name = cpd286.pdb
REMARK  19 active torsions:
REMARK  status: ('A' for Active; 'I' for Inactive)
REMARK    1  A    between atoms: C_1  and  C_2
REMARK    2  A    between atoms: C_2  and  C_3
REMARK    3  A    between atoms: C_2  and  C_20
REMARK    4  A    between atoms: C_3  and  C_4
REMARK    5  A    between atoms: C_4  and  C_5
REMARK    6  A    between atoms: C_6  and  C_7
REMARK    7  A    between atoms: C_7  and  O_8
REMARK    8  A    between atoms: C_12  and  C_13
REMARK    9  A    between atoms: C_12  and  C_14
REMARK   10  A    between atoms: C_18  and  C_19
REMARK   11  A    between atoms: C_20  and  C_21
REMARK   12  A    between atoms: C_21  and  O_23
REMARK   13  A    between atoms: O_23  and  C_24
REMARK   14  A    between atoms: C_24  and  C_25
REMARK   15  A    between atoms: C_25  and  C_26
REMARK   16  A    between atoms: C_26  and  C_27
REMARK   17  A    between atoms: C_27  and  C_28
REMARK   18  A    between atoms: C_28  and  C_29
REMARK   19  A    between atoms: C_29  and  N_30
REMARK                            x       y       z     vdW  Elec       q    Type
REMARK                         _______ _______ _______ _____ _____    ______ ____
ROOT
ATOM      1  C   UNL     1      43.214 -19.346 -37.463  0.00  0.00    -0.062 C 
ATOM      2  C   UNL     1      43.300 -20.700 -38.169  0.00  0.00    -0.034 C 
ENDROOT
BRANCH   2   3
ATOM      3  C   UNL     1      44.702 -20.950 -38.768  0.00  0.00    -0.049 C 
BRANCH   3   4
ATOM      4  C   UNL     1      45.794 -19.924 -38.396  0.00  0.00    -0.046 C 
BRANCH   4   5
ATOM      5  C   UNL     1      46.535 -19.195 -39.559  0.00  0.00    -0.012 C 
ATOM      6  C   UNL     1      46.429 -20.003 -40.868  0.00  0.00    -0.045 C 
ATOM      7  C   UNL     1      45.576 -19.626 -41.846  0.00  0.00    -0.082 C 
ATOM      8  C   UNL     1      44.687 -18.415 -41.812  0.00  0.00    -0.031 C 
ATOM      9  C   UNL     1      44.644 -17.706 -40.445  0.00  0.00    -0.027 C 
ATOM     10  C   UNL     1      43.840 -16.340 -40.392  0.00  0.00    -0.031 C 
ATOM     11  C   UNL     1      42.644 -16.514 -39.419  0.00  0.00    -0.060 C 
ATOM     12  C   UNL     1      43.235 -15.929 -41.754  0.00  0.00    -0.060 C 
ATOM     13  C   UNL     1      44.687 -15.146 -39.891  0.00  0.00    -0.048 C 
ATOM     14  C   UNL     1      45.571 -15.415 -38.676  0.00  0.00    -0.052 C 
ATOM     15  C   UNL     1      45.975 -16.875 -38.484  0.00  0.00    -0.047 C 
ATOM     16  C   UNL     1      46.066 -17.685 -39.796  0.00  0.00    -0.022 C 
ATOM     17  C   UNL     1      47.152 -17.022 -40.700  0.00  0.00    -0.059 C 
BRANCH   6  18
ATOM     18  C   UNL     1      47.422 -21.132 -41.039  0.00  0.00    +0.066 C 
BRANCH  18  19
ATOM     19  O   UNL     1      48.688 -20.677 -41.498  0.00  0.00    -0.391 OA
ATOM     20  H   UNL     1      49.383 -20.999 -40.903  0.00  0.00    +0.000 HD
ENDBRANCH  18  19
ENDBRANCH   6  18
ENDBRANCH   4   5
ENDBRANCH   3   4
ENDBRANCH   2   3
BRANCH   2  21
ATOM     21  C   UNL     1      42.176 -20.883 -39.210  0.00  0.00    +0.048 C 
BRANCH  21  22
ATOM     22  C   UNL     1      41.072 -21.836 -38.807  0.00  0.00    +0.307 C 
ATOM     23  O   UNL     1      41.217 -23.050 -38.928  0.00  0.00    -0.251 OA
BRANCH  22  24
ATOM     24  O   UNL     1      39.918 -21.340 -38.307  0.00  0.00    -0.465 OA
BRANCH  24  25
ATOM     25  C   UNL     1      39.738 -20.785 -36.991  0.00  0.00    +0.092 C 
BRANCH  25  26
ATOM     26  C   UNL     1      39.517 -21.898 -35.971  0.00  0.00    -0.019 C 
BRANCH  26  27
ATOM     27  C   UNL     1      40.796 -22.168 -35.178  0.00  0.00    -0.050 C 
BRANCH  27  28
ATOM     28  C   UNL     1      41.526 -20.896 -34.738  0.00  0.00    -0.052 C 
BRANCH  28  29
ATOM     29  C   UNL     1      41.603 -20.746 -33.215  0.00  0.00    -0.040 C 
BRANCH  29  30
ATOM     30  C   UNL     1      42.166 -19.371 -32.825  0.00  0.00    -0.001 C 
BRANCH  30  31
ATOM     31  N   UNL     1      43.059 -18.805 -33.850  0.00  0.00    -0.302 N 
ATOM     32  C   UNL     1      44.473 -19.121 -33.587  0.00  0.00    -0.001 C 
ATOM     33  C   UNL     1      45.389 -18.549 -34.672  0.00  0.00    -0.040 C 
ATOM     34  C   UNL     1      45.198 -17.046 -34.828  0.00  0.00    -0.051 C 
ATOM     35  C   UNL     1      43.724 -16.721 -35.028  0.00  0.00    -0.040 C 
ATOM     36  C   UNL     1      42.864 -17.346 -33.929  0.00  0.00    -0.001 C 
ATOM     37  H   UNL     1      42.819 -19.230 -34.745  0.00  0.00    +0.000 HD
ENDBRANCH  30  31
ENDBRANCH  29  30
ENDBRANCH  28  29
ENDBRANCH  27  28
ENDBRANCH  26  27
ENDBRANCH  25  26
ENDBRANCH  24  25
ENDBRANCH  22  24
ENDBRANCH  21  22
ENDBRANCH   2  21
TORSDOF 15
ENDMDL
MODEL 5
REMARK VINA RESULT:    -5.717      1.817      4.315
REMARK INTER + INTRA:         -13.758
REMARK INTER:                  -9.795
REMARK INTRA:                  -3.963
REMARK UNBOUND:                -3.194
REMARK  Name = cpd286.pdb
REMARK  19 active torsions:
REMARK  status: ('A' for Active; 'I' for Inactive)
REMARK    1  A    between atoms: C_1  and  C_2
REMARK    2  A    between atoms: C_2  and  C_3
REMARK    3  A    between atoms: C_2  and  C_20
REMARK    4  A    between atoms: C_3  and  C_4
REMARK    5  A    between atoms: C_4  and  C_5
REMARK    6  A    between atoms: C_6  and  C_7
REMARK    7  A    between atoms: C_7  and  O_8
REMARK    8  A    between atoms: C_12  and  C_13
REMARK    9  A    between atoms: C_12  and  C_14
REMARK   10  A    between atoms: C_18  and  C_19
REMARK   11  A    between atoms: C_20  and  C_21
REMARK   12  A    between atoms: C_21  and  O_23
REMARK   13  A    between atoms: O_23  and  C_24
REMARK   14  A    between atoms: C_24  and  C_25
REMARK   15  A    between atoms: C_25  and  C_26
REMARK   16  A    between atoms: C_26  and  C_27
REMARK   17  A    between atoms: C_27  and  C_28
REMARK   18  A    between atoms: C_28  and  C_29
REMARK   19  A    between atoms: C_29  and  N_30
REMARK                            x       y       z     vdW  Elec       q    Type
REMARK                         _______ _______ _______ _____ _____    ______ ____
ROOT
ATOM      1  C   UNL     1      46.331 -17.760 -36.689  0.00  0.00    -0.062 C 
ATOM      2  C   UNL     1      46.388 -19.287 -36.637  0.00  0.00    -0.034 C 
ENDROOT
BRANCH   2   3
ATOM      3  C   UNL     1      46.860 -19.894 -37.976  0.00  0.00    -0.049 C 
BRANCH   3   4
ATOM      4  C   UNL     1      46.933 -18.923 -39.175  0.00  0.00    -0.046 C 
BRANCH   4   5
ATOM      5  C   UNL     1      46.051 -19.237 -40.422  0.00  0.00    -0.012 C 
ATOM      6  C   UNL     1      45.765 -20.749 -40.524  0.00  0.00    -0.045 C 
ATOM      7  C   UNL     1      44.562 -21.251 -40.172  0.00  0.00    -0.082 C 
ATOM      8  C   UNL     1      43.386 -20.448 -39.689  0.00  0.00    -0.031 C 
ATOM      9  C   UNL     1      43.711 -18.969 -39.405  0.00  0.00    -0.027 C 
ATOM     10  C   UNL     1      42.478 -18.042 -39.037  0.00  0.00    -0.031 C 
ATOM     11  C   UNL     1      42.678 -17.512 -37.593  0.00  0.00    -0.060 C 
ATOM     12  C   UNL     1      41.125 -18.788 -39.042  0.00  0.00    -0.060 C 
ATOM     13  C   UNL     1      42.326 -16.819 -39.972  0.00  0.00    -0.048 C 
ATOM     14  C   UNL     1      43.613 -16.068 -40.306  0.00  0.00    -0.052 C 
ATOM     15  C   UNL     1      44.889 -16.901 -40.208  0.00  0.00    -0.047 C 
ATOM     16  C   UNL     1      44.686 -18.406 -40.490  0.00  0.00    -0.022 C 
ATOM     17  C   UNL     1      44.150 -18.558 -41.948  0.00  0.00    -0.059 C 
BRANCH   6  18
ATOM     18  C   UNL     1      46.846 -21.591 -41.168  0.00  0.00    +0.066 C 
BRANCH  18  19
ATOM     19  O   UNL     1      47.586 -20.872 -42.145  0.00  0.00    -0.391 OA
ATOM     20  H   UNL     1      48.527 -21.094 -42.067  0.00  0.00    +0.000 HD
ENDBRANCH  18  19
ENDBRANCH   6  18
ENDBRANCH   4   5
ENDBRANCH   3   4
ENDBRANCH   2   3
BRANCH   2  21
ATOM     21  C   UNL     1      45.058 -19.901 -36.151  0.00  0.00    +0.048 C 
BRANCH  21  22
ATOM     22  C   UNL     1      44.852 -19.891 -34.652  0.00  0.00    +0.307 C 
ATOM     23  O   UNL     1      44.130 -20.727 -34.114  0.00  0.00    -0.251 OA
BRANCH  22  24
ATOM     24  O   UNL     1      45.471 -18.951 -33.903  0.00  0.00    -0.465 OA
BRANCH  24  25
ATOM     25  C   UNL     1      44.823 -18.005 -33.033  0.00  0.00    +0.092 C 
BRANCH  25  26
ATOM     26  C   UNL     1      44.237 -16.852 -33.844  0.00  0.00    -0.019 C 
BRANCH  26  27
ATOM     27  C   UNL     1      42.758 -16.653 -33.511  0.00  0.00    -0.050 C 
BRANCH  27  28
ATOM     28  C   UNL     1      42.095 -17.889 -32.897  0.00  0.00    -0.052 C 
BRANCH  28  29
ATOM     29  C   UNL     1      41.212 -18.650 -33.891  0.00  0.00    -0.040 C 
BRANCH  29  30
ATOM     30  C   UNL     1      40.796 -20.016 -33.324  0.00  0.00    -0.001 C 
BRANCH  30  31
ATOM     31  N   UNL     1      40.875 -21.099 -34.320  0.00  0.00    -0.302 N 
ATOM     32  C   UNL     1      41.200 -20.593 -35.663  0.00  0.00    -0.001 C 
ATOM     33  C   UNL     1      41.303 -21.730 -36.683  0.00  0.00    -0.040 C 
ATOM     34  C   UNL     1      40.029 -22.563 -36.721  0.00  0.00    -0.051 C 
ATOM     35  C   UNL     1      39.660 -23.023 -35.317  0.00  0.00    -0.040 C 
ATOM     36  C   UNL     1      39.603 -21.845 -34.344  0.00  0.00    -0.001 C 
ATOM     37  H   UNL     1      41.632 -21.724 -34.044  0.00  0.00    +0.000 HD
ENDBRANCH  30  31
ENDBRANCH  29  30
ENDBRANCH  28  29
ENDBRANCH  27  28
ENDBRANCH  26  27
ENDBRANCH  25  26
ENDBRANCH  24  25
ENDBRANCH  22  24
ENDBRANCH  21  22
ENDBRANCH   2  21
TORSDOF 15
ENDMDL
MODEL 6
REMARK VINA RESULT:    -5.701      2.728      5.697
REMARK INTER + INTRA:         -13.727
REMARK INTER:                 -10.565
REMARK INTRA:                  -3.163
REMARK UNBOUND:                -3.194
REMARK  Name = cpd286.pdb
REMARK  19 active torsions:
REMARK  status: ('A' for Active; 'I' for Inactive)
REMARK    1  A    between atoms: C_1  and  C_2
REMARK    2  A    between atoms: C_2  and  C_3
REMARK    3  A    between atoms: C_2  and  C_20
REMARK    4  A    between atoms: C_3  and  C_4
REMARK    5  A    between atoms: C_4  and  C_5
REMARK    6  A    between atoms: C_6  and  C_7
REMARK    7  A    between atoms: C_7  and  O_8
REMARK    8  A    between atoms: C_12  and  C_13
REMARK    9  A    between atoms: C_12  and  C_14
REMARK   10  A    between atoms: C_18  and  C_19
REMARK   11  A    between atoms: C_20  and  C_21
REMARK   12  A    between atoms: C_21  and  O_23
REMARK   13  A    between atoms: O_23  and  C_24
REMARK   14  A    between atoms: C_24  and  C_25
REMARK   15  A    between atoms: C_25  and  C_26
REMARK   16  A    between atoms: C_26  and  C_27
REMARK   17  A    between atoms: C_27  and  C_28
REMARK   18  A    between atoms: C_28  and  C_29
REMARK   19  A    between atoms: C_29  and  N_30
REMARK                            x       y       z     vdW  Elec       q    Type
REMARK                         _______ _______ _______ _____ _____    ______ ____
ROOT
ATOM      1  C   UNL     1      47.316 -16.186 -37.164  0.00  0.00    -0.062 C 
ATOM      2  C   UNL     1      45.931 -16.791 -36.929  0.00  0.00    -0.034 C 
ENDROOT
BRANCH   2   3
ATOM      3  C   UNL     1      44.840 -16.074 -37.755  0.00  0.00    -0.049 C 
BRANCH   3   4
ATOM      4  C   UNL     1      43.892 -16.985 -38.566  0.00  0.00    -0.046 C 
BRANCH   4   5
ATOM      5  C   UNL     1      44.191 -17.180 -40.084  0.00  0.00    -0.012 C 
ATOM      6  C   UNL     1      45.335 -16.252 -40.541  0.00  0.00    -0.045 C 
ATOM      7  C   UNL     1      46.579 -16.736 -40.747  0.00  0.00    -0.082 C 
ATOM      8  C   UNL     1      46.992 -18.175 -40.602  0.00  0.00    -0.031 C 
ATOM      9  C   UNL     1      45.915 -19.077 -39.970  0.00  0.00    -0.027 C 
ATOM     10  C   UNL     1      46.240 -20.628 -39.929  0.00  0.00    -0.031 C 
ATOM     11  C   UNL     1      46.315 -21.073 -38.445  0.00  0.00    -0.060 C 
ATOM     12  C   UNL     1      47.605 -20.987 -40.559  0.00  0.00    -0.060 C 
ATOM     13  C   UNL     1      45.172 -21.500 -40.631  0.00  0.00    -0.048 C 
ATOM     14  C   UNL     1      43.717 -21.144 -40.334  0.00  0.00    -0.052 C 
ATOM     15  C   UNL     1      43.481 -19.694 -39.917  0.00  0.00    -0.047 C 
ATOM     16  C   UNL     1      44.498 -18.692 -40.506  0.00  0.00    -0.022 C 
ATOM     17  C   UNL     1      44.385 -18.746 -42.062  0.00  0.00    -0.059 C 
BRANCH   6  18
ATOM     18  C   UNL     1      44.946 -14.828 -40.875  0.00  0.00    +0.066 C 
BRANCH  18  19
ATOM     19  O   UNL     1      43.690 -14.747 -41.534  0.00  0.00    -0.391 OA
ATOM     20  H   UNL     1      43.713 -15.284 -42.342  0.00  0.00    +0.000 HD
ENDBRANCH  18  19
ENDBRANCH   6  18
ENDBRANCH   4   5
ENDBRANCH   3   4
ENDBRANCH   2   3
BRANCH   2  21
ATOM     21  C   UNL     1      45.578 -16.864 -35.429  0.00  0.00    +0.048 C 
BRANCH  21  22
ATOM     22  C   UNL     1      46.305 -17.934 -34.646  0.00  0.00    +0.307 C 
ATOM     23  O   UNL     1      47.504 -17.826 -34.399  0.00  0.00    -0.251 OA
BRANCH  22  24
ATOM     24  O   UNL     1      45.623 -19.019 -34.214  0.00  0.00    -0.465 OA
BRANCH  24  25
ATOM     25  C   UNL     1      44.327 -19.005 -33.586  0.00  0.00    +0.092 C 
BRANCH  25  26
ATOM     26  C   UNL     1      43.402 -20.018 -34.254  0.00  0.00    -0.019 C 
BRANCH  26  27
ATOM     27  C   UNL     1      43.301 -19.752 -35.756  0.00  0.00    -0.050 C 
BRANCH  27  28
ATOM     28  C   UNL     1      43.079 -21.016 -36.590  0.00  0.00    -0.052 C 
BRANCH  28  29
ATOM     29  C   UNL     1      41.609 -21.235 -36.966  0.00  0.00    -0.040 C 
BRANCH  29  30
ATOM     30  C   UNL     1      41.045 -22.485 -36.275  0.00  0.00    -0.001 C 
BRANCH  30  31
ATOM     31  N   UNL     1      40.093 -22.166 -35.198  0.00  0.00    -0.302 N 
ATOM     32  C   UNL     1      39.693 -20.749 -35.215  0.00  0.00    -0.001 C 
ATOM     33  C   UNL     1      38.686 -20.435 -34.106  0.00  0.00    -0.040 C 
ATOM     34  C   UNL     1      39.226 -20.821 -32.736  0.00  0.00    -0.051 C 
ATOM     35  C   UNL     1      39.702 -22.267 -32.746  0.00  0.00    -0.040 C 
ATOM     36  C   UNL     1      40.681 -22.520 -33.893  0.00  0.00    -0.001 C 
ATOM     37  H   UNL     1      39.249 -22.716 -35.352  0.00  0.00    +0.000 HD
ENDBRANCH  30  31
ENDBRANCH  29  30
ENDBRANCH  28  29
ENDBRANCH  27  28
ENDBRANCH  26  27
ENDBRANCH  25  26
ENDBRANCH  24  25
ENDBRANCH  22  24
ENDBRANCH  21  22
ENDBRANCH   2  21
TORSDOF 15
ENDMDL
MODEL 7
REMARK VINA RESULT:    -5.682      2.875      7.729
REMARK INTER + INTRA:         -13.693
REMARK INTER:                 -11.373
REMARK INTRA:                  -2.320
REMARK UNBOUND:                -3.194
REMARK  Name = cpd286.pdb
REMARK  19 active torsions:
REMARK  status: ('A' for Active; 'I' for Inactive)
REMARK    1  A    between atoms: C_1  and  C_2
REMARK    2  A    between atoms: C_2  and  C_3
REMARK    3  A    between atoms: C_2  and  C_20
REMARK    4  A    between atoms: C_3  and  C_4
REMARK    5  A    between atoms: C_4  and  C_5
REMARK    6  A    between atoms: C_6  and  C_7
REMARK    7  A    between atoms: C_7  and  O_8
REMARK    8  A    between atoms: C_12  and  C_13
REMARK    9  A    between atoms: C_12  and  C_14
REMARK   10  A    between atoms: C_18  and  C_19
REMARK   11  A    between atoms: C_20  and  C_21
REMARK   12  A    between atoms: C_21  and  O_23
REMARK   13  A    between atoms: O_23  and  C_24
REMARK   14  A    between atoms: C_24  and  C_25
REMARK   15  A    between atoms: C_25  and  C_26
REMARK   16  A    between atoms: C_26  and  C_27
REMARK   17  A    between atoms: C_27  and  C_28
REMARK   18  A    between atoms: C_28  and  C_29
REMARK   19  A    between atoms: C_29  and  N_30
REMARK                            x       y       z     vdW  Elec       q    Type
REMARK                         _______ _______ _______ _____ _____    ______ ____
ROOT
ATOM      1  C   UNL     1      40.762 -17.099 -32.768  0.00  0.00    -0.062 C 
ATOM      2  C   UNL     1      41.990 -17.826 -33.316  0.00  0.00    -0.034 C 
ENDROOT
BRANCH   2   3
ATOM      3  C   UNL     1      42.107 -19.262 -32.759  0.00  0.00    -0.049 C 
BRANCH   3   4
ATOM      4  C   UNL     1      42.513 -20.354 -33.773  0.00  0.00    -0.046 C 
BRANCH   4   5
ATOM      5  C   UNL     1      41.476 -21.473 -34.093  0.00  0.00    -0.012 C 
ATOM      6  C   UNL     1      40.594 -21.772 -32.864  0.00  0.00    -0.045 C 
ATOM      7  C   UNL     1      39.326 -21.313 -32.794  0.00  0.00    -0.082 C 
ATOM      8  C   UNL     1      38.623 -20.520 -33.860  0.00  0.00    -0.031 C 
ATOM      9  C   UNL     1      39.542 -20.057 -35.007  0.00  0.00    -0.027 C 
ATOM     10  C   UNL     1      38.827 -19.346 -36.231  0.00  0.00    -0.031 C 
ATOM     11  C   UNL     1      39.348 -17.888 -36.322  0.00  0.00    -0.060 C 
ATOM     12  C   UNL     1      37.292 -19.250 -36.075  0.00  0.00    -0.060 C 
ATOM     13  C   UNL     1      39.104 -20.032 -37.589  0.00  0.00    -0.048 C 
ATOM     14  C   UNL     1      40.551 -20.447 -37.847  0.00  0.00    -0.052 C 
ATOM     15  C   UNL     1      41.383 -20.696 -36.591  0.00  0.00    -0.047 C 
ATOM     16  C   UNL     1      40.564 -21.181 -35.374  0.00  0.00    -0.022 C 
ATOM     17  C   UNL     1      39.889 -22.536 -35.754  0.00  0.00    -0.059 C 
BRANCH   6  18
ATOM     18  C   UNL     1      41.181 -22.712 -31.833  0.00  0.00    +0.066 C 
BRANCH  18  19
ATOM     19  O   UNL     1      41.669 -23.915 -32.410  0.00  0.00    -0.391 OA
ATOM     20  H   UNL     1      40.964 -24.335 -32.928  0.00  0.00    +0.000 HD
ENDBRANCH  18  19
ENDBRANCH   6  18
ENDBRANCH   4   5
ENDBRANCH   3   4
ENDBRANCH   2   3
BRANCH   2  21
ATOM     21  C   UNL     1      43.285 -17.012 -33.113  0.00  0.00    +0.048 C 
BRANCH  21  22
ATOM     22  C   UNL     1      44.570 -17.799 -33.243  0.00  0.00    +0.307 C 
ATOM     23  O   UNL     1      45.210 -18.124 -32.245  0.00  0.00    -0.251 OA
BRANCH  22  24
ATOM     24  O   UNL     1      45.013 -18.147 -34.472  0.00  0.00    -0.465 OA
BRANCH  24  25
ATOM     25  C   UNL     1      46.388 -18.358 -34.844  0.00  0.00    +0.092 C 
BRANCH  25  26
ATOM     26  C   UNL     1      46.648 -19.840 -35.099  0.00  0.00    -0.019 C 
BRANCH  26  27
ATOM     27  C   UNL     1      46.225 -20.229 -36.516  0.00  0.00    -0.050 C 
BRANCH  27  28
ATOM     28  C   UNL     1      46.319 -19.079 -37.522  0.00  0.00    -0.052 C 
BRANCH  28  29
ATOM     29  C   UNL     1      45.625 -19.389 -38.853  0.00  0.00    -0.040 C 
BRANCH  29  30
ATOM     30  C   UNL     1      44.885 -20.734 -38.787  0.00  0.00    -0.001 C 
BRANCH  30  31
ATOM     31  N   UNL     1      45.238 -21.638 -39.896  0.00  0.00    -0.302 N 
ATOM     32  C   UNL     1      46.652 -22.043 -39.852  0.00  0.00    -0.001 C 
ATOM     33  C   UNL     1      47.000 -23.000 -40.994  0.00  0.00    -0.040 C 
ATOM     34  C   UNL     1      46.659 -22.398 -42.350  0.00  0.00    -0.051 C 
ATOM     35  C   UNL     1      45.215 -21.917 -42.364  0.00  0.00    -0.040 C 
ATOM     36  C   UNL     1      44.927 -20.990 -41.183  0.00  0.00    -0.001 C 
ATOM     37  H   UNL     1      44.681 -22.486 -39.798  0.00  0.00    +0.000 HD
ENDBRANCH  30  31
ENDBRANCH  29  30
ENDBRANCH  28  29
ENDBRANCH  27  28
ENDBRANCH  26  27
ENDBRANCH  25  26
ENDBRANCH  24  25
ENDBRANCH  22  24
ENDBRANCH  21  22
ENDBRANCH   2  21
TORSDOF 15
ENDMDL
MODEL 8
REMARK VINA RESULT:    -5.631      2.869      7.225
REMARK INTER + INTRA:         -13.598
REMARK INTER:                 -10.158
REMARK INTRA:                  -3.440
REMARK UNBOUND:                -3.194
REMARK  Name = cpd286.pdb
REMARK  19 active torsions:
REMARK  status: ('A' for Active; 'I' for Inactive)
REMARK    1  A    between atoms: C_1  and  C_2
REMARK    2  A    between atoms: C_2  and  C_3
REMARK    3  A    between atoms: C_2  and  C_20
REMARK    4  A    between atoms: C_3  and  C_4
REMARK    5  A    between atoms: C_4  and  C_5
REMARK    6  A    between atoms: C_6  and  C_7
REMARK    7  A    between atoms: C_7  and  O_8
REMARK    8  A    between atoms: C_12  and  C_13
REMARK    9  A    between atoms: C_12  and  C_14
REMARK   10  A    between atoms: C_18  and  C_19
REMARK   11  A    between atoms: C_20  and  C_21
REMARK   12  A    between atoms: C_21  and  O_23
REMARK   13  A    between atoms: O_23  and  C_24
REMARK   14  A    between atoms: C_24  and  C_25
REMARK   15  A    between atoms: C_25  and  C_26
REMARK   16  A    between atoms: C_26  and  C_27
REMARK   17  A    between atoms: C_27  and  C_28
REMARK   18  A    between atoms: C_28  and  C_29
REMARK   19  A    between atoms: C_29  and  N_30
REMARK                            x       y       z     vdW  Elec       q    Type
REMARK                         _______ _______ _______ _____ _____    ______ ____
ROOT
ATOM      1  C   UNL     1      46.018 -18.309 -33.885  0.00  0.00    -0.062 C 
ATOM      2  C   UNL     1      46.049 -18.098 -35.399  0.00  0.00    -0.034 C 
ENDROOT
BRANCH   2   3
ATOM      3  C   UNL     1      45.741 -19.401 -36.170  0.00  0.00    -0.049 C 
BRANCH   3   4
ATOM      4  C   UNL     1      44.645 -19.307 -37.254  0.00  0.00    -0.046 C 
BRANCH   4   5
ATOM      5  C   UNL     1      43.302 -18.611 -36.874  0.00  0.00    -0.012 C 
ATOM      6  C   UNL     1      42.975 -17.474 -37.864  0.00  0.00    -0.045 C 
ATOM      7  C   UNL     1      42.038 -17.639 -38.822  0.00  0.00    -0.082 C 
ATOM      8  C   UNL     1      41.204 -18.873 -39.026  0.00  0.00    -0.031 C 
ATOM      9  C   UNL     1      41.644 -20.077 -38.172  0.00  0.00    -0.027 C 
ATOM     10  C   UNL     1      40.711 -21.357 -38.236  0.00  0.00    -0.031 C 
ATOM     11  C   UNL     1      41.530 -22.530 -38.837  0.00  0.00    -0.060 C 
ATOM     12  C   UNL     1      39.479 -21.175 -39.151  0.00  0.00    -0.060 C 
ATOM     13  C   UNL     1      40.187 -21.808 -36.852  0.00  0.00    -0.048 C 
ATOM     14  C   UNL     1      41.212 -21.820 -35.720  0.00  0.00    -0.052 C 
ATOM     15  C   UNL     1      42.389 -20.865 -35.906  0.00  0.00    -0.047 C 
ATOM     16  C   UNL     1      42.058 -19.607 -36.739  0.00  0.00    -0.022 C 
ATOM     17  C   UNL     1      40.937 -18.815 -35.996  0.00  0.00    -0.059 C 
BRANCH   6  18
ATOM     18  C   UNL     1      43.653 -16.146 -37.603  0.00  0.00    +0.066 C 
BRANCH  18  19
ATOM     19  O   UNL     1      43.633 -15.786 -36.229  0.00  0.00    -0.391 OA
ATOM     20  H   UNL     1      43.159 -14.946 -36.121  0.00  0.00    +0.000 HD
ENDBRANCH  18  19
ENDBRANCH   6  18
ENDBRANCH   4   5
ENDBRANCH   3   4
ENDBRANCH   2   3
BRANCH   2  21
ATOM     21  C   UNL     1      47.363 -17.438 -35.865  0.00  0.00    +0.048 C 
BRANCH  21  22
ATOM     22  C   UNL     1      47.262 -16.622 -37.135  0.00  0.00    +0.307 C 
ATOM     23  O   UNL     1      47.108 -15.404 -37.088  0.00  0.00    -0.251 OA
BRANCH  22  24
ATOM     24  O   UNL     1      47.343 -17.246 -38.333  0.00  0.00    -0.465 OA
BRANCH  24  25
ATOM     25  C   UNL     1      47.059 -16.652 -39.613  0.00  0.00    +0.092 C 
BRANCH  25  26
ATOM     26  C   UNL     1      46.603 -17.719 -40.605  0.00  0.00    -0.019 C 
BRANCH  26  27
ATOM     27  C   UNL     1      45.131 -17.527 -40.970  0.00  0.00    -0.050 C 
BRANCH  27  28
ATOM     28  C   UNL     1      44.505 -18.742 -41.658  0.00  0.00    -0.052 C 
BRANCH  28  29
ATOM     29  C   UNL     1      44.389 -19.960 -40.735  0.00  0.00    -0.040 C 
BRANCH  29  30
ATOM     30  C   UNL     1      44.381 -21.266 -41.544  0.00  0.00    -0.001 C 
BRANCH  30  31
ATOM     31  N   UNL     1      45.532 -22.135 -41.243  0.00  0.00    -0.302 N 
ATOM     32  C   UNL     1      46.531 -21.457 -40.401  0.00  0.00    -0.001 C 
ATOM     33  C   UNL     1      47.709 -22.378 -40.074  0.00  0.00    -0.040 C 
ATOM     34  C   UNL     1      48.358 -22.924 -41.340  0.00  0.00    -0.051 C 
ATOM     35  C   UNL     1      47.306 -23.560 -42.238  0.00  0.00    -0.040 C 
ATOM     36  C   UNL     1      46.146 -22.599 -42.499  0.00  0.00    -0.001 C 
ATOM     37  H   UNL     1      45.189 -22.936 -40.714  0.00  0.00    +0.000 HD
ENDBRANCH  30  31
ENDBRANCH  29  30
ENDBRANCH  28  29
ENDBRANCH  27  28
ENDBRANCH  26  27
ENDBRANCH  25  26
ENDBRANCH  24  25
ENDBRANCH  22  24
ENDBRANCH  21  22
ENDBRANCH   2  21
TORSDOF 15
ENDMDL
MODEL 9
REMARK VINA RESULT:    -5.575      2.534      7.168
REMARK INTER + INTRA:         -13.495
REMARK INTER:                  -9.699
REMARK INTRA:                  -3.796
REMARK UNBOUND:                -3.194
REMARK  Name = cpd286.pdb
REMARK  19 active torsions:
REMARK  status: ('A' for Active; 'I' for Inactive)
REMARK    1  A    between atoms: C_1  and  C_2
REMARK    2  A    between atoms: C_2  and  C_3
REMARK    3  A    between atoms: C_2  and  C_20
REMARK    4  A    between atoms: C_3  and  C_4
REMARK    5  A    between atoms: C_4  and  C_5
REMARK    6  A    between atoms: C_6  and  C_7
REMARK    7  A    between atoms: C_7  and  O_8
REMARK    8  A    between atoms: C_12  and  C_13
REMARK    9  A    between atoms: C_12  and  C_14
REMARK   10  A    between atoms: C_18  and  C_19
REMARK   11  A    between atoms: C_20  and  C_21
REMARK   12  A    between atoms: C_21  and  O_23
REMARK   13  A    between atoms: O_23  and  C_24
REMARK   14  A    between atoms: C_24  and  C_25
REMARK   15  A    between atoms: C_25  and  C_26
REMARK   16  A    between atoms: C_26  and  C_27
REMARK   17  A    between atoms: C_27  and  C_28
REMARK   18  A    between atoms: C_28  and  C_29
REMARK   19  A    between atoms: C_29  and  N_30
REMARK                            x       y       z     vdW  Elec       q    Type
REMARK                         _______ _______ _______ _____ _____    ______ ____
ROOT
ATOM      1  C   UNL     1      42.307 -16.839 -35.866  0.00  0.00    -0.062 C 
ATOM      2  C   UNL     1      43.108 -17.790 -34.976  0.00  0.00    -0.034 C 
ENDROOT
BRANCH   2   3
ATOM      3  C   UNL     1      42.191 -18.689 -34.117  0.00  0.00    -0.049 C 
BRANCH   3   4
ATOM      4  C   UNL     1      42.308 -20.210 -34.359  0.00  0.00    -0.046 C 
BRANCH   4   5
ATOM      5  C   UNL     1      40.994 -21.013 -34.601  0.00  0.00    -0.012 C 
ATOM      6  C   UNL     1      39.792 -20.308 -33.941  0.00  0.00    -0.045 C 
ATOM      7  C   UNL     1      38.907 -19.608 -34.683  0.00  0.00    -0.082 C 
ATOM      8  C   UNL     1      38.949 -19.453 -36.178  0.00  0.00    -0.031 C 
ATOM      9  C   UNL     1      40.237 -19.991 -36.829  0.00  0.00    -0.027 C 
ATOM     10  C   UNL     1      40.271 -19.989 -38.414  0.00  0.00    -0.031 C 
ATOM     11  C   UNL     1      41.408 -19.041 -38.878  0.00  0.00    -0.060 C 
ATOM     12  C   UNL     1      38.971 -19.454 -39.057  0.00  0.00    -0.060 C 
ATOM     13  C   UNL     1      40.540 -21.384 -39.026  0.00  0.00    -0.048 C 
ATOM     14  C   UNL     1      41.645 -22.204 -38.364  0.00  0.00    -0.052 C 
ATOM     15  C   UNL     1      41.915 -21.858 -36.901  0.00  0.00    -0.047 C 
ATOM     16  C   UNL     1      40.683 -21.321 -36.139  0.00  0.00    -0.022 C 
ATOM     17  C   UNL     1      39.584 -22.428 -36.154  0.00  0.00    -0.059 C 
BRANCH   6  18
ATOM     18  C   UNL     1      39.593 -20.570 -32.463  0.00  0.00    +0.066 C 
BRANCH  18  19
ATOM     19  O   UNL     1      38.892 -21.781 -32.214  0.00  0.00    -0.391 OA
ATOM     20  H   UNL     1      38.423 -21.715 -31.368  0.00  0.00    +0.000 HD
ENDBRANCH  18  19
ENDBRANCH   6  18
ENDBRANCH   4   5
ENDBRANCH   3   4
ENDBRANCH   2   3
BRANCH   2  21
ATOM     21  C   UNL     1      44.159 -17.044 -34.128  0.00  0.00    +0.048 C 
BRANCH  21  22
ATOM     22  C   UNL     1      45.096 -17.928 -33.335  0.00  0.00    +0.307 C 
ATOM     23  O   UNL     1      45.166 -17.831 -32.112  0.00  0.00    -0.251 OA
BRANCH  22  24
ATOM     24  O   UNL     1      45.860 -18.835 -33.985  0.00  0.00    -0.465 OA
BRANCH  24  25
ATOM     25  C   UNL     1      47.070 -18.551 -34.712  0.00  0.00    +0.092 C 
BRANCH  25  26
ATOM     26  C   UNL     1      46.994 -19.135 -36.119  0.00  0.00    -0.019 C 
BRANCH  26  27
ATOM     27  C   UNL     1      45.844 -20.138 -36.229  0.00  0.00    -0.050 C 
BRANCH  27  28
ATOM     28  C   UNL     1      44.926 -19.891 -37.428  0.00  0.00    -0.052 C 
BRANCH  28  29
ATOM     29  C   UNL     1      45.245 -20.797 -38.623  0.00  0.00    -0.040 C 
BRANCH  29  30
ATOM     30  C   UNL     1      45.982 -20.019 -39.723  0.00  0.00    -0.001 C 
BRANCH  30  31
ATOM     31  N   UNL     1      45.612 -18.594 -39.764  0.00  0.00    -0.302 N 
ATOM     32  C   UNL     1      44.748 -18.279 -40.914  0.00  0.00    -0.001 C 
ATOM     33  C   UNL     1      44.351 -16.801 -40.932  0.00  0.00    -0.040 C 
ATOM     34  C   UNL     1      45.574 -15.894 -40.919  0.00  0.00    -0.051 C 
ATOM     35  C   UNL     1      46.497 -16.272 -39.769  0.00  0.00    -0.040 C 
ATOM     36  C   UNL     1      46.830 -17.764 -39.793  0.00  0.00    -0.001 C 
ATOM     37  H   UNL     1      45.077 -18.384 -38.922  0.00  0.00    +0.000 HD
ENDBRANCH  30  31
ENDBRANCH  29  30
ENDBRANCH  28  29
ENDBRANCH  27  28
ENDBRANCH  26  27
ENDBRANCH  25  26
ENDBRANCH  24  25
ENDBRANCH  22  24
ENDBRANCH  21  22
ENDBRANCH   2  21
TORSDOF 15
ENDMDL
MODEL 10
REMARK VINA RESULT:    -5.504      2.016      4.072
REMARK INTER + INTRA:         -13.363
REMARK INTER:                 -10.213
REMARK INTRA:                  -3.150
REMARK UNBOUND:                -3.194
REMARK  Name = cpd286.pdb
REMARK  19 active torsions:
REMARK  status: ('A' for Active; 'I' for Inactive)
REMARK    1  A    between atoms: C_1  and  C_2
REMARK    2  A    between atoms: C_2  and  C_3
REMARK    3  A    between atoms: C_2  and  C_20
REMARK    4  A    between atoms: C_3  and  C_4
REMARK    5  A    between atoms: C_4  and  C_5
REMARK    6  A    between atoms: C_6  and  C_7
REMARK    7  A    between atoms: C_7  and  O_8
REMARK    8  A    between atoms: C_12  and  C_13
REMARK    9  A    between atoms: C_12  and  C_14
REMARK   10  A    between atoms: C_18  and  C_19
REMARK   11  A    between atoms: C_20  and  C_21
REMARK   12  A    between atoms: C_21  and  O_23
REMARK   13  A    between atoms: O_23  and  C_24
REMARK   14  A    between atoms: C_24  and  C_25
REMARK   15  A    between atoms: C_25  and  C_26
REMARK   16  A    between atoms: C_26  and  C_27
REMARK   17  A    between atoms: C_27  and  C_28
REMARK   18  A    between atoms: C_28  and  C_29
REMARK   19  A    between atoms: C_29  and  N_30
REMARK                            x       y       z     vdW  Elec       q    Type
REMARK                         _______ _______ _______ _____ _____    ______ ____
ROOT
ATOM      1  C   UNL     1      41.636 -19.030 -38.008  0.00  0.00    -0.062 C 
ATOM      2  C   UNL     1      42.261 -19.839 -36.872  0.00  0.00    -0.034 C 
ENDROOT
BRANCH   2   3
ATOM      3  C   UNL     1      43.683 -19.346 -36.525  0.00  0.00    -0.049 C 
BRANCH   3   4
ATOM      4  C   UNL     1      44.186 -18.113 -37.308  0.00  0.00    -0.046 C 
BRANCH   4   5
ATOM      5  C   UNL     1      45.550 -18.230 -38.053  0.00  0.00    -0.012 C 
ATOM      6  C   UNL     1      46.509 -19.171 -37.297  0.00  0.00    -0.045 C 
ATOM      7  C   UNL     1      46.734 -20.429 -37.735  0.00  0.00    -0.082 C 
ATOM      8  C   UNL     1      46.140 -21.042 -38.972  0.00  0.00    -0.031 C 
ATOM      9  C   UNL     1      45.043 -20.186 -39.634  0.00  0.00    -0.027 C 
ATOM     10  C   UNL     1      44.489 -20.714 -41.022  0.00  0.00    -0.031 C 
ATOM     11  C   UNL     1      42.982 -21.043 -40.853  0.00  0.00    -0.060 C 
ATOM     12  C   UNL     1      45.167 -22.018 -41.500  0.00  0.00    -0.060 C 
ATOM     13  C   UNL     1      44.621 -19.685 -42.170  0.00  0.00    -0.048 C 
ATOM     14  C   UNL     1      44.230 -18.248 -41.829  0.00  0.00    -0.052 C 
ATOM     15  C   UNL     1      44.345 -17.883 -40.351  0.00  0.00    -0.047 C 
ATOM     16  C   UNL     1      45.430 -18.672 -39.585  0.00  0.00    -0.022 C 
ATOM     17  C   UNL     1      46.810 -18.361 -40.244  0.00  0.00    -0.059 C 
BRANCH   6  18
ATOM     18  C   UNL     1      47.274 -18.559 -36.143  0.00  0.00    +0.066 C 
BRANCH  18  19
ATOM     19  O   UNL     1      47.356 -17.143 -36.235  0.00  0.00    -0.391 OA
ATOM     20  H   UNL     1      46.831 -16.837 -36.991  0.00  0.00    +0.000 HD
ENDBRANCH  18  19
ENDBRANCH   6  18
ENDBRANCH   4   5
ENDBRANCH   3   4
ENDBRANCH   2   3
BRANCH   2  21
ATOM     21  C   UNL     1      42.218 -21.357 -37.148  0.00  0.00    +0.048 C 
BRANCH  21  22
ATOM     22  C   UNL     1      40.865 -22.009 -36.963  0.00  0.00    +0.307 C 
ATOM     23  O   UNL     1      40.539 -22.979 -37.642  0.00  0.00    -0.251 OA
BRANCH  22  24
ATOM     24  O   UNL     1      40.012 -21.515 -36.037  0.00  0.00    -0.465 OA
BRANCH  24  25
ATOM     25  C   UNL     1      39.281 -22.289 -35.068  0.00  0.00    +0.092 C 
BRANCH  25  26
ATOM     26  C   UNL     1      40.240 -22.948 -34.081  0.00  0.00    -0.019 C 
BRANCH  26  27
ATOM     27  C   UNL     1      41.013 -21.893 -33.288  0.00  0.00    -0.050 C 
BRANCH  27  28
ATOM     28  C   UNL     1      40.147 -20.719 -32.823  0.00  0.00    -0.052 C 
BRANCH  28  29
ATOM     29  C   UNL     1      40.798 -19.356 -33.082  0.00  0.00    -0.040 C 
BRANCH  29  30
ATOM     30  C   UNL     1      42.311 -19.410 -32.819  0.00  0.00    -0.001 C 
BRANCH  30  31
ATOM     31  N   UNL     1      42.906 -18.077 -32.618  0.00  0.00    -0.302 N 
ATOM     32  C   UNL     1      41.981 -16.995 -32.994  0.00  0.00    -0.001 C 
ATOM     33  C   UNL     1      42.602 -15.616 -32.758  0.00  0.00    -0.040 C 
ATOM     34  C   UNL     1      43.927 -15.467 -33.495  0.00  0.00    -0.051 C 
ATOM     35  C   UNL     1      44.851 -16.628 -33.155  0.00  0.00    -0.040 C 
ATOM     36  C   UNL     1      44.161 -17.973 -33.385  0.00  0.00    -0.001 C 
ATOM     37  H   UNL     1      43.104 -17.969 -31.624  0.00  0.00    +0.000 HD
ENDBRANCH  30  31
ENDBRANCH  29  30
ENDBRANCH  28  29
ENDBRANCH  27  28
ENDBRANCH  26  27
ENDBRANCH  25  26
ENDBRANCH  24  25
ENDBRANCH  22  24
ENDBRANCH  21  22
ENDBRANCH   2  21
TORSDOF 15
ENDMDL
MODEL 11
REMARK VINA RESULT:    -5.475      2.312      6.931
REMARK INTER + INTRA:         -13.309
REMARK INTER:                  -9.386
REMARK INTRA:                  -3.923
REMARK UNBOUND:                -3.194
REMARK  Name = cpd286.pdb
REMARK  19 active torsions:
REMARK  status: ('A' for Active; 'I' for Inactive)
REMARK    1  A    between atoms: C_1  and  C_2
REMARK    2  A    between atoms: C_2  and  C_3
REMARK    3  A    between atoms: C_2  and  C_20
REMARK    4  A    between atoms: C_3  and  C_4
REMARK    5  A    between atoms: C_4  and  C_5
REMARK    6  A    between atoms: C_6  and  C_7
REMARK    7  A    between atoms: C_7  and  O_8
REMARK    8  A    between atoms: C_12  and  C_13
REMARK    9  A    between atoms: C_12  and  C_14
REMARK   10  A    between atoms: C_18  and  C_19
REMARK   11  A    between atoms: C_20  and  C_21
REMARK   12  A    between atoms: C_21  and  O_23
REMARK   13  A    between atoms: O_23  and  C_24
REMARK   14  A    between atoms: C_24  and  C_25
REMARK   15  A    between atoms: C_25  and  C_26
REMARK   16  A    between atoms: C_26  and  C_27
REMARK   17  A    between atoms: C_27  and  C_28
REMARK   18  A    between atoms: C_28  and  C_29
REMARK   19  A    between atoms: C_29  and  N_30
REMARK                            x       y       z     vdW  Elec       q    Type
REMARK                         _______ _______ _______ _____ _____    ______ ____
ROOT
ATOM      1  C   UNL     1      39.597 -17.265 -36.498  0.00  0.00    -0.062 C 
ATOM      2  C   UNL     1      40.472 -17.757 -37.651  0.00  0.00    -0.034 C 
ENDROOT
BRANCH   2   3
ATOM      3  C   UNL     1      39.865 -18.993 -38.350  0.00  0.00    -0.049 C 
BRANCH   3   4
ATOM      4  C   UNL     1      38.763 -19.743 -37.570  0.00  0.00    -0.046 C 
BRANCH   4   5
ATOM      5  C   UNL     1      39.081 -21.183 -37.062  0.00  0.00    -0.012 C 
ATOM      6  C   UNL     1      40.398 -21.702 -37.674  0.00  0.00    -0.045 C 
ATOM      7  C   UNL     1      41.534 -21.735 -36.945  0.00  0.00    -0.082 C 
ATOM      8  C   UNL     1      41.660 -21.326 -35.503  0.00  0.00    -0.031 C 
ATOM      9  C   UNL     1      40.406 -20.635 -34.935  0.00  0.00    -0.027 C 
ATOM     10  C   UNL     1      40.428 -20.317 -33.382  0.00  0.00    -0.031 C 
ATOM     11  C   UNL     1      40.356 -18.778 -33.196  0.00  0.00    -0.060 C 
ATOM     12  C   UNL     1      41.725 -20.778 -32.678  0.00  0.00    -0.060 C 
ATOM     13  C   UNL     1      39.243 -20.942 -32.608  0.00  0.00    -0.048 C 
ATOM     14  C   UNL     1      37.872 -20.814 -33.267  0.00  0.00    -0.052 C 
ATOM     15  C   UNL     1      37.899 -20.658 -34.786  0.00  0.00    -0.047 C 
ATOM     16  C   UNL     1      39.111 -21.328 -35.470  0.00  0.00    -0.022 C 
ATOM     17  C   UNL     1      39.054 -22.858 -35.166  0.00  0.00    -0.059 C 
BRANCH   6  18
ATOM     18  C   UNL     1      40.301 -22.292 -39.064  0.00  0.00    +0.066 C 
BRANCH  18  19
ATOM     19  O   UNL     1      41.017 -23.513 -39.187  0.00  0.00    -0.391 OA
ATOM     20  H   UNL     1      40.448 -24.182 -39.599  0.00  0.00    +0.000 HD
ENDBRANCH  18  19
ENDBRANCH   6  18
ENDBRANCH   4   5
ENDBRANCH   3   4
ENDBRANCH   2   3
BRANCH   2  21
ATOM     21  C   UNL     1      41.933 -17.989 -37.212  0.00  0.00    +0.048 C 
BRANCH  21  22
ATOM     22  C   UNL     1      42.982 -17.617 -38.237  0.00  0.00    +0.307 C 
ATOM     23  O   UNL     1      43.199 -16.440 -38.513  0.00  0.00    -0.251 OA
BRANCH  22  24
ATOM     24  O   UNL     1      43.685 -18.596 -38.851  0.00  0.00    -0.465 OA
BRANCH  24  25
ATOM     25  C   UNL     1      43.163 -19.535 -39.810  0.00  0.00    +0.092 C 
BRANCH  25  26
ATOM     26  C   UNL     1      44.257 -19.961 -40.785  0.00  0.00    -0.019 C 
BRANCH  26  27
ATOM     27  C   UNL     1      45.638 -19.830 -40.142  0.00  0.00    -0.050 C 
BRANCH  27  28
ATOM     28  C   UNL     1      46.075 -21.077 -39.368  0.00  0.00    -0.052 C 
BRANCH  28  29
ATOM     29  C   UNL     1      46.594 -20.757 -37.962  0.00  0.00    -0.040 C 
BRANCH  29  30
ATOM     30  C   UNL     1      46.786 -19.244 -37.778  0.00  0.00    -0.001 C 
BRANCH  30  31
ATOM     31  N   UNL     1      45.830 -18.656 -36.823  0.00  0.00    -0.302 N 
ATOM     32  C   UNL     1      46.299 -17.366 -36.293  0.00  0.00    -0.001 C 
ATOM     33  C   UNL     1      45.287 -16.754 -35.322  0.00  0.00    -0.040 C 
ATOM     34  C   UNL     1      44.957 -17.710 -34.184  0.00  0.00    -0.051 C 
ATOM     35  C   UNL     1      44.540 -19.065 -34.740  0.00  0.00    -0.040 C 
ATOM     36  C   UNL     1      45.579 -19.605 -35.723  0.00  0.00    -0.001 C 
ATOM     37  H   UNL     1      44.960 -18.476 -37.323  0.00  0.00    +0.000 HD
ENDBRANCH  30  31
ENDBRANCH  29  30
ENDBRANCH  28  29
ENDBRANCH  27  28
ENDBRANCH  26  27
ENDBRANCH  25  26
ENDBRANCH  24  25
ENDBRANCH  22  24
ENDBRANCH  21  22
ENDBRANCH   2  21
TORSDOF 15
ENDMDL
MODEL 12
REMARK VINA RESULT:    -5.415      2.458      5.326
REMARK INTER + INTRA:         -13.199
REMARK INTER:                  -9.126
REMARK INTRA:                  -4.073
REMARK UNBOUND:                -3.194
REMARK  Name = cpd286.pdb
REMARK  19 active torsions:
REMARK  status: ('A' for Active; 'I' for Inactive)
REMARK    1  A    between atoms: C_1  and  C_2
REMARK    2  A    between atoms: C_2  and  C_3
REMARK    3  A    between atoms: C_2  and  C_20
REMARK    4  A    between atoms: C_3  and  C_4
REMARK    5  A    between atoms: C_4  and  C_5
REMARK    6  A    between atoms: C_6  and  C_7
REMARK    7  A    between atoms: C_7  and  O_8
REMARK    8  A    between atoms: C_12  and  C_13
REMARK    9  A    between atoms: C_12  and  C_14
REMARK   10  A    between atoms: C_18  and  C_19
REMARK   11  A    between atoms: C_20  and  C_21
REMARK   12  A    between atoms: C_21  and  O_23
REMARK   13  A    between atoms: O_23  and  C_24
REMARK   14  A    between atoms: C_24  and  C_25
REMARK   15  A    between atoms: C_25  and  C_26
REMARK   16  A    between atoms: C_26  and  C_27
REMARK   17  A    between atoms: C_27  and  C_28
REMARK   18  A    between atoms: C_28  and  C_29
REMARK   19  A    between atoms: C_29  and  N_30
REMARK                            x       y       z     vdW  Elec       q    Type
REMARK                         _______ _______ _______ _____ _____    ______ ____
ROOT
ATOM      1  C   UNL     1      41.833 -16.553 -34.062  0.00  0.00    -0.062 C 
ATOM      2  C   UNL     1      41.761 -18.080 -34.052  0.00  0.00    -0.034 C 
ENDROOT
BRANCH   2   3
ATOM      3  C   UNL     1      43.161 -18.724 -33.946  0.00  0.00    -0.049 C 
BRANCH   3   4
ATOM      4  C   UNL     1      44.363 -17.764 -34.079  0.00  0.00    -0.046 C 
BRANCH   4   5
ATOM      5  C   UNL     1      45.395 -18.042 -35.215  0.00  0.00    -0.012 C 
ATOM      6  C   UNL     1      45.453 -19.546 -35.547  0.00  0.00    -0.045 C 
ATOM      7  C   UNL     1      44.857 -20.034 -36.656  0.00  0.00    -0.082 C 
ATOM      8  C   UNL     1      44.122 -19.219 -37.684  0.00  0.00    -0.031 C 
ATOM      9  C   UNL     1      43.896 -17.751 -37.276  0.00  0.00    -0.027 C 
ATOM     10  C   UNL     1      43.259 -16.810 -38.382  0.00  0.00    -0.031 C 
ATOM     11  C   UNL     1      41.885 -16.308 -37.865  0.00  0.00    -0.060 C 
ATOM     12  C   UNL     1      42.982 -17.532 -39.720  0.00  0.00    -0.060 C 
ATOM     13  C   UNL     1      44.124 -15.568 -38.706  0.00  0.00    -0.048 C 
ATOM     14  C   UNL     1      44.717 -14.833 -37.506  0.00  0.00    -0.052 C 
ATOM     15  C   UNL     1      44.906 -15.690 -36.256  0.00  0.00    -0.047 C 
ATOM     16  C   UNL     1      45.157 -17.187 -36.545  0.00  0.00    -0.022 C 
ATOM     17  C   UNL     1      46.467 -17.304 -37.385  0.00  0.00    -0.059 C 
BRANCH   6  18
ATOM     18  C   UNL     1      46.325 -20.396 -34.647  0.00  0.00    +0.066 C 
BRANCH  18  19
ATOM     19  O   UNL     1      45.565 -21.241 -33.794  0.00  0.00    -0.391 OA
ATOM     20  H   UNL     1      46.140 -21.605 -33.103  0.00  0.00    +0.000 HD
ENDBRANCH  18  19
ENDBRANCH   6  18
ENDBRANCH   4   5
ENDBRANCH   3   4
ENDBRANCH   2   3
BRANCH   2  21
ATOM     21  C   UNL     1      40.951 -18.630 -35.244  0.00  0.00    +0.048 C 
BRANCH  21  22
ATOM     22  C   UNL     1      40.132 -19.869 -34.952  0.00  0.00    +0.307 C 
ATOM     23  O   UNL     1      39.026 -19.779 -34.425  0.00  0.00    -0.251 OA
BRANCH  22  24
ATOM     24  O   UNL     1      40.628 -21.084 -35.279  0.00  0.00    -0.465 OA
BRANCH  24  25
ATOM     25  C   UNL     1      41.690 -21.336 -36.218  0.00  0.00    +0.092 C 
BRANCH  25  26
ATOM     26  C   UNL     1      41.134 -21.967 -37.492  0.00  0.00    -0.019 C 
BRANCH  26  27
ATOM     27  C   UNL     1      40.446 -20.915 -38.362  0.00  0.00    -0.050 C 
BRANCH  27  28
ATOM     28  C   UNL     1      40.989 -20.852 -39.793  0.00  0.00    -0.052 C 
BRANCH  28  29
ATOM     29  C   UNL     1      42.371 -21.497 -39.938  0.00  0.00    -0.040 C 
BRANCH  29  30
ATOM     30  C   UNL     1      43.079 -21.002 -41.208  0.00  0.00    -0.001 C 
BRANCH  30  31
ATOM     31  N   UNL     1      44.535 -21.227 -41.179  0.00  0.00    -0.302 N 
ATOM     32  C   UNL     1      44.965 -21.904 -39.945  0.00  0.00    -0.001 C 
ATOM     33  C   UNL     1      46.475 -22.154 -39.938  0.00  0.00    -0.040 C 
ATOM     34  C   UNL     1      47.256 -20.863 -40.139  0.00  0.00    -0.051 C 
ATOM     35  C   UNL     1      46.756 -20.133 -41.378  0.00  0.00    -0.040 C 
ATOM     36  C   UNL     1      45.240 -19.942 -41.335  0.00  0.00    -0.001 C 
ATOM     37  H   UNL     1      44.772 -21.843 -41.956  0.00  0.00    +0.000 HD
ENDBRANCH  30  31
ENDBRANCH  29  30
ENDBRANCH  28  29
ENDBRANCH  27  28
ENDBRANCH  26  27
ENDBRANCH  25  26
ENDBRANCH  24  25
ENDBRANCH  22  24
ENDBRANCH  21  22
ENDBRANCH   2  21
TORSDOF 15
ENDMDL
MODEL 13
REMARK VINA RESULT:    -5.396      2.228      4.401
REMARK INTER + INTRA:         -13.164
REMARK INTER:                  -9.827
REMARK INTRA:                  -3.337
REMARK UNBOUND:                -3.194
REMARK  Name = cpd286.pdb
REMARK  19 active torsions:
REMARK  status: ('A' for Active; 'I' for Inactive)
REMARK    1  A    between atoms: C_1  and  C_2
REMARK    2  A    between atoms: C_2  and  C_3
REMARK    3  A    between atoms: C_2  and  C_20
REMARK    4  A    between atoms: C_3  and  C_4
REMARK    5  A    between atoms: C_4  and  C_5
REMARK    6  A    between atoms: C_6  and  C_7
REMARK    7  A    between atoms: C_7  and  O_8
REMARK    8  A    between atoms: C_12  and  C_13
REMARK    9  A    between atoms: C_12  and  C_14
REMARK   10  A    between atoms: C_18  and  C_19
REMARK   11  A    between atoms: C_20  and  C_21
REMARK   12  A    between atoms: C_21  and  O_23
REMARK   13  A    between atoms: O_23  and  C_24
REMARK   14  A    between atoms: C_24  and  C_25
REMARK   15  A    between atoms: C_25  and  C_26
REMARK   16  A    between atoms: C_26  and  C_27
REMARK   17  A    between atoms: C_27  and  C_28
REMARK   18  A    between atoms: C_28  and  C_29
REMARK   19  A    between atoms: C_29  and  N_30
REMARK                            x       y       z     vdW  Elec       q    Type
REMARK                         _______ _______ _______ _____ _____    ______ ____
ROOT
ATOM      1  C   UNL     1      41.023 -17.071 -36.397  0.00  0.00    -0.062 C 
ATOM      2  C   UNL     1      41.999 -17.940 -37.191  0.00  0.00    -0.034 C 
ENDROOT
BRANCH   2   3
ATOM      3  C   UNL     1      43.415 -17.326 -37.235  0.00  0.00    -0.049 C 
BRANCH   3   4
ATOM      4  C   UNL     1      43.858 -16.732 -38.590  0.00  0.00    -0.046 C 
BRANCH   4   5
ATOM      5  C   UNL     1      45.286 -17.082 -39.107  0.00  0.00    -0.012 C 
ATOM      6  C   UNL     1      46.209 -17.486 -37.939  0.00  0.00    -0.045 C 
ATOM      7  C   UNL     1      46.517 -18.782 -37.717  0.00  0.00    -0.082 C 
ATOM      8  C   UNL     1      46.058 -19.945 -38.552  0.00  0.00    -0.031 C 
ATOM      9  C   UNL     1      44.993 -19.581 -39.604  0.00  0.00    -0.027 C 
ATOM     10  C   UNL     1      44.582 -20.737 -40.609  0.00  0.00    -0.031 C 
ATOM     11  C   UNL     1      43.079 -21.059 -40.396  0.00  0.00    -0.060 C 
ATOM     12  C   UNL     1      45.347 -22.059 -40.373  0.00  0.00    -0.060 C 
ATOM     13  C   UNL     1      44.777 -20.357 -42.097  0.00  0.00    -0.048 C 
ATOM     14  C   UNL     1      44.305 -18.962 -42.499  0.00  0.00    -0.052 C 
ATOM     15  C   UNL     1      44.276 -17.940 -41.365  0.00  0.00    -0.047 C 
ATOM     16  C   UNL     1      45.317 -18.197 -40.253  0.00  0.00    -0.022 C 
ATOM     17  C   UNL     1      46.738 -18.129 -40.896  0.00  0.00    -0.059 C 
BRANCH   6  18
ATOM     18  C   UNL     1      46.846 -16.350 -37.168  0.00  0.00    +0.066 C 
BRANCH  18  19
ATOM     19  O   UNL     1      47.447 -15.384 -38.019  0.00  0.00    -0.391 OA
ATOM     20  H   UNL     1      47.917 -14.727 -37.482  0.00  0.00    +0.000 HD
ENDBRANCH  18  19
ENDBRANCH   6  18
ENDBRANCH   4   5
ENDBRANCH   3   4
ENDBRANCH   2   3
BRANCH   2  21
ATOM     21  C   UNL     1      41.462 -18.276 -38.598  0.00  0.00    +0.048 C 
BRANCH  21  22
ATOM     22  C   UNL     1      40.307 -19.253 -38.633  0.00  0.00    +0.307 C 
ATOM     23  O   UNL     1      39.431 -19.158 -39.489  0.00  0.00    -0.251 OA
BRANCH  22  24
ATOM     24  O   UNL     1      40.245 -20.240 -37.710  0.00  0.00    -0.465 OA
BRANCH  24  25
ATOM     25  C   UNL     1      39.618 -21.523 -37.890  0.00  0.00    +0.092 C 
BRANCH  25  26
ATOM     26  C   UNL     1      40.245 -22.556 -36.958  0.00  0.00    -0.019 C 
BRANCH  26  27
ATOM     27  C   UNL     1      39.476 -22.633 -35.638  0.00  0.00    -0.050 C 
BRANCH  27  28
ATOM     28  C   UNL     1      40.346 -22.380 -34.404  0.00  0.00    -0.052 C 
BRANCH  28  29
ATOM     29  C   UNL     1      41.237 -21.141 -34.543  0.00  0.00    -0.040 C 
BRANCH  29  30
ATOM     30  C   UNL     1      41.681 -20.625 -33.166  0.00  0.00    -0.001 C 
BRANCH  30  31
ATOM     31  N   UNL     1      43.025 -20.022 -33.185  0.00  0.00    -0.302 N 
ATOM     32  C   UNL     1      42.996 -18.593 -32.835  0.00  0.00    -0.001 C 
ATOM     33  C   UNL     1      44.400 -17.984 -32.834  0.00  0.00    -0.040 C 
ATOM     34  C   UNL     1      45.100 -18.193 -34.171  0.00  0.00    -0.051 C 
ATOM     35  C   UNL     1      45.063 -19.664 -34.560  0.00  0.00    -0.040 C 
ATOM     36  C   UNL     1      43.638 -20.216 -34.512  0.00  0.00    -0.001 C 
ATOM     37  H   UNL     1      43.589 -20.492 -32.477  0.00  0.00    +0.000 HD
ENDBRANCH  30  31
ENDBRANCH  29  30
ENDBRANCH  28  29
ENDBRANCH  27  28
ENDBRANCH  26  27
ENDBRANCH  25  26
ENDBRANCH  24  25
ENDBRANCH  22  24
ENDBRANCH  21  22
ENDBRANCH   2  21
TORSDOF 15
ENDMDL
MODEL 14
REMARK VINA RESULT:    -5.373     18.177     21.554
REMARK INTER + INTRA:         -13.121
REMARK INTER:                 -10.737
REMARK INTRA:                  -2.384
REMARK UNBOUND:                -3.194
REMARK  Name = cpd286.pdb
REMARK  19 active torsions:
REMARK  status: ('A' for Active; 'I' for Inactive)
REMARK    1  A    between atoms: C_1  and  C_2
REMARK    2  A    between atoms: C_2  and  C_3
REMARK    3  A    between atoms: C_2  and  C_20
REMARK    4  A    between atoms: C_3  and  C_4
REMARK    5  A    between atoms: C_4  and  C_5
REMARK    6  A    between atoms: C_6  and  C_7
REMARK    7  A    between atoms: C_7  and  O_8
REMARK    8  A    between atoms: C_12  and  C_13
REMARK    9  A    between atoms: C_12  and  C_14
REMARK   10  A    between atoms: C_18  and  C_19
REMARK   11  A    between atoms: C_20  and  C_21
REMARK   12  A    between atoms: C_21  and  O_23
REMARK   13  A    between atoms: O_23  and  C_24
REMARK   14  A    between atoms: C_24  and  C_25
REMARK   15  A    between atoms: C_25  and  C_26
REMARK   16  A    between atoms: C_26  and  C_27
REMARK   17  A    between atoms: C_27  and  C_28
REMARK   18  A    between atoms: C_28  and  C_29
REMARK   19  A    between atoms: C_29  and  N_30
REMARK                            x       y       z     vdW  Elec       q    Type
REMARK                         _______ _______ _______ _____ _____    ______ ____
ROOT
ATOM      1  C   UNL     1      31.286 -37.610 -27.504  0.00  0.00    -0.062 C 
ATOM      2  C   UNL     1      32.168 -36.370 -27.357  0.00  0.00    -0.034 C 
ENDROOT
BRANCH   2   3
ATOM      3  C   UNL     1      32.883 -36.010 -28.678  0.00  0.00    -0.049 C 
BRANCH   3   4
ATOM      4  C   UNL     1      33.712 -34.707 -28.670  0.00  0.00    -0.046 C 
BRANCH   4   5
ATOM      5  C   UNL     1      33.428 -33.655 -29.784  0.00  0.00    -0.012 C 
ATOM      6  C   UNL     1      33.737 -34.235 -31.178  0.00  0.00    -0.045 C 
ATOM      7  C   UNL     1      32.741 -34.633 -31.999  0.00  0.00    -0.082 C 
ATOM      8  C   UNL     1      31.271 -34.539 -31.699  0.00  0.00    -0.031 C 
ATOM      9  C   UNL     1      30.951 -34.137 -30.246  0.00  0.00    -0.027 C 
ATOM     10  C   UNL     1      29.422 -33.878 -29.915  0.00  0.00    -0.031 C 
ATOM     11  C   UNL     1      28.967 -34.921 -28.860  0.00  0.00    -0.060 C 
ATOM     12  C   UNL     1      28.489 -34.059 -31.134  0.00  0.00    -0.060 C 
ATOM     13  C   UNL     1      29.147 -32.470 -29.336  0.00  0.00    -0.048 C 
ATOM     14  C   UNL     1      30.124 -31.983 -28.269  0.00  0.00    -0.052 C 
ATOM     15  C   UNL     1      31.514 -32.612 -28.333  0.00  0.00    -0.047 C 
ATOM     16  C   UNL     1      31.950 -33.042 -29.751  0.00  0.00    -0.022 C 
ATOM     17  C   UNL     1      31.980 -31.771 -30.655  0.00  0.00    -0.059 C 
BRANCH   6  18
ATOM     18  C   UNL     1      35.187 -34.195 -31.612  0.00  0.00    +0.066 C 
BRANCH  18  19
ATOM     19  O   UNL     1      35.722 -32.879 -31.597  0.00  0.00    -0.391 OA
ATOM     20  H   UNL     1      36.039 -32.668 -30.704  0.00  0.00    +0.000 HD
ENDBRANCH  18  19
ENDBRANCH   6  18
ENDBRANCH   4   5
ENDBRANCH   3   4
ENDBRANCH   2   3
BRANCH   2  21
ATOM     21  C   UNL     1      33.151 -36.496 -26.174  0.00  0.00    +0.048 C 
BRANCH  21  22
ATOM     22  C   UNL     1      33.947 -37.781 -26.129  0.00  0.00    +0.307 C 
ATOM     23  O   UNL     1      33.909 -38.508 -25.139  0.00  0.00    -0.251 OA
BRANCH  22  24
ATOM     24  O   UNL     1      34.705 -38.130 -27.193  0.00  0.00    -0.465 OA
BRANCH  24  25
ATOM     25  C   UNL     1      34.685 -39.406 -27.860  0.00  0.00    +0.092 C 
BRANCH  25  26
ATOM     26  C   UNL     1      34.633 -39.215 -29.373  0.00  0.00    -0.019 C 
BRANCH  26  27
ATOM     27  C   UNL     1      36.041 -39.068 -29.950  0.00  0.00    -0.050 C 
BRANCH  27  28
ATOM     28  C   UNL     1      36.304 -37.702 -30.589  0.00  0.00    -0.052 C 
BRANCH  28  29
ATOM     29  C   UNL     1      37.307 -36.855 -29.798  0.00  0.00    -0.040 C 
BRANCH  29  30
ATOM     30  C   UNL     1      38.126 -35.955 -30.736  0.00  0.00    -0.001 C 
BRANCH  30  31
ATOM     31  N   UNL     1      39.329 -36.620 -31.266  0.00  0.00    -0.302 N 
ATOM     32  C   UNL     1      40.197 -37.131 -30.192  0.00  0.00    -0.001 C 
ATOM     33  C   UNL     1      41.430 -37.841 -30.755  0.00  0.00    -0.040 C 
ATOM     34  C   UNL     1      42.217 -36.935 -31.693  0.00  0.00    -0.051 C 
ATOM     35  C   UNL     1      41.297 -36.355 -32.758  0.00  0.00    -0.040 C 
ATOM     36  C   UNL     1      40.073 -35.687 -32.131  0.00  0.00    -0.001 C 
ATOM     37  H   UNL     1      39.026 -37.425 -31.813  0.00  0.00    +0.000 HD
ENDBRANCH  30  31
ENDBRANCH  29  30
ENDBRANCH  28  29
ENDBRANCH  27  28
ENDBRANCH  26  27
ENDBRANCH  25  26
ENDBRANCH  24  25
ENDBRANCH  22  24
ENDBRANCH  21  22
ENDBRANCH   2  21
TORSDOF 15
ENDMDL
MODEL 15
REMARK VINA RESULT:    -5.369      2.876      5.792
REMARK INTER + INTRA:         -13.115
REMARK INTER:                  -9.405
REMARK INTRA:                  -3.710
REMARK UNBOUND:                -3.194
REMARK  Name = cpd286.pdb
REMARK  19 active torsions:
REMARK  status: ('A' for Active; 'I' for Inactive)
REMARK    1  A    between atoms: C_1  and  C_2
REMARK    2  A    between atoms: C_2  and  C_3
REMARK    3  A    between atoms: C_2  and  C_20
REMARK    4  A    between atoms: C_3  and  C_4
REMARK    5  A    between atoms: C_4  and  C_5
REMARK    6  A    between atoms: C_6  and  C_7
REMARK    7  A    between atoms: C_7  and  O_8
REMARK    8  A    between atoms: C_12  and  C_13
REMARK    9  A    between atoms: C_12  and  C_14
REMARK   10  A    between atoms: C_18  and  C_19
REMARK   11  A    between atoms: C_20  and  C_21
REMARK   12  A    between atoms: C_21  and  O_23
REMARK   13  A    between atoms: O_23  and  C_24
REMARK   14  A    between atoms: C_24  and  C_25
REMARK   15  A    between atoms: C_25  and  C_26
REMARK   16  A    between atoms: C_26  and  C_27
REMARK   17  A    between atoms: C_27  and  C_28
REMARK   18  A    between atoms: C_28  and  C_29
REMARK   19  A    between atoms: C_29  and  N_30
REMARK                            x       y       z     vdW  Elec       q    Type
REMARK                         _______ _______ _______ _____ _____    ______ ____
ROOT
ATOM      1  C   UNL     1      44.567 -15.975 -40.774  0.00  0.00    -0.062 C 
ATOM      2  C   UNL     1      43.637 -15.974 -39.560  0.00  0.00    -0.034 C 
ENDROOT
BRANCH   2   3
ATOM      3  C   UNL     1      44.314 -16.584 -38.313  0.00  0.00    -0.049 C 
BRANCH   3   4
ATOM      4  C   UNL     1      45.668 -17.288 -38.550  0.00  0.00    -0.046 C 
BRANCH   4   5
ATOM      5  C   UNL     1      45.763 -18.811 -38.232  0.00  0.00    -0.012 C 
ATOM      6  C   UNL     1      44.607 -19.252 -37.310  0.00  0.00    -0.045 C 
ATOM      7  C   UNL     1      43.550 -19.932 -37.803  0.00  0.00    -0.082 C 
ATOM      8  C   UNL     1      43.376 -20.361 -39.234  0.00  0.00    -0.031 C 
ATOM      9  C   UNL     1      44.423 -19.772 -40.198  0.00  0.00    -0.027 C 
ATOM     10  C   UNL     1      44.378 -20.308 -41.689  0.00  0.00    -0.031 C 
ATOM     11  C   UNL     1      44.047 -19.117 -42.627  0.00  0.00    -0.060 C 
ATOM     12  C   UNL     1      43.278 -21.367 -41.929  0.00  0.00    -0.060 C 
ATOM     13  C   UNL     1      45.715 -20.925 -42.164  0.00  0.00    -0.048 C 
ATOM     14  C   UNL     1      46.977 -20.144 -41.803  0.00  0.00    -0.052 C 
ATOM     15  C   UNL     1      46.851 -19.248 -40.573  0.00  0.00    -0.047 C 
ATOM     16  C   UNL     1      45.834 -19.751 -39.524  0.00  0.00    -0.022 C 
ATOM     17  C   UNL     1      46.306 -21.152 -39.025  0.00  0.00    -0.059 C 
BRANCH   6  18
ATOM     18  C   UNL     1      44.803 -19.005 -35.830  0.00  0.00    +0.066 C 
BRANCH  18  19
ATOM     19  O   UNL     1      43.690 -18.349 -35.237  0.00  0.00    -0.391 OA
ATOM     20  H   UNL     1      43.554 -17.490 -35.666  0.00  0.00    +0.000 HD
ENDBRANCH  18  19
ENDBRANCH   6  18
ENDBRANCH   4   5
ENDBRANCH   3   4
ENDBRANCH   2   3
BRANCH   2  21
ATOM     21  C   UNL     1      42.277 -16.633 -39.871  0.00  0.00    +0.048 C 
BRANCH  21  22
ATOM     22  C   UNL     1      41.078 -15.715 -39.785  0.00  0.00    +0.307 C 
ATOM     23  O   UNL     1      41.117 -14.697 -39.098  0.00  0.00    -0.251 OA
BRANCH  22  24
ATOM     24  O   UNL     1      39.957 -16.021 -40.475  0.00  0.00    -0.465 OA
BRANCH  24  25
ATOM     25  C   UNL     1      38.672 -16.330 -39.902  0.00  0.00    +0.092 C 
BRANCH  25  26
ATOM     26  C   UNL     1      38.371 -17.819 -40.046  0.00  0.00    -0.019 C 
BRANCH  26  27
ATOM     27  C   UNL     1      38.581 -18.544 -38.716  0.00  0.00    -0.050 C 
BRANCH  27  28
ATOM     28  C   UNL     1      39.890 -19.335 -38.648  0.00  0.00    -0.052 C 
BRANCH  28  29
ATOM     29  C   UNL     1      39.728 -20.800 -39.068  0.00  0.00    -0.040 C 
BRANCH  29  30
ATOM     30  C   UNL     1      39.384 -21.684 -37.860  0.00  0.00    -0.001 C 
BRANCH  30  31
ATOM     31  N   UNL     1      39.842 -21.112 -36.581  0.00  0.00    -0.302 N 
ATOM     32  C   UNL     1      41.020 -21.817 -36.050  0.00  0.00    -0.001 C 
ATOM     33  C   UNL     1      41.501 -21.200 -34.735  0.00  0.00    -0.040 C 
ATOM     34  C   UNL     1      40.387 -21.162 -33.697  0.00  0.00    -0.051 C 
ATOM     35  C   UNL     1      39.149 -20.495 -34.277  0.00  0.00    -0.040 C 
ATOM     36  C   UNL     1      38.740 -21.139 -35.602  0.00  0.00    -0.001 C 
ATOM     37  H   UNL     1      40.123 -20.147 -36.752  0.00  0.00    +0.000 HD
ENDBRANCH  30  31
ENDBRANCH  29  30
ENDBRANCH  28  29
ENDBRANCH  27  28
ENDBRANCH  26  27
ENDBRANCH  25  26
ENDBRANCH  24  25
ENDBRANCH  22  24
ENDBRANCH  21  22
ENDBRANCH   2  21
TORSDOF 15
ENDMDL
MODEL 16
REMARK VINA RESULT:    -5.365      2.734      7.355
REMARK INTER + INTRA:         -13.107
REMARK INTER:                 -10.245
REMARK INTRA:                  -2.863
REMARK UNBOUND:                -3.194
REMARK  Name = cpd286.pdb
REMARK  19 active torsions:
REMARK  status: ('A' for Active; 'I' for Inactive)
REMARK    1  A    between atoms: C_1  and  C_2
REMARK    2  A    between atoms: C_2  and  C_3
REMARK    3  A    between atoms: C_2  and  C_20
REMARK    4  A    between atoms: C_3  and  C_4
REMARK    5  A    between atoms: C_4  and  C_5
REMARK    6  A    between atoms: C_6  and  C_7
REMARK    7  A    between atoms: C_7  and  O_8
REMARK    8  A    between atoms: C_12  and  C_13
REMARK    9  A    between atoms: C_12  and  C_14
REMARK   10  A    between atoms: C_18  and  C_19
REMARK   11  A    between atoms: C_20  and  C_21
REMARK   12  A    between atoms: C_21  and  O_23
REMARK   13  A    between atoms: O_23  and  C_24
REMARK   14  A    between atoms: C_24  and  C_25
REMARK   15  A    between atoms: C_25  and  C_26
REMARK   16  A    between atoms: C_26  and  C_27
REMARK   17  A    between atoms: C_27  and  C_28
REMARK   18  A    between atoms: C_28  and  C_29
REMARK   19  A    between atoms: C_29  and  N_30
REMARK                            x       y       z     vdW  Elec       q    Type
REMARK                         _______ _______ _______ _____ _____    ______ ____
ROOT
ATOM      1  C   UNL     1      40.774 -17.325 -34.239  0.00  0.00    -0.062 C 
ATOM      2  C   UNL     1      41.775 -18.441 -33.937  0.00  0.00    -0.034 C 
ENDROOT
BRANCH   2   3
ATOM      3  C   UNL     1      41.102 -19.651 -33.252  0.00  0.00    -0.049 C 
BRANCH   3   4
ATOM      4  C   UNL     1      41.349 -21.027 -33.908  0.00  0.00    -0.046 C 
BRANCH   4   5
ATOM      5  C   UNL     1      40.156 -21.707 -34.646  0.00  0.00    -0.012 C 
ATOM      6  C   UNL     1      38.810 -21.138 -34.154  0.00  0.00    -0.045 C 
ATOM      7  C   UNL     1      38.117 -20.254 -34.903  0.00  0.00    -0.082 C 
ATOM      8  C   UNL     1      38.520 -19.755 -36.263  0.00  0.00    -0.031 C 
ATOM      9  C   UNL     1      39.943 -20.168 -36.687  0.00  0.00    -0.027 C 
ATOM     10  C   UNL     1      40.365 -19.796 -38.169  0.00  0.00    -0.031 C 
ATOM     11  C   UNL     1      41.557 -18.804 -38.104  0.00  0.00    -0.060 C 
ATOM     12  C   UNL     1      39.249 -19.082 -38.966  0.00  0.00    -0.060 C 
ATOM     13  C   UNL     1      40.812 -21.018 -39.007  0.00  0.00    -0.048 C 
ATOM     14  C   UNL     1      41.742 -22.006 -38.306  0.00  0.00    -0.052 C 
ATOM     15  C   UNL     1      41.635 -22.021 -36.783  0.00  0.00    -0.047 C 
ATOM     16  C   UNL     1      40.241 -21.636 -36.241  0.00  0.00    -0.022 C 
ATOM     17  C   UNL     1      39.208 -22.673 -36.785  0.00  0.00    -0.059 C 
BRANCH   6  18
ATOM     18  C   UNL     1      38.262 -21.731 -32.874  0.00  0.00    +0.066 C 
BRANCH  18  19
ATOM     19  O   UNL     1      38.516 -23.125 -32.768  0.00  0.00    -0.391 OA
ATOM     20  H   UNL     1      38.160 -23.457 -31.929  0.00  0.00    +0.000 HD
ENDBRANCH  18  19
ENDBRANCH   6  18
ENDBRANCH   4   5
ENDBRANCH   3   4
ENDBRANCH   2   3
BRANCH   2  21
ATOM     21  C   UNL     1      42.996 -17.925 -33.147  0.00  0.00    +0.048 C 
BRANCH  21  22
ATOM     22  C   UNL     1      44.343 -18.285 -33.733  0.00  0.00    +0.307 C 
ATOM     23  O   UNL     1      44.593 -19.441 -34.065  0.00  0.00    -0.251 OA
BRANCH  22  24
ATOM     24  O   UNL     1      45.277 -17.320 -33.892  0.00  0.00    -0.465 OA
BRANCH  24  25
ATOM     25  C   UNL     1      45.796 -16.848 -35.150  0.00  0.00    +0.092 C 
BRANCH  25  26
ATOM     26  C   UNL     1      47.097 -17.568 -35.491  0.00  0.00    -0.019 C 
BRANCH  26  27
ATOM     27  C   UNL     1      47.117 -17.983 -36.962  0.00  0.00    -0.050 C 
BRANCH  27  28
ATOM     28  C   UNL     1      46.653 -19.423 -37.200  0.00  0.00    -0.052 C 
BRANCH  28  29
ATOM     29  C   UNL     1      45.167 -19.521 -37.562  0.00  0.00    -0.040 C 
BRANCH  29  30
ATOM     30  C   UNL     1      44.910 -20.698 -38.516  0.00  0.00    -0.001 C 
BRANCH  30  31
ATOM     31  N   UNL     1      45.207 -20.373 -39.922  0.00  0.00    -0.302 N 
ATOM     32  C   UNL     1      43.993 -20.025 -40.678  0.00  0.00    -0.001 C 
ATOM     33  C   UNL     1      44.317 -19.665 -42.130  0.00  0.00    -0.040 C 
ATOM     34  C   UNL     1      45.077 -20.787 -42.826  0.00  0.00    -0.051 C 
ATOM     35  C   UNL     1      46.292 -21.189 -42.002  0.00  0.00    -0.040 C 
ATOM     36  C   UNL     1      45.903 -21.506 -40.558  0.00  0.00    -0.001 C 
ATOM     37  H   UNL     1      45.812 -19.552 -39.932  0.00  0.00    +0.000 HD
ENDBRANCH  30  31
ENDBRANCH  29  30
ENDBRANCH  28  29
ENDBRANCH  27  28
ENDBRANCH  26  27
ENDBRANCH  25  26
ENDBRANCH  24  25
ENDBRANCH  22  24
ENDBRANCH  21  22
ENDBRANCH   2  21
TORSDOF 15
ENDMDL
MODEL 17
REMARK VINA RESULT:    -5.332      2.362      5.213
REMARK INTER + INTRA:         -13.046
REMARK INTER:                  -9.731
REMARK INTRA:                  -3.315
REMARK UNBOUND:                -3.194
REMARK  Name = cpd286.pdb
REMARK  19 active torsions:
REMARK  status: ('A' for Active; 'I' for Inactive)
REMARK    1  A    between atoms: C_1  and  C_2
REMARK    2  A    between atoms: C_2  and  C_3
REMARK    3  A    between atoms: C_2  and  C_20
REMARK    4  A    between atoms: C_3  and  C_4
REMARK    5  A    between atoms: C_4  and  C_5
REMARK    6  A    between atoms: C_6  and  C_7
REMARK    7  A    between atoms: C_7  and  O_8
REMARK    8  A    between atoms: C_12  and  C_13
REMARK    9  A    between atoms: C_12  and  C_14
REMARK   10  A    between atoms: C_18  and  C_19
REMARK   11  A    between atoms: C_20  and  C_21
REMARK   12  A    between atoms: C_21  and  O_23
REMARK   13  A    between atoms: O_23  and  C_24
REMARK   14  A    between atoms: C_24  and  C_25
REMARK   15  A    between atoms: C_25  and  C_26
REMARK   16  A    between atoms: C_26  and  C_27
REMARK   17  A    between atoms: C_27  and  C_28
REMARK   18  A    between atoms: C_28  and  C_29
REMARK   19  A    between atoms: C_29  and  N_30
REMARK                            x       y       z     vdW  Elec       q    Type
REMARK                         _______ _______ _______ _____ _____    ______ ____
ROOT
ATOM      1  C   UNL     1      47.096 -17.632 -36.704  0.00  0.00    -0.062 C 
ATOM      2  C   UNL     1      46.070 -18.713 -37.046  0.00  0.00    -0.034 C 
ENDROOT
BRANCH   2   3
ATOM      3  C   UNL     1      44.669 -18.117 -37.308  0.00  0.00    -0.049 C 
BRANCH   3   4
ATOM      4  C   UNL     1      43.821 -18.823 -38.389  0.00  0.00    -0.046 C 
BRANCH   4   5
ATOM      5  C   UNL     1      43.956 -18.327 -39.861  0.00  0.00    -0.012 C 
ATOM      6  C   UNL     1      44.785 -17.028 -39.928  0.00  0.00    -0.045 C 
ATOM      7  C   UNL     1      46.070 -17.047 -40.345  0.00  0.00    -0.082 C 
ATOM      8  C   UNL     1      46.819 -18.265 -40.811  0.00  0.00    -0.031 C 
ATOM      9  C   UNL     1      46.071 -19.591 -40.576  0.00  0.00    -0.027 C 
ATOM     10  C   UNL     1      46.748 -20.890 -41.182  0.00  0.00    -0.031 C 
ATOM     11  C   UNL     1      47.116 -21.840 -40.011  0.00  0.00    -0.060 C 
ATOM     12  C   UNL     1      48.065 -20.603 -41.937  0.00  0.00    -0.060 C 
ATOM     13  C   UNL     1      45.828 -21.670 -42.151  0.00  0.00    -0.048 C 
ATOM     14  C   UNL     1      44.382 -21.855 -41.698  0.00  0.00    -0.052 C 
ATOM     15  C   UNL     1      43.874 -20.799 -40.719  0.00  0.00    -0.047 C 
ATOM     16  C   UNL     1      44.546 -19.416 -40.872  0.00  0.00    -0.022 C 
ATOM     17  C   UNL     1      44.247 -18.890 -42.311  0.00  0.00    -0.059 C 
BRANCH   6  18
ATOM     18  C   UNL     1      44.038 -15.743 -39.640  0.00  0.00    +0.066 C 
BRANCH  18  19
ATOM     19  O   UNL     1      44.911 -14.661 -39.345  0.00  0.00    -0.391 OA
ATOM     20  H   UNL     1      44.418 -13.964 -38.885  0.00  0.00    +0.000 HD
ENDBRANCH  18  19
ENDBRANCH   6  18
ENDBRANCH   4   5
ENDBRANCH   3   4
ENDBRANCH   2   3
BRANCH   2  21
ATOM     21  C   UNL     1      46.041 -19.839 -35.992  0.00  0.00    +0.048 C 
BRANCH  21  22
ATOM     22  C   UNL     1      45.265 -19.524 -34.732  0.00  0.00    +0.307 C 
ATOM     23  O   UNL     1      44.251 -20.156 -34.446  0.00  0.00    -0.251 OA
BRANCH  22  24
ATOM     24  O   UNL     1      45.699 -18.537 -33.915  0.00  0.00    -0.465 OA
BRANCH  24  25
ATOM     25  C   UNL     1      44.864 -17.666 -33.130  0.00  0.00    +0.092 C 
BRANCH  25  26
ATOM     26  C   UNL     1      44.180 -16.637 -34.025  0.00  0.00    -0.019 C 
BRANCH  26  27
ATOM     27  C   UNL     1      42.783 -16.304 -33.499  0.00  0.00    -0.050 C 
BRANCH  27  28
ATOM     28  C   UNL     1      41.765 -17.429 -33.706  0.00  0.00    -0.052 C 
BRANCH  28  29
ATOM     29  C   UNL     1      41.684 -17.902 -35.162  0.00  0.00    -0.040 C 
BRANCH  29  30
ATOM     30  C   UNL     1      40.913 -19.226 -35.267  0.00  0.00    -0.001 C 
BRANCH  30  31
ATOM     31  N   UNL     1      40.880 -19.764 -36.639  0.00  0.00    -0.302 N 
ATOM     32  C   UNL     1      40.206 -18.850 -37.575  0.00  0.00    -0.001 C 
ATOM     33  C   UNL     1      40.200 -19.407 -39.000  0.00  0.00    -0.040 C 
ATOM     34  C   UNL     1      39.567 -20.791 -39.055  0.00  0.00    -0.051 C 
ATOM     35  C   UNL     1      40.222 -21.710 -38.034  0.00  0.00    -0.040 C 
ATOM     36  C   UNL     1      40.221 -21.082 -36.640  0.00  0.00    -0.001 C 
ATOM     37  H   UNL     1      41.843 -19.863 -36.959  0.00  0.00    +0.000 HD
ENDBRANCH  30  31
ENDBRANCH  29  30
ENDBRANCH  28  29
ENDBRANCH  27  28
ENDBRANCH  26  27
ENDBRANCH  25  26
ENDBRANCH  24  25
ENDBRANCH  22  24
ENDBRANCH  21  22
ENDBRANCH   2  21
TORSDOF 15
ENDMDL
MODEL 18
REMARK VINA RESULT:    -5.294      3.029      8.614
REMARK INTER + INTRA:         -12.977
REMARK INTER:                 -10.414
REMARK INTRA:                  -2.563
REMARK UNBOUND:                -3.194
REMARK  Name = cpd286.pdb
REMARK  19 active torsions:
REMARK  status: ('A' for Active; 'I' for Inactive)
REMARK    1  A    between atoms: C_1  and  C_2
REMARK    2  A    between atoms: C_2  and  C_3
REMARK    3  A    between atoms: C_2  and  C_20
REMARK    4  A    between atoms: C_3  and  C_4
REMARK    5  A    between atoms: C_4  and  C_5
REMARK    6  A    between atoms: C_6  and  C_7
REMARK    7  A    between atoms: C_7  and  O_8
REMARK    8  A    between atoms: C_12  and  C_13
REMARK    9  A    between atoms: C_12  and  C_14
REMARK   10  A    between atoms: C_18  and  C_19
REMARK   11  A    between atoms: C_20  and  C_21
REMARK   12  A    between atoms: C_21  and  O_23
REMARK   13  A    between atoms: O_23  and  C_24
REMARK   14  A    between atoms: C_24  and  C_25
REMARK   15  A    between atoms: C_25  and  C_26
REMARK   16  A    between atoms: C_26  and  C_27
REMARK   17  A    between atoms: C_27  and  C_28
REMARK   18  A    between atoms: C_28  and  C_29
REMARK   19  A    between atoms: C_29  and  N_30
REMARK                            x       y       z     vdW  Elec       q    Type
REMARK                         _______ _______ _______ _____ _____    ______ ____
ROOT
ATOM      1  C   UNL     1      41.001 -17.163 -36.062  0.00  0.00    -0.062 C 
ATOM      2  C   UNL     1      41.229 -17.624 -34.622  0.00  0.00    -0.034 C 
ENDROOT
BRANCH   2   3
ATOM      3  C   UNL     1      40.078 -17.191 -33.688  0.00  0.00    -0.049 C 
BRANCH   3   4
ATOM      4  C   UNL     1      39.776 -18.130 -32.500  0.00  0.00    -0.046 C 
BRANCH   4   5
ATOM      5  C   UNL     1      38.502 -19.026 -32.585  0.00  0.00    -0.012 C 
ATOM      6  C   UNL     1      37.442 -18.385 -33.503  0.00  0.00    -0.045 C 
ATOM      7  C   UNL     1      37.239 -18.847 -34.755  0.00  0.00    -0.082 C 
ATOM      8  C   UNL     1      37.955 -20.010 -35.384  0.00  0.00    -0.031 C 
ATOM      9  C   UNL     1      39.140 -20.541 -34.555  0.00  0.00    -0.027 C 
ATOM     10  C   UNL     1      39.837 -21.858 -35.097  0.00  0.00    -0.031 C 
ATOM     11  C   UNL     1      41.307 -21.518 -35.462  0.00  0.00    -0.060 C 
ATOM     12  C   UNL     1      39.188 -22.412 -36.385  0.00  0.00    -0.060 C 
ATOM     13  C   UNL     1      39.861 -23.012 -34.067  0.00  0.00    -0.048 C 
ATOM     14  C   UNL     1      40.244 -22.627 -32.639  0.00  0.00    -0.052 C 
ATOM     15  C   UNL     1      39.970 -21.171 -32.269  0.00  0.00    -0.047 C 
ATOM     16  C   UNL     1      38.786 -20.535 -33.032  0.00  0.00    -0.022 C 
ATOM     17  C   UNL     1      37.498 -21.346 -32.690  0.00  0.00    -0.059 C 
BRANCH   6  18
ATOM     18  C   UNL     1      36.565 -17.325 -32.871  0.00  0.00    +0.066 C 
BRANCH  18  19
ATOM     19  O   UNL     1      35.675 -17.862 -31.902  0.00  0.00    -0.391 OA
ATOM     20  H   UNL     1      35.535 -18.805 -32.078  0.00  0.00    +0.000 HD
ENDBRANCH  18  19
ENDBRANCH   6  18
ENDBRANCH   4   5
ENDBRANCH   3   4
ENDBRANCH   2   3
BRANCH   2  21
ATOM     21  C   UNL     1      42.612 -17.195 -34.088  0.00  0.00    +0.048 C 
BRANCH  21  22
ATOM     22  C   UNL     1      43.523 -18.328 -33.671  0.00  0.00    +0.307 C 
ATOM     23  O   UNL     1      43.094 -19.263 -32.999  0.00  0.00    -0.251 OA
BRANCH  22  24
ATOM     24  O   UNL     1      44.822 -18.307 -34.046  0.00  0.00    -0.465 OA
BRANCH  24  25
ATOM     25  C   UNL     1      45.312 -18.050 -35.375  0.00  0.00    +0.092 C 
BRANCH  25  26
ATOM     26  C   UNL     1      45.569 -19.362 -36.110  0.00  0.00    -0.019 C 
BRANCH  26  27
ATOM     27  C   UNL     1      44.269 -19.923 -36.687  0.00  0.00    -0.050 C 
BRANCH  27  28
ATOM     28  C   UNL     1      43.981 -19.458 -38.118  0.00  0.00    -0.052 C 
BRANCH  28  29
ATOM     29  C   UNL     1      45.236 -19.414 -38.997  0.00  0.00    -0.040 C 
BRANCH  29  30
ATOM     30  C   UNL     1      44.886 -19.684 -40.468  0.00  0.00    -0.001 C 
BRANCH  30  31
ATOM     31  N   UNL     1      45.798 -20.649 -41.107  0.00  0.00    -0.302 N 
ATOM     32  C   UNL     1      45.786 -21.955 -40.429  0.00  0.00    -0.001 C 
ATOM     33  C   UNL     1      46.719 -22.955 -41.116  0.00  0.00    -0.040 C 
ATOM     34  C   UNL     1      48.140 -22.417 -41.214  0.00  0.00    -0.051 C 
ATOM     35  C   UNL     1      48.137 -21.035 -41.852  0.00  0.00    -0.040 C 
ATOM     36  C   UNL     1      47.165 -20.096 -41.137  0.00  0.00    -0.001 C 
ATOM     37  H   UNL     1      45.472 -20.804 -42.060  0.00  0.00    +0.000 HD
ENDBRANCH  30  31
ENDBRANCH  29  30
ENDBRANCH  28  29
ENDBRANCH  27  28
ENDBRANCH  26  27
ENDBRANCH  25  26
ENDBRANCH  24  25
ENDBRANCH  22  24
ENDBRANCH  21  22
ENDBRANCH   2  21
TORSDOF 15
ENDMDL
MODEL 19
REMARK VINA RESULT:    -5.271      1.539      2.242
REMARK INTER + INTRA:         -12.933
REMARK INTER:                  -9.229
REMARK INTRA:                  -3.704
REMARK UNBOUND:                -3.194
REMARK  Name = cpd286.pdb
REMARK  19 active torsions:
REMARK  status: ('A' for Active; 'I' for Inactive)
REMARK    1  A    between atoms: C_1  and  C_2
REMARK    2  A    between atoms: C_2  and  C_3
REMARK    3  A    between atoms: C_2  and  C_20
REMARK    4  A    between atoms: C_3  and  C_4
REMARK    5  A    between atoms: C_4  and  C_5
REMARK    6  A    between atoms: C_6  and  C_7
REMARK    7  A    between atoms: C_7  and  O_8
REMARK    8  A    between atoms: C_12  and  C_13
REMARK    9  A    between atoms: C_12  and  C_14
REMARK   10  A    between atoms: C_18  and  C_19
REMARK   11  A    between atoms: C_20  and  C_21
REMARK   12  A    between atoms: C_21  and  O_23
REMARK   13  A    between atoms: O_23  and  C_24
REMARK   14  A    between atoms: C_24  and  C_25
REMARK   15  A    between atoms: C_25  and  C_26
REMARK   16  A    between atoms: C_26  and  C_27
REMARK   17  A    between atoms: C_27  and  C_28
REMARK   18  A    between atoms: C_28  and  C_29
REMARK   19  A    between atoms: C_29  and  N_30
REMARK                            x       y       z     vdW  Elec       q    Type
REMARK                         _______ _______ _______ _____ _____    ______ ____
ROOT
ATOM      1  C   UNL     1      42.002 -21.539 -37.126  0.00  0.00    -0.062 C 
ATOM      2  C   UNL     1      42.234 -20.580 -38.294  0.00  0.00    -0.034 C 
ENDROOT
BRANCH   2   3
ATOM      3  C   UNL     1      43.299 -21.113 -39.277  0.00  0.00    -0.049 C 
BRANCH   3   4
ATOM      4  C   UNL     1      44.755 -20.676 -39.007  0.00  0.00    -0.046 C 
BRANCH   4   5
ATOM      5  C   UNL     1      45.594 -20.151 -40.211  0.00  0.00    -0.012 C 
ATOM      6  C   UNL     1      44.845 -20.376 -41.540  0.00  0.00    -0.045 C 
ATOM      7  C   UNL     1      44.229 -19.352 -42.170  0.00  0.00    -0.082 C 
ATOM      8  C   UNL     1      44.217 -17.922 -41.707  0.00  0.00    -0.031 C 
ATOM      9  C   UNL     1      44.798 -17.714 -40.295  0.00  0.00    -0.027 C 
ATOM     10  C   UNL     1      44.947 -16.209 -39.817  0.00  0.00    -0.031 C 
ATOM     11  C   UNL     1      44.033 -15.997 -38.581  0.00  0.00    -0.060 C 
ATOM     12  C   UNL     1      44.491 -15.179 -40.875  0.00  0.00    -0.060 C 
ATOM     13  C   UNL     1      46.390 -15.833 -39.407  0.00  0.00    -0.048 C 
ATOM     14  C   UNL     1      47.129 -16.854 -38.545  0.00  0.00    -0.052 C 
ATOM     15  C   UNL     1      46.643 -18.294 -38.693  0.00  0.00    -0.047 C 
ATOM     16  C   UNL     1      46.051 -18.624 -40.081  0.00  0.00    -0.022 C 
ATOM     17  C   UNL     1      47.168 -18.405 -41.148  0.00  0.00    -0.059 C 
BRANCH   6  18
ATOM     18  C   UNL     1      44.967 -21.756 -42.151  0.00  0.00    +0.066 C 
BRANCH  18  19
ATOM     19  O   UNL     1      46.282 -22.030 -42.616  0.00  0.00    -0.391 OA
ATOM     20  H   UNL     1      46.245 -22.710 -43.307  0.00  0.00    +0.000 HD
ENDBRANCH  18  19
ENDBRANCH   6  18
ENDBRANCH   4   5
ENDBRANCH   3   4
ENDBRANCH   2   3
BRANCH   2  21
ATOM     21  C   UNL     1      42.545 -19.147 -37.814  0.00  0.00    +0.048 C 
BRANCH  21  22
ATOM     22  C   UNL     1      41.335 -18.290 -37.511  0.00  0.00    +0.307 C 
ATOM     23  O   UNL     1      40.485 -18.079 -38.372  0.00  0.00    -0.251 OA
BRANCH  22  24
ATOM     24  O   UNL     1      41.193 -17.756 -36.277  0.00  0.00    -0.465 OA
BRANCH  24  25
ATOM     25  C   UNL     1      39.945 -17.528 -35.596  0.00  0.00    +0.092 C 
BRANCH  25  26
ATOM     26  C   UNL     1      39.289 -18.856 -35.231  0.00  0.00    -0.019 C 
BRANCH  26  27
ATOM     27  C   UNL     1      38.904 -18.882 -33.751  0.00  0.00    -0.050 C 
BRANCH  27  28
ATOM     28  C   UNL     1      39.777 -19.813 -32.906  0.00  0.00    -0.052 C 
BRANCH  28  29
ATOM     29  C   UNL     1      40.944 -20.418 -33.694  0.00  0.00    -0.040 C 
BRANCH  29  30
ATOM     30  C   UNL     1      42.292 -19.929 -33.144  0.00  0.00    -0.001 C 
BRANCH  30  31
ATOM     31  N   UNL     1      43.206 -19.458 -34.200  0.00  0.00    -0.302 N 
ATOM     32  C   UNL     1      44.406 -20.302 -34.310  0.00  0.00    -0.001 C 
ATOM     33  C   UNL     1      45.335 -19.818 -35.426  0.00  0.00    -0.040 C 
ATOM     34  C   UNL     1      45.724 -18.358 -35.233  0.00  0.00    -0.051 C 
ATOM     35  C   UNL     1      44.479 -17.502 -35.049  0.00  0.00    -0.040 C 
ATOM     36  C   UNL     1      43.583 -18.056 -33.942  0.00  0.00    -0.001 C 
ATOM     37  H   UNL     1      42.714 -19.520 -35.091  0.00  0.00    +0.000 HD
ENDBRANCH  30  31
ENDBRANCH  29  30
ENDBRANCH  28  29
ENDBRANCH  27  28
ENDBRANCH  26  27
ENDBRANCH  25  26
ENDBRANCH  24  25
ENDBRANCH  22  24
ENDBRANCH  21  22
ENDBRANCH   2  21
TORSDOF 15
ENDMDL
MODEL 20
REMARK VINA RESULT:    -5.268      2.192      5.286
REMARK INTER + INTRA:         -12.927
REMARK INTER:                 -10.131
REMARK INTRA:                  -2.796
REMARK UNBOUND:                -3.194
REMARK  Name = cpd286.pdb
REMARK  19 active torsions:
REMARK  status: ('A' for Active; 'I' for Inactive)
REMARK    1  A    between atoms: C_1  and  C_2
REMARK    2  A    between atoms: C_2  and  C_3
REMARK    3  A    between atoms: C_2  and  C_20
REMARK    4  A    between atoms: C_3  and  C_4
REMARK    5  A    between atoms: C_4  and  C_5
REMARK    6  A    between atoms: C_6  and  C_7
REMARK    7  A    between atoms: C_7  and  O_8
REMARK    8  A    between atoms: C_12  and  C_13
REMARK    9  A    between atoms: C_12  and  C_14
REMARK   10  A    between atoms: C_18  and  C_19
REMARK   11  A    between atoms: C_20  and  C_21
REMARK   12  A    between atoms: C_21  and  O_23
REMARK   13  A    between atoms: O_23  and  C_24
REMARK   14  A    between atoms: C_24  and  C_25
REMARK   15  A    between atoms: C_25  and  C_26
REMARK   16  A    between atoms: C_26  and  C_27
REMARK   17  A    between atoms: C_27  and  C_28
REMARK   18  A    between atoms: C_28  and  C_29
REMARK   19  A    between atoms: C_29  and  N_30
REMARK                            x       y       z     vdW  Elec       q    Type
REMARK                         _______ _______ _______ _____ _____    ______ ____
ROOT
ATOM      1  C   UNL     1      43.477 -17.595 -32.743  0.00  0.00    -0.062 C 
ATOM      2  C   UNL     1      42.933 -18.693 -33.657  0.00  0.00    -0.034 C 
ENDROOT
BRANCH   2   3
ATOM      3  C   UNL     1      42.777 -18.207 -35.115  0.00  0.00    -0.049 C 
BRANCH   3   4
ATOM      4  C   UNL     1      43.878 -18.650 -36.102  0.00  0.00    -0.046 C 
BRANCH   4   5
ATOM      5  C   UNL     1      45.227 -17.868 -36.089  0.00  0.00    -0.012 C 
ATOM      6  C   UNL     1      46.424 -18.839 -36.044  0.00  0.00    -0.045 C 
ATOM      7  C   UNL     1      47.156 -19.087 -37.152  0.00  0.00    -0.082 C 
ATOM      8  C   UNL     1      46.941 -18.459 -38.501  0.00  0.00    -0.031 C 
ATOM      9  C   UNL     1      45.644 -17.634 -38.610  0.00  0.00    -0.027 C 
ATOM     10  C   UNL     1      45.440 -16.830 -39.961  0.00  0.00    -0.031 C 
ATOM     11  C   UNL     1      44.178 -17.382 -40.674  0.00  0.00    -0.060 C 
ATOM     12  C   UNL     1      46.609 -16.996 -40.958  0.00  0.00    -0.060 C 
ATOM     13  C   UNL     1      45.235 -15.311 -39.748  0.00  0.00    -0.048 C 
ATOM     14  C   UNL     1      44.287 -14.915 -38.619  0.00  0.00    -0.052 C 
ATOM     15  C   UNL     1      44.145 -15.949 -37.504  0.00  0.00    -0.047 C 
ATOM     16  C   UNL     1      45.397 -16.829 -37.293  0.00  0.00    -0.022 C 
ATOM     17  C   UNL     1      46.585 -15.894 -36.904  0.00  0.00    -0.059 C 
BRANCH   6  18
ATOM     18  C   UNL     1      46.803 -19.369 -34.678  0.00  0.00    +0.066 C 
BRANCH  18  19
ATOM     19  O   UNL     1      47.403 -20.656 -34.742  0.00  0.00    -0.391 OA
ATOM     20  H   UNL     1      47.488 -21.018 -33.846  0.00  0.00    +0.000 HD
ENDBRANCH  18  19
ENDBRANCH   6  18
ENDBRANCH   4   5
ENDBRANCH   3   4
ENDBRANCH   2   3
BRANCH   2  21
ATOM     21  C   UNL     1      41.634 -19.316 -33.104  0.00  0.00    +0.048 C 
BRANCH  21  22
ATOM     22  C   UNL     1      41.414 -20.771 -33.457  0.00  0.00    +0.307 C 
ATOM     23  O   UNL     1      41.457 -21.640 -32.590  0.00  0.00    -0.251 OA
BRANCH  22  24
ATOM     24  O   UNL     1      41.167 -21.111 -34.742  0.00  0.00    -0.465 OA
BRANCH  24  25
ATOM     25  C   UNL     1      39.934 -20.887 -35.452  0.00  0.00    +0.092 C 
BRANCH  25  26
ATOM     26  C   UNL     1      40.216 -20.530 -36.908  0.00  0.00    -0.019 C 
BRANCH  26  27
ATOM     27  C   UNL     1      40.466 -21.791 -37.737  0.00  0.00    -0.050 C 
BRANCH  27  28
ATOM     28  C   UNL     1      41.944 -22.033 -38.055  0.00  0.00    -0.052 C 
BRANCH  28  29
ATOM     29  C   UNL     1      42.561 -20.923 -38.913  0.00  0.00    -0.040 C 
BRANCH  29  30
ATOM     30  C   UNL     1      44.095 -20.952 -38.831  0.00  0.00    -0.001 C 
BRANCH  30  31
ATOM     31  N   UNL     1      44.740 -20.994 -40.154  0.00  0.00    -0.302 N 
ATOM     32  C   UNL     1      43.757 -21.075 -41.247  0.00  0.00    -0.001 C 
ATOM     33  C   UNL     1      44.438 -21.093 -42.617  0.00  0.00    -0.040 C 
ATOM     34  C   UNL     1      45.448 -22.227 -42.723  0.00  0.00    -0.051 C 
ATOM     35  C   UNL     1      46.418 -22.179 -41.551  0.00  0.00    -0.040 C 
ATOM     36  C   UNL     1      45.674 -22.133 -40.216  0.00  0.00    -0.001 C 
ATOM     37  H   UNL     1      45.255 -20.123 -40.279  0.00  0.00    +0.000 HD
ENDBRANCH  30  31
ENDBRANCH  29  30
ENDBRANCH  28  29
ENDBRANCH  27  28
ENDBRANCH  26  27
ENDBRANCH  25  26
ENDBRANCH  24  25
ENDBRANCH  22  24
ENDBRANCH  21  22
ENDBRANCH   2  21
TORSDOF 15
ENDMDL
