REMARK  Name = cpd286.pdb
REMARK  19 active torsions:
REMARK  status: ('A' for Active; 'I' for Inactive)
REMARK    1  A    between atoms: C_1  and  C_2
REMARK    2  A    between atoms: C_2  and  C_3
REMARK    3  A    between atoms: C_2  and  C_20
REMARK    4  A    between atoms: C_3  and  C_4
REMARK    5  A    between atoms: C_4  and  C_5
REMARK    6  A    between atoms: C_6  and  C_7
REMARK    7  A    between atoms: C_7  and  O_8
REMARK    8  A    between atoms: C_12  and  C_13
REMARK    9  A    between atoms: C_12  and  C_14
REMARK   10  A    between atoms: C_18  and  C_19
REMARK   11  A    between atoms: C_20  and  C_21
REMARK   12  A    between atoms: C_21  and  O_23
REMARK   13  A    between atoms: O_23  and  C_24
REMARK   14  A    between atoms: C_24  and  C_25
REMARK   15  A    between atoms: C_25  and  C_26
REMARK   16  A    between atoms: C_26  and  C_27
REMARK   17  A    between atoms: C_27  and  C_28
REMARK   18  A    between atoms: C_28  and  C_29
REMARK   19  A    between atoms: C_29  and  N_30
REMARK                            x       y       z     vdW  Elec       q    Type
REMARK                         _______ _______ _______ _____ _____    ______ ____
ROOT
ATOM      1  C   UNL     1      -9.103   0.411   0.393  0.00  0.00    -0.062 C 
ATOM      2  C   UNL     1      -8.890  -1.097   0.528  0.00  0.00    -0.034 C 
ENDROOT
BRANCH   2   3
ATOM      3  C   UNL     1      -9.884  -1.734   1.524  0.00  0.00    -0.049 C 
BRANCH   3   4
ATOM      4  C   UNL     1     -11.383  -1.548   1.202  0.00  0.00    -0.046 C 
BRANCH   4   5
ATOM      5  C   UNL     1     -11.872  -1.919  -0.231  0.00  0.00    -0.012 C 
ATOM      6  C   UNL     1     -11.964  -3.449  -0.400  0.00  0.00    -0.045 C 
ATOM      7  C   UNL     1     -13.159  -4.078  -0.373  0.00  0.00    -0.082 C 
ATOM      8  C   UNL     1     -14.496  -3.408  -0.218  0.00  0.00    -0.031 C 
ATOM      9  C   UNL     1     -14.411  -1.911   0.136  0.00  0.00    -0.027 C 
ATOM     10  C   UNL     1     -15.786  -1.122   0.165  0.00  0.00    -0.031 C 
ATOM     11  C   UNL     1     -16.025  -0.609   1.610  0.00  0.00    -0.060 C 
ATOM     12  C   UNL     1     -17.007  -2.000  -0.191  0.00  0.00    -0.060 C 
ATOM     13  C   UNL     1     -15.814   0.102  -0.781  0.00  0.00    -0.048 C 
ATOM     14  C   UNL     1     -14.569   0.986  -0.769  0.00  0.00    -0.052 C 
ATOM     15  C   UNL     1     -13.284   0.283  -0.337  0.00  0.00    -0.047 C 
ATOM     16  C   UNL     1     -13.250  -1.228  -0.657  0.00  0.00    -0.022 C 
ATOM     17  C   UNL     1     -13.369  -1.398  -2.204  0.00  0.00    -0.059 C 
BRANCH   6  18
ATOM     18  C   UNL     1     -10.672  -4.163  -0.735  0.00  0.00    +0.066 C 
BRANCH  18  19
ATOM     19  O   UNL     1     -10.866  -5.548  -0.988  0.00  0.00    -0.391 OA
ATOM     20  H   UNL     1     -11.224  -5.975  -0.194  0.00  0.00    +0.000 HD
ENDBRANCH  18  19
ENDBRANCH   6  18
ENDBRANCH   4   5
ENDBRANCH   3   4
ENDBRANCH   2   3
BRANCH   2  21
ATOM     21  C   UNL     1      -7.424  -1.448   0.857  0.00  0.00    +0.048 C 
BRANCH  21  22
ATOM     22  C   UNL     1      -6.914  -0.918   2.179  0.00  0.00    +0.307 C 
ATOM     23  O   UNL     1      -7.247  -1.447   3.237  0.00  0.00    -0.251 OA
BRANCH  22  24
ATOM     24  O   UNL     1      -6.082   0.148   2.190  0.00  0.00    -0.465 OA
BRANCH  24  25
ATOM     25  C   UNL     1      -5.614   0.864   1.032  0.00  0.00    +0.092 C 
BRANCH  25  26
ATOM     26  C   UNL     1      -4.281   0.293   0.557  0.00  0.00    -0.019 C 
BRANCH  26  27
ATOM     27  C   UNL     1      -3.820   0.987  -0.725  0.00  0.00    -0.050 C 
BRANCH  27  28
ATOM     28  C   UNL     1      -2.471   0.483  -1.245  0.00  0.00    -0.052 C 
BRANCH  28  29
ATOM     29  C   UNL     1      -1.290   0.929  -0.376  0.00  0.00    -0.040 C 
BRANCH  29  30
ATOM     30  C   UNL     1       0.047   0.521  -1.013  0.00  0.00    -0.001 C 
BRANCH  30  31
ATOM     31  N   UNL     1       1.208   0.837  -0.163  0.00  0.00    -0.302 N 
ATOM     32  C   UNL     1       1.452   2.286  -0.076  0.00  0.00    -0.001 C 
ATOM     33  C   UNL     1       2.645   2.603   0.829  0.00  0.00    -0.040 C 
ATOM     34  C   UNL     1       3.902   1.876   0.370  0.00  0.00    -0.051 C 
ATOM     35  C   UNL     1       3.622   0.388   0.214  0.00  0.00    -0.040 C 
ATOM     36  C   UNL     1       2.403   0.143  -0.676  0.00  0.00    -0.001 C 
ATOM     37  H   UNL     1       1.003   0.511   0.781  0.00  0.00    +0.000 HD
ENDBRANCH  30  31
ENDBRANCH  29  30
ENDBRANCH  28  29
ENDBRANCH  27  28
ENDBRANCH  26  27
ENDBRANCH  25  26
ENDBRANCH  24  25
ENDBRANCH  22  24
ENDBRANCH  21  22
ENDBRANCH   2  21
TORSDOF 15
