@<TRIPOS>MOLECULE
*****
 35 37 0 0 0
SMALL
GASTEIGER

@<TRIPOS>ATOM
      1 C          -8.6603    0.0000    0.0000 C.3     1  UNL1        0.0006
      2 C          -8.6603   -1.0000    0.0000 C.3     1  UNL1        0.0111
      3 C          -9.5263   -1.5000    0.0000 C.3     1  UNL1        0.0009
      4 C         -10.3923   -1.0000    0.0000 C.3     1  UNL1        0.0041
      5 C         -11.2583   -1.5000    0.0000 C.3     1  UNL1        0.0205
      6 C         -11.2583   -2.5000    0.0000 C.2     1  UNL1       -0.0162
      7 C         -10.3923   -3.0000    0.0000 C.3     1  UNL1        0.2041
      8 O         -10.3923   -4.0000    0.0000 O.3     1  UNL1       -0.2155
      9 C         -12.1244   -3.0000    0.0000 C.2     1  UNL1       -0.0321
     10 C         -12.9904   -2.5000    0.0000 C.3     1  UNL1        0.0255
     11 C         -12.9904   -1.5000    0.0000 C.3     1  UNL1        0.0046
     12 C         -13.8564   -1.0000    0.0000 C.3     1  UNL1        0.0003
     13 C         -14.8564   -1.0000    0.0000 C.3     1  UNL1        0.0000
     14 C         -14.3564   -1.8660    0.0000 C.3     1  UNL1        0.0000
     15 C         -13.8564    0.0000    0.0000 C.3     1  UNL1        0.0000
     16 C         -12.9904    0.5000    0.0000 C.3     1  UNL1        0.0000
     17 C         -12.1244    0.0000    0.0000 C.3     1  UNL1        0.0003
     18 C         -12.1244   -1.0000    0.0000 C.3     1  UNL1        0.0038
     19 C         -11.2583   -0.5000    0.0000 C.3     1  UNL1        0.0003
     20 C          -7.7942   -1.5000    0.0000 C.3     1  UNL1        0.1096
     21 C          -6.9282   -1.0000    0.0000 C.2     1  UNL1        0.3170
     22 O          -6.0622   -1.5000    0.0000 O.2     1  UNL1       -0.2501
     23 O          -6.9282    0.0000    0.0000 O.3     1  UNL1       -0.4485
     24 C          -6.0622    0.5000    0.0000 C.3     1  UNL1        0.2084
     25 C          -5.1962    0.0000    0.0000 C.3     1  UNL1        0.0474
     26 C          -4.3301    0.5000    0.0000 C.3     1  UNL1        0.0039
     27 C          -3.4641    0.0000    0.0000 C.3     1  UNL1        0.0016
     28 C          -2.5981    0.5000    0.0000 C.3     1  UNL1        0.0173
     29 C          -1.7321    0.0000    0.0000 C.3     1  UNL1        0.0721
     30 N          -0.8660    0.5000    0.0000 N.3     1  UNL1       -0.2727
     31 C          -0.8660    1.5000    0.0000 C.3     1  UNL1        0.0721
     32 C           0.0000    2.0000    0.0000 C.3     1  UNL1        0.0174
     33 C           0.8660    1.5000    0.0000 C.3     1  UNL1        0.0029
     34 C           0.8660    0.5000    0.0000 C.3     1  UNL1        0.0174
     35 C           0.0000   -0.0000    0.0000 C.3     1  UNL1        0.0721
@<TRIPOS>BOND
     1     1     2    1
     2     2     3    1
     3     3     4    1
     4     4     5    1
     5     5     6    1
     6     6     7    1
     7     7     8    1
     8     6     9    2
     9     9    10    1
    10    10    11    1
    11    11    12    1
    12    12    13    1
    13    12    14    1
    14    12    15    1
    15    15    16    1
    16    16    17    1
    17    17    18    1
    18     5    18    1
    19    11    18    1
    20    18    19    1
    21     2    20    1
    22    20    21    1
    23    21    22    2
    24    21    23    1
    25    23    24    1
    26    24    25    1
    27    25    26    1
    28    26    27    1
    29    27    28    1
    30    28    29    1
    31    29    30    1
    32    30    31    1
    33    31    32    1
    34    32    33    1
    35    33    34    1
    36    34    35    1
    37    30    35    1
