@<TRIPOS>MOLECULE
*****
 16 17 0 0 0
SMALL
GASTEIGER

@<TRIPOS>ATOM
      1 O           1.7321    2.0000    0.0000 O.co2   1  UNL1       -0.2406
      2 C           0.8660    1.5000    0.0000 C.2     1  UNL1        0.3878
      3 O           0.0000    2.0000    0.0000 O.co2   1  UNL1       -0.2406
      4 C           0.8660    0.5000    0.0000 C.ar    1  UNL1        0.0810
      5 C           1.7321   -0.0000    0.0000 C.ar    1  UNL1        0.0067
      6 C           1.7321   -1.0000    0.0000 C.ar    1  UNL1        0.0015
      7 C           0.8660   -1.5000    0.0000 C.ar    1  UNL1        0.0153
      8 C          -0.0000   -1.0000    0.0000 C.ar    1  UNL1        0.0608
      9 N          -0.8660   -1.5000    0.0000 N.am    1  UNL1       -0.2081
     10 C          -0.9706   -2.4945    0.0000 C.2     1  UNL1        0.2356
     11 O          -0.2274   -3.1637    0.0000 O.2     1  UNL1       -0.2741
     12 C          -1.9487   -2.7024    0.0000 C.3     1  UNL1        0.0956
     13 C          -2.4487   -1.8364    0.0000 C.3     1  UNL1        0.0956
     14 C          -1.7796   -1.0933    0.0000 C.2     1  UNL1        0.2356
     15 O          -1.9875   -0.1151    0.0000 O.2     1  UNL1       -0.2741
     16 C           0.0000   -0.0000    0.0000 C.ar    1  UNL1        0.0219
@<TRIPOS>BOND
     1     1     2   ar
     2     2     3   ar
     3     2     4    1
     4     4     5   ar
     5     5     6   ar
     6     6     7   ar
     7     7     8   ar
     8     8     9    1
     9     9    10   am
    10    10    11    2
    11    10    12    1
    12    12    13    1
    13    13    14    1
    14     9    14   am
    15    14    15    2
    16     8    16   ar
    17     4    16   ar
