REMARK  Name = cpd64.pdb
REMARK  2 active torsions:
REMARK  status: ('A' for Active; 'I' for Inactive)
REMARK    1  A    between atoms: C_2  and  C_4
REMARK    2  A    between atoms: C_8  and  N_9
REMARK                            x       y       z     vdW  Elec       q    Type
REMARK                         _______ _______ _______ _____ _____    ______ ____
ROOT
ATOM      1  C   UNL A   1       1.387   1.099   0.000  0.00  0.00    +0.065 A 
ATOM      2  C   UNL A   1       2.586   0.379  -0.001  0.00  0.00    -0.048 A 
ATOM      3  C   UNL A   1       2.570  -1.009  -0.001  0.00  0.00    -0.059 A 
ATOM      4  C   UNL A   1       1.351  -1.696  -0.001  0.00  0.00    -0.040 A 
ATOM      5  C   UNL A   1       0.114  -1.025  -0.001  0.00  0.00    +0.045 A 
ATOM      6  C   UNL A   1       0.167   0.382  -0.001  0.00  0.00    -0.026 A 
ENDROOT
BRANCH   5   7
ATOM      7  N   UNL A   1      -1.133  -1.747   0.000  0.00  0.00    -0.210 N 
ATOM      8  C   UNL A   1      -1.241  -3.123   0.002  0.00  0.00    +0.227 C 
ATOM      9  O   UNL A   1      -0.376  -3.991   0.002  0.00  0.00    -0.275 OA
ATOM     10  C   UNL A   1      -2.684  -3.519   0.005  0.00  0.00    +0.033 C 
ATOM     11  C   UNL A   1      -3.438  -2.224   0.005  0.00  0.00    +0.033 C 
ATOM     12  C   UNL A   1      -2.382  -1.162  -0.002  0.00  0.00    +0.227 C 
ATOM     13  O   UNL A   1      -2.717   0.014  -0.008  0.00  0.00    -0.275 OA
ENDBRANCH   5   7
BRANCH   1  15
ATOM     14  O   UNL A   1       2.551   3.178   0.000  0.00  0.00    -0.241 OA
ATOM     15  C   UNL A   1       1.409   2.617   0.001  0.00  0.00    +0.387 C 
ATOM     16  O   UNL A   1       0.289   3.217   0.002  0.00  0.00    -0.241 OA
ENDBRANCH   1  15
TORSDOF 2
