MODEL 1
REMARK VINA RESULT:    -7.682      0.000      0.000
REMARK INTER + INTRA:          -8.125
REMARK INTER:                  -8.581
REMARK INTRA:                   0.456
REMARK UNBOUND:                 0.456
REMARK  Name = cpd64.pdb
REMARK  2 active torsions:
REMARK  status: ('A' for Active; 'I' for Inactive)
REMARK    1  A    between atoms: C_2  and  C_4
REMARK    2  A    between atoms: C_8  and  N_9
REMARK                            x       y       z     vdW  Elec       q    Type
REMARK                         _______ _______ _______ _____ _____    ______ ____
ROOT
ATOM      1  C   UNL A   1      41.905 -37.202 -31.128  0.00  0.00    +0.065 A 
ATOM      2  C   UNL A   1      41.682 -36.456 -32.290  0.00  0.00    -0.048 A 
ATOM      3  C   UNL A   1      40.422 -35.939 -32.560  0.00  0.00    -0.059 A 
ATOM      4  C   UNL A   1      39.367 -36.163 -31.669  0.00  0.00    -0.040 A 
ATOM      5  C   UNL A   1      39.532 -36.905 -30.484  0.00  0.00    +0.045 A 
ATOM      6  C   UNL A   1      40.822 -37.414 -30.242  0.00  0.00    -0.026 A 
ENDROOT
BRANCH   5   7
ATOM      7  N   UNL A   1      38.435 -37.127 -29.577  0.00  0.00    -0.210 N 
ATOM      8  C   UNL A   1      37.238 -36.442 -29.614  0.00  0.00    +0.227 C 
ATOM      9  O   UNL A   1      36.850 -35.553 -30.363  0.00  0.00    -0.275 OA
ATOM     10  C   UNL A   1      36.336 -36.937 -28.527  0.00  0.00    +0.033 C 
ATOM     11  C   UNL A   1      37.126 -38.001 -27.827  0.00  0.00    +0.033 C 
ATOM     12  C   UNL A   1      38.435 -38.050 -28.552  0.00  0.00    +0.227 C 
ATOM     13  O   UNL A   1      39.292 -38.842 -28.185  0.00  0.00    -0.275 OA
ENDBRANCH   5   7
BRANCH   1  15
ATOM     14  O   UNL A   1      44.258 -36.948 -30.852  0.00  0.00    -0.241 OA
ATOM     15  C   UNL A   1      43.284 -37.767 -30.837  0.00  0.00    +0.387 C 
ATOM     16  O   UNL A   1      43.367 -39.012 -30.600  0.00  0.00    -0.241 OA
ENDBRANCH   1  15
TORSDOF 2
ENDMDL
MODEL 2
REMARK VINA RESULT:    -7.432      2.021      3.225
REMARK INTER + INTRA:          -7.845
REMARK INTER:                  -7.531
REMARK INTRA:                  -0.315
REMARK UNBOUND:                 0.456
REMARK  Name = cpd64.pdb
REMARK  2 active torsions:
REMARK  status: ('A' for Active; 'I' for Inactive)
REMARK    1  A    between atoms: C_2  and  C_4
REMARK    2  A    between atoms: C_8  and  N_9
REMARK                            x       y       z     vdW  Elec       q    Type
REMARK                         _______ _______ _______ _____ _____    ______ ____
ROOT
ATOM      1  C   UNL A   1      40.427 -37.104 -30.729  0.00  0.00    +0.065 A 
ATOM      2  C   UNL A   1      41.010 -36.881 -31.981  0.00  0.00    -0.048 A 
ATOM      3  C   UNL A   1      40.322 -36.176 -32.959  0.00  0.00    -0.059 A 
ATOM      4  C   UNL A   1      39.038 -35.683 -32.696  0.00  0.00    -0.040 A 
ATOM      5  C   UNL A   1      38.403 -35.877 -31.455  0.00  0.00    +0.045 A 
ATOM      6  C   UNL A   1      39.129 -36.596 -30.487  0.00  0.00    -0.026 A 
ENDROOT
BRANCH   5   7
ATOM      7  N   UNL A   1      37.080 -35.364 -31.201  0.00  0.00    -0.210 N 
ATOM      8  C   UNL A   1      35.969 -36.148 -30.962  0.00  0.00    +0.227 C 
ATOM      9  O   UNL A   1      35.848 -37.366 -30.914  0.00  0.00    -0.275 OA
ATOM     10  C   UNL A   1      34.773 -35.278 -30.737  0.00  0.00    +0.033 C 
ATOM     11  C   UNL A   1      35.287 -33.876 -30.866  0.00  0.00    +0.033 C 
ATOM     12  C   UNL A   1      36.748 -34.026 -31.162  0.00  0.00    +0.227 C 
ATOM     13  O   UNL A   1      37.431 -33.025 -31.324  0.00  0.00    -0.275 OA
ENDBRANCH   5   7
BRANCH   1  15
ATOM     14  O   UNL A   1      42.146 -38.610 -30.054  0.00  0.00    -0.241 OA
ATOM     15  C   UNL A   1      41.183 -37.876 -29.663  0.00  0.00    +0.387 C 
ATOM     16  O   UNL A   1      40.801 -37.735 -28.459  0.00  0.00    -0.241 OA
ENDBRANCH   1  15
TORSDOF 2
ENDMDL
MODEL 3
REMARK VINA RESULT:    -7.346     33.961     35.289
REMARK INTER + INTRA:          -7.749
REMARK INTER:                  -7.354
REMARK INTRA:                  -0.395
REMARK UNBOUND:                 0.456
REMARK  Name = cpd64.pdb
REMARK  2 active torsions:
REMARK  status: ('A' for Active; 'I' for Inactive)
REMARK    1  A    between atoms: C_2  and  C_4
REMARK    2  A    between atoms: C_8  and  N_9
REMARK                            x       y       z     vdW  Elec       q    Type
REMARK                         _______ _______ _______ _____ _____    ______ ____
ROOT
ATOM      1  C   UNL A   1      63.113 -21.443  -8.697  0.00  0.00    +0.065 A 
ATOM      2  C   UNL A   1      63.204 -21.543 -10.089  0.00  0.00    -0.048 A 
ATOM      3  C   UNL A   1      63.433 -22.773 -10.690  0.00  0.00    -0.059 A 
ATOM      4  C   UNL A   1      63.573 -23.922  -9.905  0.00  0.00    -0.040 A 
ATOM      5  C   UNL A   1      63.491 -23.883  -8.500  0.00  0.00    +0.045 A 
ATOM      6  C   UNL A   1      63.258 -22.620  -7.924  0.00  0.00    -0.026 A 
ENDROOT
BRANCH   5   7
ATOM      7  N   UNL A   1      63.639 -25.075  -7.705  0.00  0.00    -0.210 N 
ATOM      8  C   UNL A   1      64.840 -25.709  -7.459  0.00  0.00    +0.227 C 
ATOM      9  O   UNL A   1      65.976 -25.435  -7.828  0.00  0.00    -0.275 OA
ATOM     10  C   UNL A   1      64.614 -26.910  -6.596  0.00  0.00    +0.033 C 
ATOM     11  C   UNL A   1      63.136 -26.931  -6.346  0.00  0.00    +0.033 C 
ATOM     12  C   UNL A   1      62.603 -25.742  -7.085  0.00  0.00    +0.227 C 
ATOM     13  O   UNL A   1      61.402 -25.512  -7.059  0.00  0.00    -0.275 OA
ENDBRANCH   5   7
BRANCH   1  15
ATOM     14  O   UNL A   1      62.426 -20.106  -6.849  0.00  0.00    -0.241 OA
ATOM     15  C   UNL A   1      62.864 -20.096  -8.044  0.00  0.00    +0.387 C 
ATOM     16  O   UNL A   1      63.110 -19.058  -8.734  0.00  0.00    -0.241 OA
ENDBRANCH   1  15
TORSDOF 2
ENDMDL
MODEL 4
REMARK VINA RESULT:    -7.274      2.904      4.224
REMARK INTER + INTRA:          -7.668
REMARK INTER:                  -7.356
REMARK INTRA:                  -0.312
REMARK UNBOUND:                 0.456
REMARK  Name = cpd64.pdb
REMARK  2 active torsions:
REMARK  status: ('A' for Active; 'I' for Inactive)
REMARK    1  A    between atoms: C_2  and  C_4
REMARK    2  A    between atoms: C_8  and  N_9
REMARK                            x       y       z     vdW  Elec       q    Type
REMARK                         _______ _______ _______ _____ _____    ______ ____
ROOT
ATOM      1  C   UNL A   1      39.543 -35.967 -31.791  0.00  0.00    +0.065 A 
ATOM      2  C   UNL A   1      39.813 -36.814 -30.711  0.00  0.00    -0.048 A 
ATOM      3  C   UNL A   1      38.808 -37.144 -29.812  0.00  0.00    -0.059 A 
ATOM      4  C   UNL A   1      37.518 -36.631 -29.983  0.00  0.00    -0.040 A 
ATOM      5  C   UNL A   1      37.188 -35.775 -31.051  0.00  0.00    +0.045 A 
ATOM      6  C   UNL A   1      38.231 -35.461 -31.943  0.00  0.00    -0.026 A 
ENDROOT
BRANCH   5   7
ATOM      7  N   UNL A   1      35.855 -35.254 -31.212  0.00  0.00    -0.210 N 
ATOM      8  C   UNL A   1      34.741 -36.022 -31.486  0.00  0.00    +0.227 C 
ATOM      9  O   UNL A   1      34.627 -37.232 -31.645  0.00  0.00    -0.275 OA
ATOM     10  C   UNL A   1      33.532 -35.147 -31.583  0.00  0.00    +0.033 C 
ATOM     11  C   UNL A   1      34.041 -33.759 -31.337  0.00  0.00    +0.033 C 
ATOM     12  C   UNL A   1      35.513 -33.921 -31.117  0.00  0.00    +0.227 C 
ATOM     13  O   UNL A   1      36.196 -32.932 -30.894  0.00  0.00    -0.275 OA
ENDBRANCH   5   7
BRANCH   1  15
ATOM     14  O   UNL A   1      41.557 -34.825 -32.354  0.00  0.00    -0.241 OA
ATOM     15  C   UNL A   1      40.645 -35.607 -32.772  0.00  0.00    +0.387 C 
ATOM     16  O   UNL A   1      40.579 -36.113 -33.936  0.00  0.00    -0.241 OA
ENDBRANCH   1  15
TORSDOF 2
ENDMDL
MODEL 5
REMARK VINA RESULT:    -7.266      1.708      5.471
REMARK INTER + INTRA:          -7.660
REMARK INTER:                  -7.693
REMARK INTRA:                   0.033
REMARK UNBOUND:                 0.456
REMARK  Name = cpd64.pdb
REMARK  2 active torsions:
REMARK  status: ('A' for Active; 'I' for Inactive)
REMARK    1  A    between atoms: C_2  and  C_4
REMARK    2  A    between atoms: C_8  and  N_9
REMARK                            x       y       z     vdW  Elec       q    Type
REMARK                         _______ _______ _______ _____ _____    ______ ____
ROOT
ATOM      1  C   UNL A   1      37.329 -37.032 -29.957  0.00  0.00    +0.065 A 
ATOM      2  C   UNL A   1      37.287 -37.787 -28.780  0.00  0.00    -0.048 A 
ATOM      3  C   UNL A   1      38.460 -38.253 -28.204  0.00  0.00    -0.059 A 
ATOM      4  C   UNL A   1      39.694 -37.968 -28.799  0.00  0.00    -0.040 A 
ATOM      5  C   UNL A   1      39.798 -37.213 -29.982  0.00  0.00    +0.045 A 
ATOM      6  C   UNL A   1      38.589 -36.756 -30.539  0.00  0.00    -0.026 A 
ENDROOT
BRANCH   5   7
ATOM      7  N   UNL A   1      41.077 -36.928 -30.582  0.00  0.00    -0.210 N 
ATOM      8  C   UNL A   1      41.439 -35.706 -31.111  0.00  0.00    +0.227 C 
ATOM      9  O   UNL A   1      40.814 -34.655 -31.191  0.00  0.00    -0.275 OA
ATOM     10  C   UNL A   1      42.835 -35.777 -31.644  0.00  0.00    +0.033 C 
ATOM     11  C   UNL A   1      43.277 -37.184 -31.378  0.00  0.00    +0.033 C 
ATOM     12  C   UNL A   1      42.106 -37.837 -30.711  0.00  0.00    +0.227 C 
ATOM     13  O   UNL A   1      42.186 -39.011 -30.380  0.00  0.00    -0.275 OA
ENDBRANCH   5   7
BRANCH   1  15
ATOM     14  O   UNL A   1      35.989 -35.287 -30.871  0.00  0.00    -0.241 OA
ATOM     15  C   UNL A   1      36.043 -36.525 -30.584  0.00  0.00    +0.387 C 
ATOM     16  O   UNL A   1      35.115 -37.371 -30.778  0.00  0.00    -0.241 OA
ENDBRANCH   1  15
TORSDOF 2
ENDMDL
MODEL 6
REMARK VINA RESULT:    -7.209      2.869      4.052
REMARK INTER + INTRA:          -7.595
REMARK INTER:                  -7.257
REMARK INTRA:                  -0.339
REMARK UNBOUND:                 0.456
REMARK  Name = cpd64.pdb
REMARK  2 active torsions:
REMARK  status: ('A' for Active; 'I' for Inactive)
REMARK    1  A    between atoms: C_2  and  C_4
REMARK    2  A    between atoms: C_8  and  N_9
REMARK                            x       y       z     vdW  Elec       q    Type
REMARK                         _______ _______ _______ _____ _____    ______ ____
ROOT
ATOM      1  C   UNL A   1      39.534 -36.000 -31.724  0.00  0.00    +0.065 A 
ATOM      2  C   UNL A   1      39.827 -36.828 -30.635  0.00  0.00    -0.048 A 
ATOM      3  C   UNL A   1      38.828 -37.188 -29.740  0.00  0.00    -0.059 A 
ATOM      4  C   UNL A   1      37.521 -36.725 -29.925  0.00  0.00    -0.040 A 
ATOM      5  C   UNL A   1      37.168 -35.891 -31.002  0.00  0.00    +0.045 A 
ATOM      6  C   UNL A   1      38.205 -35.545 -31.890  0.00  0.00    -0.026 A 
ENDROOT
BRANCH   5   7
ATOM      7  N   UNL A   1      35.817 -35.421 -31.178  0.00  0.00    -0.210 N 
ATOM      8  C   UNL A   1      35.422 -34.106 -31.043  0.00  0.00    +0.227 C 
ATOM      9  O   UNL A   1      36.069 -33.103 -30.762  0.00  0.00    -0.275 OA
ATOM     10  C   UNL A   1      33.952 -33.988 -31.299  0.00  0.00    +0.033 C 
ATOM     11  C   UNL A   1      33.503 -35.384 -31.606  0.00  0.00    +0.033 C 
ATOM     12  C   UNL A   1      34.741 -36.220 -31.504  0.00  0.00    +0.227 C 
ATOM     13  O   UNL A   1      34.668 -37.424 -31.705  0.00  0.00    -0.275 OA
ENDBRANCH   5   7
BRANCH   1  15
ATOM     14  O   UNL A   1      40.571 -36.110 -33.866  0.00  0.00    -0.241 OA
ATOM     15  C   UNL A   1      40.630 -35.608 -32.699  0.00  0.00    +0.387 C 
ATOM     16  O   UNL A   1      41.524 -34.807 -32.281  0.00  0.00    -0.241 OA
ENDBRANCH   1  15
TORSDOF 2
ENDMDL
MODEL 7
REMARK VINA RESULT:    -7.089      2.105      3.335
REMARK INTER + INTRA:          -7.461
REMARK INTER:                  -7.244
REMARK INTRA:                  -0.217
REMARK UNBOUND:                 0.456
REMARK  Name = cpd64.pdb
REMARK  2 active torsions:
REMARK  status: ('A' for Active; 'I' for Inactive)
REMARK    1  A    between atoms: C_2  and  C_4
REMARK    2  A    between atoms: C_8  and  N_9
REMARK                            x       y       z     vdW  Elec       q    Type
REMARK                         _______ _______ _______ _____ _____    ______ ____
ROOT
ATOM      1  C   UNL A   1      40.695 -36.608 -31.025  0.00  0.00    +0.065 A 
ATOM      2  C   UNL A   1      41.021 -37.312 -29.861  0.00  0.00    -0.048 A 
ATOM      3  C   UNL A   1      40.018 -37.806 -29.037  0.00  0.00    -0.059 A 
ATOM      4  C   UNL A   1      38.674 -37.602 -29.369  0.00  0.00    -0.040 A 
ATOM      5  C   UNL A   1      38.287 -36.903 -30.527  0.00  0.00    +0.045 A 
ATOM      6  C   UNL A   1      39.329 -36.416 -31.340  0.00  0.00    -0.026 A 
ENDROOT
BRANCH   5   7
ATOM      7  N   UNL A   1      36.899 -36.700 -30.855  0.00  0.00    -0.210 N 
ATOM      8  C   UNL A   1      35.978 -37.715 -31.022  0.00  0.00    +0.227 C 
ATOM      9  O   UNL A   1      36.107 -38.931 -30.941  0.00  0.00    -0.275 OA
ATOM     10  C   UNL A   1      34.638 -37.135 -31.352  0.00  0.00    +0.033 C 
ATOM     11  C   UNL A   1      34.854 -35.652 -31.365  0.00  0.00    +0.033 C 
ATOM     12  C   UNL A   1      36.306 -35.470 -31.045  0.00  0.00    +0.227 C 
ATOM     13  O   UNL A   1      36.769 -34.339 -30.992  0.00  0.00    -0.275 OA
ENDBRANCH   5   7
BRANCH   1  15
ATOM     14  O   UNL A   1      42.985 -36.432 -31.659  0.00  0.00    -0.241 OA
ATOM     15  C   UNL A   1      41.794 -36.069 -31.922  0.00  0.00    +0.387 C 
ATOM     16  O   UNL A   1      41.448 -35.296 -32.869  0.00  0.00    -0.241 OA
ENDBRANCH   1  15
TORSDOF 2
ENDMDL
MODEL 8
REMARK VINA RESULT:    -6.996      2.065      3.011
REMARK INTER + INTRA:          -7.358
REMARK INTER:                  -7.145
REMARK INTRA:                  -0.214
REMARK UNBOUND:                 0.456
REMARK  Name = cpd64.pdb
REMARK  2 active torsions:
REMARK  status: ('A' for Active; 'I' for Inactive)
REMARK    1  A    between atoms: C_2  and  C_4
REMARK    2  A    between atoms: C_8  and  N_9
REMARK                            x       y       z     vdW  Elec       q    Type
REMARK                         _______ _______ _______ _____ _____    ______ ____
ROOT
ATOM      1  C   UNL A   1      40.695 -36.782 -30.908  0.00  0.00    +0.065 A 
ATOM      2  C   UNL A   1      40.922 -37.485 -29.721  0.00  0.00    -0.048 A 
ATOM      3  C   UNL A   1      39.854 -37.885 -28.928  0.00  0.00    -0.059 A 
ATOM      4  C   UNL A   1      38.543 -37.586 -29.315  0.00  0.00    -0.040 A 
ATOM      5  C   UNL A   1      38.255 -36.882 -30.499  0.00  0.00    +0.045 A 
ATOM      6  C   UNL A   1      39.361 -36.492 -31.279  0.00  0.00    -0.026 A 
ENDROOT
BRANCH   5   7
ATOM      7  N   UNL A   1      36.899 -36.581 -30.883  0.00  0.00    -0.210 N 
ATOM      8  C   UNL A   1      36.416 -35.309 -31.118  0.00  0.00    +0.227 C 
ATOM      9  O   UNL A   1      36.975 -34.220 -31.060  0.00  0.00    -0.275 OA
ATOM     10  C   UNL A   1      34.970 -35.378 -31.498  0.00  0.00    +0.033 C 
ATOM     11  C   UNL A   1      34.633 -36.837 -31.467  0.00  0.00    +0.033 C 
ATOM     12  C   UNL A   1      35.905 -37.519 -31.067  0.00  0.00    +0.227 C 
ATOM     13  O   UNL A   1      35.921 -38.737 -30.956  0.00  0.00    -0.275 OA
ENDBRANCH   5   7
BRANCH   1  15
ATOM     14  O   UNL A   1      42.969 -36.954 -31.597  0.00  0.00    -0.241 OA
ATOM     15  C   UNL A   1      41.865 -36.346 -31.771  0.00  0.00    +0.387 C 
ATOM     16  O   UNL A   1      41.659 -35.409 -32.604  0.00  0.00    -0.241 OA
ENDBRANCH   1  15
TORSDOF 2
ENDMDL
MODEL 9
REMARK VINA RESULT:    -6.892      3.540      5.601
REMARK INTER + INTRA:          -7.241
REMARK INTER:                  -6.826
REMARK INTRA:                  -0.415
REMARK UNBOUND:                 0.456
REMARK  Name = cpd64.pdb
REMARK  2 active torsions:
REMARK  status: ('A' for Active; 'I' for Inactive)
REMARK    1  A    between atoms: C_2  and  C_4
REMARK    2  A    between atoms: C_8  and  N_9
REMARK                            x       y       z     vdW  Elec       q    Type
REMARK                         _______ _______ _______ _____ _____    ______ ____
ROOT
ATOM      1  C   UNL A   1      37.155 -37.018 -29.197  0.00  0.00    +0.065 A 
ATOM      2  C   UNL A   1      38.384 -36.893 -29.853  0.00  0.00    -0.048 A 
ATOM      3  C   UNL A   1      38.499 -36.086 -30.978  0.00  0.00    -0.059 A 
ATOM      4  C   UNL A   1      37.383 -35.394 -31.460  0.00  0.00    -0.040 A 
ATOM      5  C   UNL A   1      36.122 -35.481 -30.841  0.00  0.00    +0.045 A 
ATOM      6  C   UNL A   1      36.042 -36.307 -29.703  0.00  0.00    -0.026 A 
ENDROOT
BRANCH   5   7
ATOM      7  N   UNL A   1      34.983 -34.762 -31.351  0.00  0.00    -0.210 N 
ATOM      8  C   UNL A   1      34.119 -35.244 -32.313  0.00  0.00    +0.227 C 
ATOM      9  O   UNL A   1      34.113 -36.311 -32.917  0.00  0.00    -0.275 OA
ATOM     10  C   UNL A   1      33.054 -34.231 -32.594  0.00  0.00    +0.033 C 
ATOM     11  C   UNL A   1      33.373 -33.079 -31.690  0.00  0.00    +0.033 C 
ATOM     12  C   UNL A   1      34.604 -33.498 -30.948  0.00  0.00    +0.227 C 
ATOM     13  O   UNL A   1      35.098 -32.735 -30.130  0.00  0.00    -0.275 OA
ENDBRANCH   5   7
BRANCH   1  15
ATOM     14  O   UNL A   1      37.640 -39.020 -27.999  0.00  0.00    -0.241 OA
ATOM     15  C   UNL A   1      37.034 -37.902 -27.968  0.00  0.00    +0.387 C 
ATOM     16  O   UNL A   1      36.339 -37.462 -27.000  0.00  0.00    -0.241 OA
ENDBRANCH   1  15
TORSDOF 2
ENDMDL
MODEL 10
REMARK VINA RESULT:    -6.862      1.662      5.825
REMARK INTER + INTRA:          -7.208
REMARK INTER:                  -7.374
REMARK INTRA:                   0.165
REMARK UNBOUND:                 0.456
REMARK  Name = cpd64.pdb
REMARK  2 active torsions:
REMARK  status: ('A' for Active; 'I' for Inactive)
REMARK    1  A    between atoms: C_2  and  C_4
REMARK    2  A    between atoms: C_8  and  N_9
REMARK                            x       y       z     vdW  Elec       q    Type
REMARK                         _______ _______ _______ _____ _____    ______ ____
ROOT
ATOM      1  C   UNL A   1      37.199 -37.276 -29.486  0.00  0.00    +0.065 A 
ATOM      2  C   UNL A   1      37.403 -37.941 -28.272  0.00  0.00    -0.048 A 
ATOM      3  C   UNL A   1      38.682 -38.312 -27.882  0.00  0.00    -0.059 A 
ATOM      4  C   UNL A   1      39.777 -38.020 -28.702  0.00  0.00    -0.040 A 
ATOM      5  C   UNL A   1      39.634 -37.353 -29.933  0.00  0.00    +0.045 A 
ATOM      6  C   UNL A   1      38.323 -36.992 -30.298  0.00  0.00    -0.026 A 
ENDROOT
BRANCH   5   7
ATOM      7  N   UNL A   1      40.772 -37.061 -30.767  0.00  0.00    -0.210 N 
ATOM      8  C   UNL A   1      41.879 -37.875 -30.894  0.00  0.00    +0.227 C 
ATOM      9  O   UNL A   1      42.142 -38.952 -30.371  0.00  0.00    -0.275 OA
ATOM     10  C   UNL A   1      42.857 -37.257 -31.843  0.00  0.00    +0.033 C 
ATOM     11  C   UNL A   1      42.215 -35.975 -32.277  0.00  0.00    +0.033 C 
ATOM     12  C   UNL A   1      40.907 -35.932 -31.548  0.00  0.00    +0.227 C 
ATOM     13  O   UNL A   1      40.163 -34.976 -31.712  0.00  0.00    -0.275 OA
ENDBRANCH   5   7
BRANCH   1  15
ATOM     14  O   UNL A   1      35.432 -35.685 -29.638  0.00  0.00    -0.241 OA
ATOM     15  C   UNL A   1      35.798 -36.873 -29.909  0.00  0.00    +0.387 C 
ATOM     16  O   UNL A   1      35.094 -37.748 -30.504  0.00  0.00    -0.241 OA
ENDBRANCH   1  15
TORSDOF 2
ENDMDL
MODEL 11
REMARK VINA RESULT:    -6.675      3.348      5.380
REMARK INTER + INTRA:          -6.999
REMARK INTER:                  -6.586
REMARK INTRA:                  -0.414
REMARK UNBOUND:                 0.456
REMARK  Name = cpd64.pdb
REMARK  2 active torsions:
REMARK  status: ('A' for Active; 'I' for Inactive)
REMARK    1  A    between atoms: C_2  and  C_4
REMARK    2  A    between atoms: C_8  and  N_9
REMARK                            x       y       z     vdW  Elec       q    Type
REMARK                         _______ _______ _______ _____ _____    ______ ____
ROOT
ATOM      1  C   UNL A   1      37.313 -37.151 -29.257  0.00  0.00    +0.065 A 
ATOM      2  C   UNL A   1      38.519 -37.035 -29.957  0.00  0.00    -0.048 A 
ATOM      3  C   UNL A   1      38.594 -36.247 -31.097  0.00  0.00    -0.059 A 
ATOM      4  C   UNL A   1      37.462 -35.562 -31.552  0.00  0.00    -0.040 A 
ATOM      5  C   UNL A   1      36.223 -35.641 -30.889  0.00  0.00    +0.045 A 
ATOM      6  C   UNL A   1      36.182 -36.449 -29.736  0.00  0.00    -0.026 A 
ENDROOT
BRANCH   5   7
ATOM      7  N   UNL A   1      35.066 -34.931 -31.371  0.00  0.00    -0.210 N 
ATOM      8  C   UNL A   1      34.812 -33.595 -31.135  0.00  0.00    +0.227 C 
ATOM      9  O   UNL A   1      35.455 -32.759 -30.509  0.00  0.00    -0.275 OA
ATOM     10  C   UNL A   1      33.525 -33.199 -31.788  0.00  0.00    +0.033 C 
ATOM     11  C   UNL A   1      33.029 -34.449 -32.447  0.00  0.00    +0.033 C 
ATOM     12  C   UNL A   1      34.059 -35.489 -32.130  0.00  0.00    +0.227 C 
ATOM     13  O   UNL A   1      33.905 -36.629 -32.546  0.00  0.00    -0.275 OA
ENDBRANCH   5   7
BRANCH   1  15
ATOM     14  O   UNL A   1      36.231 -37.840 -27.249  0.00  0.00    -0.241 OA
ATOM     15  C   UNL A   1      37.235 -38.015 -28.011  0.00  0.00    +0.387 C 
ATOM     16  O   UNL A   1      38.174 -38.848 -27.819  0.00  0.00    -0.241 OA
ENDBRANCH   1  15
TORSDOF 2
ENDMDL
MODEL 12
REMARK VINA RESULT:    -6.670      2.055      2.721
REMARK INTER + INTRA:          -6.993
REMARK INTER:                  -6.712
REMARK INTRA:                  -0.281
REMARK UNBOUND:                 0.456
REMARK  Name = cpd64.pdb
REMARK  2 active torsions:
REMARK  status: ('A' for Active; 'I' for Inactive)
REMARK    1  A    between atoms: C_2  and  C_4
REMARK    2  A    between atoms: C_8  and  N_9
REMARK                            x       y       z     vdW  Elec       q    Type
REMARK                         _______ _______ _______ _____ _____    ______ ____
ROOT
ATOM      1  C   UNL A   1      39.948 -36.967 -30.447  0.00  0.00    +0.065 A 
ATOM      2  C   UNL A   1      40.309 -36.073 -31.461  0.00  0.00    -0.048 A 
ATOM      3  C   UNL A   1      39.333 -35.435 -32.213  0.00  0.00    -0.059 A 
ATOM      4  C   UNL A   1      37.979 -35.682 -31.959  0.00  0.00    -0.040 A 
ATOM      5  C   UNL A   1      37.556 -36.569 -30.952  0.00  0.00    +0.045 A 
ATOM      6  C   UNL A   1      38.572 -37.200 -30.209  0.00  0.00    -0.026 A 
ENDROOT
BRANCH   5   7
ATOM      7  N   UNL A   1      36.158 -36.814 -30.704  0.00  0.00    -0.210 N 
ATOM      8  C   UNL A   1      35.256 -35.853 -30.292  0.00  0.00    +0.227 C 
ATOM      9  O   UNL A   1      35.413 -34.661 -30.056  0.00  0.00    -0.275 OA
ATOM     10  C   UNL A   1      33.899 -36.464 -30.138  0.00  0.00    +0.033 C 
ATOM     11  C   UNL A   1      34.082 -37.906 -30.504  0.00  0.00    +0.033 C 
ATOM     12  C   UNL A   1      35.535 -38.036 -30.843  0.00  0.00    +0.227 C 
ATOM     13  O   UNL A   1      35.975 -39.127 -31.180  0.00  0.00    -0.275 OA
ENDBRANCH   5   7
BRANCH   1  15
ATOM     14  O   UNL A   1      42.136 -37.876 -30.198  0.00  0.00    -0.241 OA
ATOM     15  C   UNL A   1      41.018 -37.664 -29.628  0.00  0.00    +0.387 C 
ATOM     16  O   UNL A   1      40.724 -37.985 -28.434  0.00  0.00    -0.241 OA
ENDBRANCH   1  15
TORSDOF 2
ENDMDL
MODEL 13
REMARK VINA RESULT:    -6.611      2.194      5.591
REMARK INTER + INTRA:          -6.928
REMARK INTER:                  -6.580
REMARK INTRA:                  -0.349
REMARK UNBOUND:                 0.456
REMARK  Name = cpd64.pdb
REMARK  2 active torsions:
REMARK  status: ('A' for Active; 'I' for Inactive)
REMARK    1  A    between atoms: C_2  and  C_4
REMARK    2  A    between atoms: C_8  and  N_9
REMARK                            x       y       z     vdW  Elec       q    Type
REMARK                         _______ _______ _______ _____ _____    ______ ____
ROOT
ATOM      1  C   UNL A   1      36.203 -39.568 -28.604  0.00  0.00    +0.065 A 
ATOM      2  C   UNL A   1      35.423 -38.650 -27.893  0.00  0.00    -0.048 A 
ATOM      3  C   UNL A   1      35.762 -37.304 -27.882  0.00  0.00    -0.059 A 
ATOM      4  C   UNL A   1      36.887 -36.858 -28.584  0.00  0.00    -0.040 A 
ATOM      5  C   UNL A   1      37.708 -37.735 -29.317  0.00  0.00    +0.045 A 
ATOM      6  C   UNL A   1      37.335 -39.093 -29.307  0.00  0.00    -0.026 A 
ENDROOT
BRANCH   5   7
ATOM      7  N   UNL A   1      38.864 -37.261 -30.034  0.00  0.00    -0.210 N 
ATOM      8  C   UNL A   1      38.815 -36.461 -31.157  0.00  0.00    +0.227 C 
ATOM      9  O   UNL A   1      37.857 -36.000 -31.767  0.00  0.00    -0.275 OA
ATOM     10  C   UNL A   1      40.203 -36.163 -31.630  0.00  0.00    +0.033 C 
ATOM     11  C   UNL A   1      41.099 -36.875 -30.663  0.00  0.00    +0.033 C 
ATOM     12  C   UNL A   1      40.171 -37.542 -29.695  0.00  0.00    +0.227 C 
ATOM     13  O   UNL A   1      40.638 -38.210 -28.783  0.00  0.00    -0.275 OA
ENDBRANCH   5   7
BRANCH   1  15
ATOM     14  O   UNL A   1      34.908 -41.397 -29.415  0.00  0.00    -0.241 OA
ATOM     15  C   UNL A   1      35.830 -41.040 -28.613  0.00  0.00    +0.387 C 
ATOM     16  O   UNL A   1      36.463 -41.807 -27.823  0.00  0.00    -0.241 OA
ENDBRANCH   1  15
TORSDOF 2
ENDMDL
MODEL 14
REMARK VINA RESULT:    -6.451     19.760     21.394
REMARK INTER + INTRA:          -6.749
REMARK INTER:                  -6.330
REMARK INTRA:                  -0.420
REMARK UNBOUND:                 0.456
REMARK  Name = cpd64.pdb
REMARK  2 active torsions:
REMARK  status: ('A' for Active; 'I' for Inactive)
REMARK    1  A    between atoms: C_2  and  C_4
REMARK    2  A    between atoms: C_8  and  N_9
REMARK                            x       y       z     vdW  Elec       q    Type
REMARK                         _______ _______ _______ _____ _____    ______ ____
ROOT
ATOM      1  C   UNL A   1      46.221 -21.973 -41.857  0.00  0.00    +0.065 A 
ATOM      2  C   UNL A   1      45.181 -21.817 -42.779  0.00  0.00    -0.048 A 
ATOM      3  C   UNL A   1      44.453 -20.636 -42.822  0.00  0.00    -0.059 A 
ATOM      4  C   UNL A   1      44.758 -19.593 -41.941  0.00  0.00    -0.040 A 
ATOM      5  C   UNL A   1      45.794 -19.692 -40.993  0.00  0.00    +0.045 A 
ATOM      6  C   UNL A   1      46.512 -20.903 -40.978  0.00  0.00    -0.026 A 
ENDROOT
BRANCH   5   7
ATOM      7  N   UNL A   1      46.095 -18.609 -40.092  0.00  0.00    -0.210 N 
ATOM      8  C   UNL A   1      47.020 -17.615 -40.344  0.00  0.00    +0.227 C 
ATOM      9  O   UNL A   1      47.748 -17.429 -41.312  0.00  0.00    -0.275 OA
ATOM     10  C   UNL A   1      47.066 -16.661 -39.192  0.00  0.00    +0.033 C 
ATOM     11  C   UNL A   1      46.063 -17.191 -38.213  0.00  0.00    +0.033 C 
ATOM     12  C   UNL A   1      45.503 -18.420 -38.861  0.00  0.00    +0.227 C 
ATOM     13  O   UNL A   1      44.650 -19.070 -38.273  0.00  0.00    -0.275 OA
ENDBRANCH   5   7
BRANCH   1  15
ATOM     14  O   UNL A   1      47.942 -23.346 -40.947  0.00  0.00    -0.241 OA
ATOM     15  C   UNL A   1      47.014 -23.267 -41.814  0.00  0.00    +0.387 C 
ATOM     16  O   UNL A   1      46.695 -24.175 -42.643  0.00  0.00    -0.241 OA
ENDBRANCH   1  15
TORSDOF 2
ENDMDL
MODEL 15
REMARK VINA RESULT:    -6.443     19.825     21.537
REMARK INTER + INTRA:          -6.741
REMARK INTER:                  -6.321
REMARK INTRA:                  -0.420
REMARK UNBOUND:                 0.456
REMARK  Name = cpd64.pdb
REMARK  2 active torsions:
REMARK  status: ('A' for Active; 'I' for Inactive)
REMARK    1  A    between atoms: C_2  and  C_4
REMARK    2  A    between atoms: C_8  and  N_9
REMARK                            x       y       z     vdW  Elec       q    Type
REMARK                         _______ _______ _______ _____ _____    ______ ____
ROOT
ATOM      1  C   UNL A   1      46.230 -21.866 -41.843  0.00  0.00    +0.065 A 
ATOM      2  C   UNL A   1      45.168 -21.706 -42.740  0.00  0.00    -0.048 A 
ATOM      3  C   UNL A   1      44.457 -20.515 -42.777  0.00  0.00    -0.059 A 
ATOM      4  C   UNL A   1      44.799 -19.466 -41.917  0.00  0.00    -0.040 A 
ATOM      5  C   UNL A   1      45.858 -19.570 -40.995  0.00  0.00    +0.045 A 
ATOM      6  C   UNL A   1      46.558 -20.791 -40.984  0.00  0.00    -0.026 A 
ENDROOT
BRANCH   5   7
ATOM      7  N   UNL A   1      46.198 -18.481 -40.115  0.00  0.00    -0.210 N 
ATOM      8  C   UNL A   1      45.695 -18.319 -38.840  0.00  0.00    +0.227 C 
ATOM      9  O   UNL A   1      44.903 -19.003 -38.201  0.00  0.00    -0.275 OA
ATOM     10  C   UNL A   1      46.268 -17.083 -38.221  0.00  0.00    +0.033 C 
ATOM     11  C   UNL A   1      47.177 -16.515 -39.269  0.00  0.00    +0.033 C 
ATOM     12  C   UNL A   1      47.067 -17.457 -40.427  0.00  0.00    +0.227 C 
ATOM     13  O   UNL A   1      47.711 -17.233 -41.443  0.00  0.00    -0.275 OA
ENDBRANCH   5   7
BRANCH   1  15
ATOM     14  O   UNL A   1      47.945 -23.259 -40.952  0.00  0.00    -0.241 OA
ATOM     15  C   UNL A   1      47.005 -23.171 -41.805  0.00  0.00    +0.387 C 
ATOM     16  O   UNL A   1      46.660 -24.079 -42.624  0.00  0.00    -0.241 OA
ENDBRANCH   1  15
TORSDOF 2
ENDMDL
MODEL 16
REMARK VINA RESULT:    -6.430     35.896     37.446
REMARK INTER + INTRA:          -6.725
REMARK INTER:                  -6.492
REMARK INTRA:                  -0.234
REMARK UNBOUND:                 0.456
REMARK  Name = cpd64.pdb
REMARK  2 active torsions:
REMARK  status: ('A' for Active; 'I' for Inactive)
REMARK    1  A    between atoms: C_2  and  C_4
REMARK    2  A    between atoms: C_8  and  N_9
REMARK                            x       y       z     vdW  Elec       q    Type
REMARK                         _______ _______ _______ _____ _____    ______ ____
ROOT
ATOM      1  C   UNL A   1      64.259 -25.768  -6.484  0.00  0.00    +0.065 A 
ATOM      2  C   UNL A   1      63.754 -25.140  -7.627  0.00  0.00    -0.048 A 
ATOM      3  C   UNL A   1      63.316 -23.824  -7.568  0.00  0.00    -0.059 A 
ATOM      4  C   UNL A   1      63.380 -23.117  -6.361  0.00  0.00    -0.040 A 
ATOM      5  C   UNL A   1      63.879 -23.697  -5.180  0.00  0.00    +0.045 A 
ATOM      6  C   UNL A   1      64.314 -25.032  -5.276  0.00  0.00    -0.026 A 
ENDROOT
BRANCH   5   7
ATOM      7  N   UNL A   1      63.937 -22.956  -3.945  0.00  0.00    -0.210 N 
ATOM      8  C   UNL A   1      65.092 -22.716  -3.230  0.00  0.00    +0.227 C 
ATOM      9  O   UNL A   1      66.251 -23.048  -3.451  0.00  0.00    -0.275 OA
ATOM     10  C   UNL A   1      64.775 -21.916  -2.006  0.00  0.00    +0.033 C 
ATOM     11  C   UNL A   1      63.293 -21.699  -2.063  0.00  0.00    +0.033 C 
ATOM     12  C   UNL A   1      62.849 -22.391  -3.314  0.00  0.00    +0.227 C 
ATOM     13  O   UNL A   1      61.663 -22.379  -3.615  0.00  0.00    -0.275 OA
ENDBRANCH   5   7
BRANCH   1  15
ATOM     14  O   UNL A   1      63.845 -28.114  -6.492  0.00  0.00    -0.241 OA
ATOM     15  C   UNL A   1      64.736 -27.207  -6.552  0.00  0.00    +0.387 C 
ATOM     16  O   UNL A   1      65.986 -27.404  -6.666  0.00  0.00    -0.241 OA
ENDBRANCH   1  15
TORSDOF 2
ENDMDL
MODEL 17
REMARK VINA RESULT:    -6.361     35.922     37.435
REMARK INTER + INTRA:          -6.649
REMARK INTER:                  -6.337
REMARK INTRA:                  -0.311
REMARK UNBOUND:                 0.456
REMARK  Name = cpd64.pdb
REMARK  2 active torsions:
REMARK  status: ('A' for Active; 'I' for Inactive)
REMARK    1  A    between atoms: C_2  and  C_4
REMARK    2  A    between atoms: C_8  and  N_9
REMARK                            x       y       z     vdW  Elec       q    Type
REMARK                         _______ _______ _______ _____ _____    ______ ____
ROOT
ATOM      1  C   UNL A   1      64.282 -25.670  -6.504  0.00  0.00    +0.065 A 
ATOM      2  C   UNL A   1      63.900 -24.989  -7.665  0.00  0.00    -0.048 A 
ATOM      3  C   UNL A   1      63.530 -23.653  -7.604  0.00  0.00    -0.059 A 
ATOM      4  C   UNL A   1      63.537 -22.978  -6.378  0.00  0.00    -0.040 A 
ATOM      5  C   UNL A   1      63.913 -23.611  -5.178  0.00  0.00    +0.045 A 
ATOM      6  C   UNL A   1      64.283 -24.966  -5.276  0.00  0.00    -0.026 A 
ENDROOT
BRANCH   5   7
ATOM      7  N   UNL A   1      63.915 -22.903  -3.923  0.00  0.00    -0.210 N 
ATOM      8  C   UNL A   1      62.788 -22.395  -3.309  0.00  0.00    +0.227 C 
ATOM      9  O   UNL A   1      61.612 -22.420  -3.654  0.00  0.00    -0.275 OA
ATOM     10  C   UNL A   1      63.167 -21.727  -2.025  0.00  0.00    +0.033 C 
ATOM     11  C   UNL A   1      64.653 -21.889  -1.931  0.00  0.00    +0.033 C 
ATOM     12  C   UNL A   1      65.039 -22.638  -3.170  0.00  0.00    +0.227 C 
ATOM     13  O   UNL A   1      66.216 -22.910  -3.362  0.00  0.00    -0.275 OA
ENDBRANCH   5   7
BRANCH   1  15
ATOM     14  O   UNL A   1      63.747 -27.988  -6.624  0.00  0.00    -0.241 OA
ATOM     15  C   UNL A   1      64.686 -27.131  -6.575  0.00  0.00    +0.387 C 
ATOM     16  O   UNL A   1      65.929 -27.394  -6.582  0.00  0.00    -0.241 OA
ENDBRANCH   1  15
TORSDOF 2
ENDMDL
MODEL 18
REMARK VINA RESULT:    -6.277      2.407      6.117
REMARK INTER + INTRA:          -6.555
REMARK INTER:                  -6.138
REMARK INTRA:                  -0.417
REMARK UNBOUND:                 0.456
REMARK  Name = cpd64.pdb
REMARK  2 active torsions:
REMARK  status: ('A' for Active; 'I' for Inactive)
REMARK    1  A    between atoms: C_2  and  C_4
REMARK    2  A    between atoms: C_8  and  N_9
REMARK                            x       y       z     vdW  Elec       q    Type
REMARK                         _______ _______ _______ _____ _____    ______ ____
ROOT
ATOM      1  C   UNL A   1      34.963 -35.684 -30.104  0.00  0.00    +0.065 A 
ATOM      2  C   UNL A   1      34.232 -36.638 -30.819  0.00  0.00    -0.048 A 
ATOM      3  C   UNL A   1      34.818 -37.843 -31.182  0.00  0.00    -0.059 A 
ATOM      4  C   UNL A   1      36.146 -38.110 -30.831  0.00  0.00    -0.040 A 
ATOM      5  C   UNL A   1      36.929 -37.189 -30.111  0.00  0.00    +0.045 A 
ATOM      6  C   UNL A   1      36.304 -35.977 -29.760  0.00  0.00    -0.026 A 
ENDROOT
BRANCH   5   7
ATOM      7  N   UNL A   1      38.296 -37.479 -29.759  0.00  0.00    -0.210 N 
ATOM      8  C   UNL A   1      38.686 -38.125 -28.604  0.00  0.00    +0.227 C 
ATOM      9  O   UNL A   1      38.022 -38.571 -27.676  0.00  0.00    -0.275 OA
ATOM     10  C   UNL A   1      40.177 -38.255 -28.573  0.00  0.00    +0.033 C 
ATOM     11  C   UNL A   1      40.645 -37.612 -29.843  0.00  0.00    +0.033 C 
ATOM     12  C   UNL A   1      39.394 -37.149 -30.525  0.00  0.00    +0.227 C 
ATOM     13  O   UNL A   1      39.478 -36.574 -31.601  0.00  0.00    -0.275 OA
ENDBRANCH   5   7
BRANCH   1  15
ATOM     14  O   UNL A   1      33.428 -34.408 -28.802  0.00  0.00    -0.241 OA
ATOM     15  C   UNL A   1      34.318 -34.367 -29.710  0.00  0.00    +0.387 C 
ATOM     16  O   UNL A   1      34.713 -33.321 -30.313  0.00  0.00    -0.241 OA
ENDBRANCH   1  15
TORSDOF 2
ENDMDL
MODEL 19
REMARK VINA RESULT:    -6.198     18.236     19.514
REMARK INTER + INTRA:          -6.467
REMARK INTER:                  -6.051
REMARK INTRA:                  -0.416
REMARK UNBOUND:                 0.456
REMARK  Name = cpd64.pdb
REMARK  2 active torsions:
REMARK  status: ('A' for Active; 'I' for Inactive)
REMARK    1  A    between atoms: C_2  and  C_4
REMARK    2  A    between atoms: C_8  and  N_9
REMARK                            x       y       z     vdW  Elec       q    Type
REMARK                         _______ _______ _______ _____ _____    ______ ____
ROOT
ATOM      1  C   UNL A   1      46.979 -21.751 -41.249  0.00  0.00    +0.065 A 
ATOM      2  C   UNL A   1      47.291 -20.446 -41.644  0.00  0.00    -0.048 A 
ATOM      3  C   UNL A   1      46.356 -19.429 -41.509  0.00  0.00    -0.059 A 
ATOM      4  C   UNL A   1      45.093 -19.706 -40.974  0.00  0.00    -0.040 A 
ATOM      5  C   UNL A   1      44.723 -20.998 -40.559  0.00  0.00    +0.045 A 
ATOM      6  C   UNL A   1      45.695 -22.005 -40.710  0.00  0.00    -0.026 A 
ENDROOT
BRANCH   5   7
ATOM      7  N   UNL A   1      43.417 -21.266 -40.011  0.00  0.00    -0.210 N 
ATOM      8  C   UNL A   1      43.093 -21.162 -38.673  0.00  0.00    +0.227 C 
ATOM      9  O   UNL A   1      43.779 -20.844 -37.709  0.00  0.00    -0.275 OA
ATOM     10  C   UNL A   1      41.652 -21.513 -38.471  0.00  0.00    +0.033 C 
ATOM     11  C   UNL A   1      41.141 -21.842 -39.841  0.00  0.00    +0.033 C 
ATOM     12  C   UNL A   1      42.320 -21.663 -40.747  0.00  0.00    +0.227 C 
ATOM     13  O   UNL A   1      42.191 -21.873 -41.944  0.00  0.00    -0.275 OA
ENDBRANCH   5   7
BRANCH   1  15
ATOM     14  O   UNL A   1      49.136 -22.678 -40.848  0.00  0.00    -0.241 OA
ATOM     15  C   UNL A   1      48.004 -22.860 -41.399  0.00  0.00    +0.387 C 
ATOM     16  O   UNL A   1      47.660 -23.888 -42.062  0.00  0.00    -0.241 OA
ENDBRANCH   1  15
TORSDOF 2
ENDMDL
MODEL 20
REMARK VINA RESULT:    -6.196     18.313     19.501
REMARK INTER + INTRA:          -6.465
REMARK INTER:                  -6.049
REMARK INTRA:                  -0.415
REMARK UNBOUND:                 0.456
REMARK  Name = cpd64.pdb
REMARK  2 active torsions:
REMARK  status: ('A' for Active; 'I' for Inactive)
REMARK    1  A    between atoms: C_2  and  C_4
REMARK    2  A    between atoms: C_8  and  N_9
REMARK                            x       y       z     vdW  Elec       q    Type
REMARK                         _______ _______ _______ _____ _____    ______ ____
ROOT
ATOM      1  C   UNL A   1      46.892 -21.755 -41.307  0.00  0.00    +0.065 A 
ATOM      2  C   UNL A   1      47.234 -20.448 -41.671  0.00  0.00    -0.048 A 
ATOM      3  C   UNL A   1      46.328 -19.411 -41.493  0.00  0.00    -0.059 A 
ATOM      4  C   UNL A   1      45.066 -19.669 -40.946  0.00  0.00    -0.040 A 
ATOM      5  C   UNL A   1      44.668 -20.963 -40.560  0.00  0.00    +0.045 A 
ATOM      6  C   UNL A   1      45.611 -21.990 -40.754  0.00  0.00    -0.026 A 
ENDROOT
BRANCH   5   7
ATOM      7  N   UNL A   1      43.364 -21.213 -39.999  0.00  0.00    -0.210 N 
ATOM      8  C   UNL A   1      42.266 -21.628 -40.724  0.00  0.00    +0.227 C 
ATOM      9  O   UNL A   1      42.143 -21.865 -41.920  0.00  0.00    -0.275 OA
ATOM     10  C   UNL A   1      41.088 -21.788 -39.816  0.00  0.00    +0.033 C 
ATOM     11  C   UNL A   1      41.599 -21.421 -38.456  0.00  0.00    +0.033 C 
ATOM     12  C   UNL A   1      43.040 -21.069 -38.666  0.00  0.00    +0.227 C 
ATOM     13  O   UNL A   1      43.716 -20.721 -37.709  0.00  0.00    -0.275 OA
ENDBRANCH   5   7
BRANCH   1  15
ATOM     14  O   UNL A   1      47.577 -23.784 -42.350  0.00  0.00    -0.241 OA
ATOM     15  C   UNL A   1      47.886 -22.885 -41.504  0.00  0.00    +0.387 C 
ATOM     16  O   UNL A   1      48.952 -22.853 -40.813  0.00  0.00    -0.241 OA
ENDBRANCH   1  15
TORSDOF 2
ENDMDL
