REMARK  Name = cpd24.pdb
REMARK  14 active torsions:
REMARK  status: ('A' for Active; 'I' for Inactive)
REMARK    1  A    between atoms: C_1  and  C_2
REMARK    2  A    between atoms: C_6  and  N_7
REMARK    3  A    between atoms: N_7  and  C_8
REMARK    4  A    between atoms: C_13  and  C_14
REMARK    5  A    between atoms: N_16  and  C_17
REMARK    6  A    between atoms: C_17  and  C_18
REMARK    7  A    between atoms: C_18  and  C_19
REMARK    8  A    between atoms: C_19  and  C_20
REMARK    9  A    between atoms: C_20  and  C_21
REMARK   10  A    between atoms: C_21  and  C_22
REMARK   11  A    between atoms: C_22  and  C_23
REMARK   12  A    between atoms: C_23  and  N_24
REMARK   13  A    between atoms: N_24  and  C_25
REMARK   14  A    between atoms: C_39  and  C_40
REMARK                            x       y       z     vdW  Elec       q    Type
REMARK                         _______ _______ _______ _____ _____    ______ ____
ROOT
ATOM      1  C   UNL A   1       5.077   4.016   0.412  0.00  0.00    -0.037 C 
ENDROOT
BRANCH   1   2
ATOM      2  C   UNL A   1       4.274   3.430  -0.747  0.00  0.00    +0.012 C 
BRANCH   2   5
ATOM      3  C   UNL A   1       1.941   3.253   0.046  0.00  0.00    +0.246 C 
ATOM      4  O   UNL A   1       2.159   2.228   0.685  0.00  0.00    -0.270 OA
ATOM      5  N   UNL A   1       2.901   3.892  -0.714  0.00  0.00    -0.311 N 
ATOM      6  H   UNL A   1       2.646   4.680  -1.246  0.00  0.00    +0.000 HD
BRANCH   3  12
ATOM      7  C   UNL A   1      -0.565   3.032   0.130  0.00  0.00    +0.044 A 
ATOM      8  C   UNL A   1      -1.824   3.652   0.139  0.00  0.00    -0.040 A 
ATOM      9  C   UNL A   1      -1.953   5.042   0.076  0.00  0.00    -0.060 A 
ATOM     10  C   UNL A   1      -0.820   5.846   0.007  0.00  0.00    -0.061 A 
ATOM     11  C   UNL A   1       0.445   5.260  -0.004  0.00  0.00    -0.048 A 
ATOM     12  C   UNL A   1       0.578   3.860   0.043  0.00  0.00    +0.058 A 
BRANCH   7  13
ATOM     13  N   UNL A   1      -0.441   1.626   0.173  0.00  0.00    -0.314 N 
ATOM     14  H   UNL A   1       0.394   1.318   0.594  0.00  0.00    +0.000 HD
BRANCH  13  20
ATOM     15  C   UNL A   1      -1.952  -3.137   0.499  0.00  0.00    -0.039 C 
ATOM     16  C   UNL A   1      -2.022  -1.756  -0.096  0.00  0.00    -0.046 A 
ATOM     17  C   UNL A   1      -2.956  -1.514  -1.113  0.00  0.00    -0.058 A 
ATOM     18  C   UNL A   1      -3.056  -0.258  -1.700  0.00  0.00    -0.060 A 
ATOM     19  C   UNL A   1      -2.220   0.773  -1.279  0.00  0.00    -0.040 A 
ATOM     20  C   UNL A   1      -1.272   0.575  -0.265  0.00  0.00    +0.035 A 
ATOM     21  C   UNL A   1      -1.192  -0.699   0.357  0.00  0.00    -0.026 A 
ATOM     22  C   UNL A   1      -0.192  -0.929   1.466  0.00  0.00    -0.038 C 
ENDBRANCH  13  20
ENDBRANCH   7  13
ENDBRANCH   3  12
ENDBRANCH   2   5
ENDBRANCH   1   2
BRANCH   1  23
ATOM     23  C   UNL A   1       6.509   3.478   0.438  0.00  0.00    -0.052 C 
BRANCH  23  24
ATOM     24  C   UNL A   1       7.304   4.090   1.591  0.00  0.00    -0.053 C 
BRANCH  24  25
ATOM     25  C   UNL A   1       8.644   3.406   1.876  0.00  0.00    -0.052 C 
BRANCH  25  26
ATOM     26  C   UNL A   1       9.692   3.527   0.764  0.00  0.00    -0.037 C 
BRANCH  26  27
ATOM     27  C   UNL A   1       9.687   2.340  -0.203  0.00  0.00    +0.009 C 
BRANCH  27  28
ATOM     28  N   UNL A   1      10.742   2.465  -1.223  0.00  0.00    -0.343 N 
ATOM     29  H   UNL A   1      10.581   2.871  -2.105  0.00  0.00    +0.000 HD
BRANCH  28  30
ATOM     30  C   UNL A   1      12.011   1.954  -0.836  0.00  0.00    +0.041 A 
ATOM     31  C   UNL A   1      13.073   2.833  -0.527  0.00  0.00    -0.005 A 
ATOM     32  C   UNL A   1      14.269   2.270  -0.071  0.00  0.00    +0.047 A 
ATOM     33  N   UNL A   1      14.442   0.941   0.119  0.00  0.00    -0.251 NA
ATOM     34  C   UNL A   1      13.446   0.105  -0.197  0.00  0.00    +0.073 A 
ATOM     35  C   UNL A   1      13.661  -1.258  -0.032  0.00  0.00    -0.036 A 
ATOM     36  C   UNL A   1      12.693  -2.206  -0.366  0.00  0.00    -0.060 A 
ATOM     37  C   UNL A   1      11.480  -1.788  -0.889  0.00  0.00    -0.061 A 
ATOM     38  C   UNL A   1      11.242  -0.425  -1.057  0.00  0.00    -0.051 A 
ATOM     39  C   UNL A   1      12.206   0.549  -0.694  0.00  0.00    +0.021 A 
ATOM     40  C   UNL A   1      15.455   3.118   0.312  0.00  0.00    -0.010 C 
ATOM     41  C   UNL A   1      15.433   4.504  -0.317  0.00  0.00    -0.047 C 
ATOM     42  C   UNL A   1      14.074   5.145  -0.088  0.00  0.00    -0.049 C 
ATOM     43  C   UNL A   1      12.975   4.323  -0.761  0.00  0.00    -0.024 C 
ENDBRANCH  28  30
ENDBRANCH  27  28
ENDBRANCH  26  27
ENDBRANCH  25  26
ENDBRANCH  24  25
ENDBRANCH  23  24
ENDBRANCH   1  23
TORSDOF 12
