MODEL 1
REMARK VINA RESULT:    -7.046      0.000      0.000
REMARK INTER + INTRA:         -16.403
REMARK INTER:                 -11.989
REMARK INTRA:                  -4.414
REMARK UNBOUND:                -4.414
REMARK  Name = cpd24.pdb
REMARK  14 active torsions:
REMARK  status: ('A' for Active; 'I' for Inactive)
REMARK    1  A    between atoms: C_1  and  C_2
REMARK    2  A    between atoms: C_6  and  N_7
REMARK    3  A    between atoms: N_7  and  C_8
REMARK    4  A    between atoms: C_13  and  C_14
REMARK    5  A    between atoms: N_16  and  C_17
REMARK    6  A    between atoms: C_17  and  C_18
REMARK    7  A    between atoms: C_18  and  C_19
REMARK    8  A    between atoms: C_19  and  C_20
REMARK    9  A    between atoms: C_20  and  C_21
REMARK   10  A    between atoms: C_21  and  C_22
REMARK   11  A    between atoms: C_22  and  C_23
REMARK   12  A    between atoms: C_23  and  N_24
REMARK   13  A    between atoms: N_24  and  C_25
REMARK   14  A    between atoms: C_39  and  C_40
REMARK                            x       y       z     vdW  Elec       q    Type
REMARK                         _______ _______ _______ _____ _____    ______ ____
ROOT
ATOM      1  C   UNL A   1      42.030 -16.322 -38.308  0.00  0.00    -0.037 C 
ENDROOT
BRANCH   1   2
ATOM      2  C   UNL A   1      43.366 -15.622 -38.074  0.00  0.00    +0.012 C 
BRANCH   2   5
ATOM      3  C   UNL A   1      45.651 -16.442 -37.615  0.00  0.00    +0.246 C 
ATOM      4  O   UNL A   1      46.159 -15.725 -38.471  0.00  0.00    -0.270 OA
ATOM      5  N   UNL A   1      44.292 -16.489 -37.373  0.00  0.00    -0.311 N 
ATOM      6  H   UNL A   1      43.944 -17.126 -36.709  0.00  0.00    +0.000 HD
BRANCH   3  12
ATOM      7  C   UNL A   1      47.226 -18.393 -37.399  0.00  0.00    +0.044 A 
ATOM      8  C   UNL A   1      48.027 -19.203 -36.580  0.00  0.00    -0.040 A 
ATOM      9  C   UNL A   1      48.124 -18.979 -35.204  0.00  0.00    -0.060 A 
ATOM     10  C   UNL A   1      47.422 -17.931 -34.616  0.00  0.00    -0.061 A 
ATOM     11  C   UNL A   1      46.617 -17.109 -35.404  0.00  0.00    -0.048 A 
ATOM     12  C   UNL A   1      46.505 -17.343 -36.787  0.00  0.00    +0.058 A 
BRANCH   7  13
ATOM     13  N   UNL A   1      47.116 -18.637 -38.786  0.00  0.00    -0.314 N 
ATOM     14  H   UNL A   1      47.563 -17.959 -39.341  0.00  0.00    +0.000 HD
BRANCH  13  20
ATOM     15  C   UNL A   1      44.282 -20.065 -42.660  0.00  0.00    -0.039 C 
ATOM     16  C   UNL A   1      45.117 -20.358 -41.442  0.00  0.00    -0.046 A 
ATOM     17  C   UNL A   1      45.283 -21.694 -41.052  0.00  0.00    -0.058 A 
ATOM     18  C   UNL A   1      46.038 -22.017 -39.931  0.00  0.00    -0.060 A 
ATOM     19  C   UNL A   1      46.635 -21.007 -39.181  0.00  0.00    -0.040 A 
ATOM     20  C   UNL A   1      46.494 -19.657 -39.535  0.00  0.00    +0.035 A 
ATOM     21  C   UNL A   1      45.750 -19.329 -40.699  0.00  0.00    -0.026 A 
ATOM     22  C   UNL A   1      45.603 -17.883 -41.110  0.00  0.00    -0.038 C 
ENDBRANCH  13  20
ENDBRANCH   7  13
ENDBRANCH   3  12
ENDBRANCH   2   5
ENDBRANCH   1   2
BRANCH   1  23
ATOM     23  C   UNL A   1      42.144 -17.423 -39.364  0.00  0.00    -0.052 C 
BRANCH  23  24
ATOM     24  C   UNL A   1      42.138 -18.808 -38.716  0.00  0.00    -0.053 C 
BRANCH  24  25
ATOM     25  C   UNL A   1      41.941 -19.969 -39.694  0.00  0.00    -0.052 C 
BRANCH  25  26
ATOM     26  C   UNL A   1      40.851 -20.975 -39.308  0.00  0.00    -0.037 C 
BRANCH  26  27
ATOM     27  C   UNL A   1      40.122 -20.608 -38.012  0.00  0.00    +0.009 C 
BRANCH  27  28
ATOM     28  N   UNL A   1      40.340 -21.617 -36.962  0.00  0.00    -0.343 N 
ATOM     29  H   UNL A   1      40.269 -22.584 -37.132  0.00  0.00    +0.000 HD
BRANCH  28  30
ATOM     30  C   UNL A   1      40.660 -21.088 -35.682  0.00  0.00    +0.041 A 
ATOM     31  C   UNL A   1      41.981 -20.688 -35.382  0.00  0.00    -0.005 A 
ATOM     32  C   UNL A   1      42.213 -20.096 -34.136  0.00  0.00    +0.047 A 
ATOM     33  N   UNL A   1      41.236 -19.860 -33.230  0.00  0.00    -0.251 NA
ATOM     34  C   UNL A   1      39.988 -20.260 -33.502  0.00  0.00    +0.073 A 
ATOM     35  C   UNL A   1      39.009 -20.043 -32.540  0.00  0.00    -0.036 A 
ATOM     36  C   UNL A   1      37.689 -20.456 -32.721  0.00  0.00    -0.060 A 
ATOM     37  C   UNL A   1      37.333 -21.113 -33.888  0.00  0.00    -0.061 A 
ATOM     38  C   UNL A   1      38.298 -21.335 -34.868  0.00  0.00    -0.051 A 
ATOM     39  C   UNL A   1      39.636 -20.895 -34.708  0.00  0.00    +0.021 A 
ATOM     40  C   UNL A   1      43.580 -19.610 -33.726  0.00  0.00    -0.010 C 
ATOM     41  C   UNL A   1      44.712 -20.268 -34.502  0.00  0.00    -0.047 C 
ATOM     42  C   UNL A   1      44.416 -20.198 -35.991  0.00  0.00    -0.049 C 
ATOM     43  C   UNL A   1      43.135 -20.964 -36.319  0.00  0.00    -0.024 C 
ENDBRANCH  28  30
ENDBRANCH  27  28
ENDBRANCH  26  27
ENDBRANCH  25  26
ENDBRANCH  24  25
ENDBRANCH  23  24
ENDBRANCH   1  23
TORSDOF 12
ENDMDL
MODEL 2
REMARK VINA RESULT:    -6.897      1.610      5.023
REMARK INTER + INTRA:         -16.149
REMARK INTER:                 -10.691
REMARK INTRA:                  -5.458
REMARK UNBOUND:                -4.414
REMARK  Name = cpd24.pdb
REMARK  14 active torsions:
REMARK  status: ('A' for Active; 'I' for Inactive)
REMARK    1  A    between atoms: C_1  and  C_2
REMARK    2  A    between atoms: C_6  and  N_7
REMARK    3  A    between atoms: N_7  and  C_8
REMARK    4  A    between atoms: C_13  and  C_14
REMARK    5  A    between atoms: N_16  and  C_17
REMARK    6  A    between atoms: C_17  and  C_18
REMARK    7  A    between atoms: C_18  and  C_19
REMARK    8  A    between atoms: C_19  and  C_20
REMARK    9  A    between atoms: C_20  and  C_21
REMARK   10  A    between atoms: C_21  and  C_22
REMARK   11  A    between atoms: C_22  and  C_23
REMARK   12  A    between atoms: C_23  and  N_24
REMARK   13  A    between atoms: N_24  and  C_25
REMARK   14  A    between atoms: C_39  and  C_40
REMARK                            x       y       z     vdW  Elec       q    Type
REMARK                         _______ _______ _______ _____ _____    ______ ____
ROOT
ATOM      1  C   UNL A   1      42.641 -16.029 -40.143  0.00  0.00    -0.037 C 
ENDROOT
BRANCH   1   2
ATOM      2  C   UNL A   1      43.849 -16.272 -41.045  0.00  0.00    +0.012 C 
BRANCH   2   5
ATOM      3  C   UNL A   1      45.393 -18.157 -40.640  0.00  0.00    +0.246 C 
ATOM      4  O   UNL A   1      46.287 -17.430 -40.218  0.00  0.00    -0.270 OA
ATOM      5  N   UNL A   1      44.181 -17.681 -41.101  0.00  0.00    -0.311 N 
ATOM      6  H   UNL A   1      43.528 -18.315 -41.476  0.00  0.00    +0.000 HD
BRANCH   3  12
ATOM      7  C   UNL A   1      46.089 -20.325 -39.567  0.00  0.00    +0.044 A 
ATOM      8  C   UNL A   1      46.244 -21.717 -39.666  0.00  0.00    -0.040 A 
ATOM      9  C   UNL A   1      45.910 -22.407 -40.834  0.00  0.00    -0.060 A 
ATOM     10  C   UNL A   1      45.406 -21.718 -41.932  0.00  0.00    -0.061 A 
ATOM     11  C   UNL A   1      45.241 -20.335 -41.865  0.00  0.00    -0.048 A 
ATOM     12  C   UNL A   1      45.592 -19.635 -40.697  0.00  0.00    +0.058 A 
BRANCH   7  13
ATOM     13  N   UNL A   1      46.448 -19.630 -38.392  0.00  0.00    -0.314 N 
ATOM     14  H   UNL A   1      47.278 -19.107 -38.482  0.00  0.00    +0.000 HD
BRANCH  13  20
ATOM     15  C   UNL A   1      46.106 -17.391 -33.926  0.00  0.00    -0.039 C 
ATOM     16  C   UNL A   1      45.681 -18.428 -34.931  0.00  0.00    -0.046 A 
ATOM     17  C   UNL A   1      44.657 -19.318 -34.580  0.00  0.00    -0.058 A 
ATOM     18  C   UNL A   1      44.233 -20.298 -35.469  0.00  0.00    -0.060 A 
ATOM     19  C   UNL A   1      44.831 -20.403 -36.722  0.00  0.00    -0.040 A 
ATOM     20  C   UNL A   1      45.859 -19.534 -37.115  0.00  0.00    +0.035 A 
ATOM     21  C   UNL A   1      46.270 -18.512 -36.219  0.00  0.00    -0.026 A 
ATOM     22  C   UNL A   1      47.361 -17.552 -36.629  0.00  0.00    -0.038 C 
ENDBRANCH  13  20
ENDBRANCH   7  13
ENDBRANCH   3  12
ENDBRANCH   2   5
ENDBRANCH   1   2
BRANCH   1  23
ATOM     23  C   UNL A   1      43.044 -15.365 -38.824  0.00  0.00    -0.052 C 
BRANCH  23  24
ATOM     24  C   UNL A   1      43.765 -16.355 -37.909  0.00  0.00    -0.053 C 
BRANCH  24  25
ATOM     25  C   UNL A   1      43.333 -16.297 -36.441  0.00  0.00    -0.052 C 
BRANCH  25  26
ATOM     26  C   UNL A   1      41.821 -16.350 -36.199  0.00  0.00    -0.037 C 
BRANCH  26  27
ATOM     27  C   UNL A   1      41.388 -17.537 -35.335  0.00  0.00    +0.009 C 
BRANCH  27  28
ATOM     28  N   UNL A   1      40.339 -18.335 -35.992  0.00  0.00    -0.343 N 
ATOM     29  H   UNL A   1      39.517 -17.933 -36.355  0.00  0.00    +0.000 HD
BRANCH  28  30
ATOM     30  C   UNL A   1      40.604 -19.730 -36.060  0.00  0.00    +0.041 A 
ATOM     31  C   UNL A   1      40.251 -20.579 -34.987  0.00  0.00    -0.005 A 
ATOM     32  C   UNL A   1      40.460 -21.952 -35.151  0.00  0.00    +0.047 A 
ATOM     33  N   UNL A   1      40.945 -22.501 -36.289  0.00  0.00    -0.251 NA
ATOM     34  C   UNL A   1      41.303 -21.696 -37.297  0.00  0.00    +0.073 A 
ATOM     35  C   UNL A   1      41.836 -22.280 -38.440  0.00  0.00    -0.036 A 
ATOM     36  C   UNL A   1      42.267 -21.519 -39.527  0.00  0.00    -0.060 A 
ATOM     37  C   UNL A   1      42.176 -20.137 -39.473  0.00  0.00    -0.061 A 
ATOM     38  C   UNL A   1      41.638 -19.533 -38.338  0.00  0.00    -0.051 A 
ATOM     39  C   UNL A   1      41.170 -20.296 -37.239  0.00  0.00    +0.021 A 
ATOM     40  C   UNL A   1      40.095 -22.948 -34.080  0.00  0.00    -0.010 C 
ATOM     41  C   UNL A   1      39.999 -22.332 -32.692  0.00  0.00    -0.047 C 
ATOM     42  C   UNL A   1      39.129 -21.087 -32.746  0.00  0.00    -0.049 C 
ATOM     43  C   UNL A   1      39.753 -20.038 -33.667  0.00  0.00    -0.024 C 
ENDBRANCH  28  30
ENDBRANCH  27  28
ENDBRANCH  26  27
ENDBRANCH  25  26
ENDBRANCH  24  25
ENDBRANCH  23  24
ENDBRANCH   1  23
TORSDOF 12
ENDMDL
MODEL 3
REMARK VINA RESULT:    -6.756      2.029      7.695
REMARK INTER + INTRA:         -15.910
REMARK INTER:                 -11.085
REMARK INTRA:                  -4.825
REMARK UNBOUND:                -4.414
REMARK  Name = cpd24.pdb
REMARK  14 active torsions:
REMARK  status: ('A' for Active; 'I' for Inactive)
REMARK    1  A    between atoms: C_1  and  C_2
REMARK    2  A    between atoms: C_6  and  N_7
REMARK    3  A    between atoms: N_7  and  C_8
REMARK    4  A    between atoms: C_13  and  C_14
REMARK    5  A    between atoms: N_16  and  C_17
REMARK    6  A    between atoms: C_17  and  C_18
REMARK    7  A    between atoms: C_18  and  C_19
REMARK    8  A    between atoms: C_19  and  C_20
REMARK    9  A    between atoms: C_20  and  C_21
REMARK   10  A    between atoms: C_21  and  C_22
REMARK   11  A    between atoms: C_22  and  C_23
REMARK   12  A    between atoms: C_23  and  N_24
REMARK   13  A    between atoms: N_24  and  C_25
REMARK   14  A    between atoms: C_39  and  C_40
REMARK                            x       y       z     vdW  Elec       q    Type
REMARK                         _______ _______ _______ _____ _____    ______ ____
ROOT
ATOM      1  C   UNL A   1      42.302 -21.183 -39.516  0.00  0.00    -0.037 C 
ENDROOT
BRANCH   1   2
ATOM      2  C   UNL A   1      40.925 -21.799 -39.284  0.00  0.00    +0.012 C 
BRANCH   2   5
ATOM      3  C   UNL A   1      39.730 -21.451 -37.149  0.00  0.00    +0.246 C 
ATOM      4  O   UNL A   1      39.017 -20.565 -37.609  0.00  0.00    -0.270 OA
ATOM      5  N   UNL A   1      40.715 -22.088 -37.879  0.00  0.00    -0.311 N 
ATOM      6  H   UNL A   1      41.288 -22.753 -37.434  0.00  0.00    +0.000 HD
BRANCH   3  12
ATOM      7  C   UNL A   1      40.092 -21.072 -34.688  0.00  0.00    +0.044 A 
ATOM      8  C   UNL A   1      39.906 -21.510 -33.367  0.00  0.00    -0.040 A 
ATOM      9  C   UNL A   1      39.225 -22.695 -33.080  0.00  0.00    -0.060 A 
ATOM     10  C   UNL A   1      38.707 -23.470 -34.112  0.00  0.00    -0.061 A 
ATOM     11  C   UNL A   1      38.875 -23.063 -35.435  0.00  0.00    -0.048 A 
ATOM     12  C   UNL A   1      39.575 -21.878 -35.728  0.00  0.00    +0.058 A 
BRANCH   7  13
ATOM     13  N   UNL A   1      40.799 -19.884 -34.973  0.00  0.00    -0.314 N 
ATOM     14  H   UNL A   1      40.244 -19.187 -35.392  0.00  0.00    +0.000 HD
BRANCH  13  20
ATOM     15  C   UNL A   1      44.173 -16.381 -33.782  0.00  0.00    -0.039 C 
ATOM     16  C   UNL A   1      43.793 -17.782 -34.182  0.00  0.00    -0.046 A 
ATOM     17  C   UNL A   1      44.814 -18.727 -34.355  0.00  0.00    -0.058 A 
ATOM     18  C   UNL A   1      44.516 -20.032 -34.730  0.00  0.00    -0.060 A 
ATOM     19  C   UNL A   1      43.192 -20.408 -34.941  0.00  0.00    -0.040 A 
ATOM     20  C   UNL A   1      42.140 -19.495 -34.779  0.00  0.00    +0.035 A 
ATOM     21  C   UNL A   1      42.441 -18.171 -34.364  0.00  0.00    -0.026 A 
ATOM     22  C   UNL A   1      41.322 -17.176 -34.163  0.00  0.00    -0.038 C 
ENDBRANCH  13  20
ENDBRANCH   7  13
ENDBRANCH   3  12
ENDBRANCH   2   5
ENDBRANCH   1   2
BRANCH   1  23
ATOM     23  C   UNL A   1      42.586 -20.045 -38.534  0.00  0.00    -0.052 C 
BRANCH  23  24
ATOM     24  C   UNL A   1      41.823 -18.780 -38.924  0.00  0.00    -0.053 C 
BRANCH  24  25
ATOM     25  C   UNL A   1      41.945 -17.627 -37.923  0.00  0.00    -0.052 C 
BRANCH  25  26
ATOM     26  C   UNL A   1      42.847 -16.469 -38.363  0.00  0.00    -0.037 C 
BRANCH  26  27
ATOM     27  C   UNL A   1      43.173 -16.491 -39.859  0.00  0.00    +0.009 C 
BRANCH  27  28
ATOM     28  N   UNL A   1      44.625 -16.505 -40.100  0.00  0.00    -0.343 N 
ATOM     29  H   UNL A   1      45.117 -15.715 -40.421  0.00  0.00    +0.000 HD
BRANCH  28  30
ATOM     30  C   UNL A   1      45.264 -17.746 -39.832  0.00  0.00    +0.041 A 
ATOM     31  C   UNL A   1      45.158 -18.818 -40.747  0.00  0.00    -0.005 A 
ATOM     32  C   UNL A   1      45.879 -19.983 -40.467  0.00  0.00    +0.047 A 
ATOM     33  N   UNL A   1      46.691 -20.117 -39.392  0.00  0.00    -0.251 NA
ATOM     34  C   UNL A   1      46.772 -19.113 -38.511  0.00  0.00    +0.073 A 
ATOM     35  C   UNL A   1      47.580 -19.289 -37.394  0.00  0.00    -0.036 A 
ATOM     36  C   UNL A   1      47.701 -18.311 -36.406  0.00  0.00    -0.060 A 
ATOM     37  C   UNL A   1      46.990 -17.127 -36.527  0.00  0.00    -0.061 A 
ATOM     38  C   UNL A   1      46.179 -16.928 -37.643  0.00  0.00    -0.051 A 
ATOM     39  C   UNL A   1      46.071 -17.902 -38.667  0.00  0.00    +0.021 A 
ATOM     40  C   UNL A   1      45.859 -21.175 -41.390  0.00  0.00    -0.010 C 
ATOM     41  C   UNL A   1      44.641 -21.208 -42.304  0.00  0.00    -0.047 C 
ATOM     42  C   UNL A   1      44.477 -19.858 -42.982  0.00  0.00    -0.049 C 
ATOM     43  C   UNL A   1      44.234 -18.764 -41.942  0.00  0.00    -0.024 C 
ENDBRANCH  28  30
ENDBRANCH  27  28
ENDBRANCH  26  27
ENDBRANCH  25  26
ENDBRANCH  24  25
ENDBRANCH  23  24
ENDBRANCH   1  23
TORSDOF 12
ENDMDL
MODEL 4
REMARK VINA RESULT:    -6.713      1.690      4.962
REMARK INTER + INTRA:         -15.837
REMARK INTER:                 -11.695
REMARK INTRA:                  -4.142
REMARK UNBOUND:                -4.414
REMARK  Name = cpd24.pdb
REMARK  14 active torsions:
REMARK  status: ('A' for Active; 'I' for Inactive)
REMARK    1  A    between atoms: C_1  and  C_2
REMARK    2  A    between atoms: C_6  and  N_7
REMARK    3  A    between atoms: N_7  and  C_8
REMARK    4  A    between atoms: C_13  and  C_14
REMARK    5  A    between atoms: N_16  and  C_17
REMARK    6  A    between atoms: C_17  and  C_18
REMARK    7  A    between atoms: C_18  and  C_19
REMARK    8  A    between atoms: C_19  and  C_20
REMARK    9  A    between atoms: C_20  and  C_21
REMARK   10  A    between atoms: C_21  and  C_22
REMARK   11  A    between atoms: C_22  and  C_23
REMARK   12  A    between atoms: C_23  and  N_24
REMARK   13  A    between atoms: N_24  and  C_25
REMARK   14  A    between atoms: C_39  and  C_40
REMARK                            x       y       z     vdW  Elec       q    Type
REMARK                         _______ _______ _______ _____ _____    ______ ____
ROOT
ATOM      1  C   UNL A   1      46.055 -17.991 -33.759  0.00  0.00    -0.037 C 
ENDROOT
BRANCH   1   2
ATOM      2  C   UNL A   1      46.551 -18.132 -35.196  0.00  0.00    +0.012 C 
BRANCH   2   5
ATOM      3  C   UNL A   1      44.682 -18.675 -36.718  0.00  0.00    +0.246 C 
ATOM      4  O   UNL A   1      44.783 -19.883 -36.528  0.00  0.00    -0.270 OA
ATOM      5  N   UNL A   1      45.523 -17.744 -36.141  0.00  0.00    -0.311 N 
ATOM      6  H   UNL A   1      45.422 -16.794 -36.378  0.00  0.00    +0.000 HD
BRANCH   3  12
ATOM      7  C   UNL A   1      43.746 -18.318 -39.027  0.00  0.00    +0.044 A 
ATOM      8  C   UNL A   1      42.719 -17.814 -39.840  0.00  0.00    -0.040 A 
ATOM      9  C   UNL A   1      41.606 -17.168 -39.294  0.00  0.00    -0.060 A 
ATOM     10  C   UNL A   1      41.494 -17.017 -37.915  0.00  0.00    -0.061 A 
ATOM     11  C   UNL A   1      42.497 -17.507 -37.081  0.00  0.00    -0.048 A 
ATOM     12  C   UNL A   1      43.627 -18.143 -37.629  0.00  0.00    +0.058 A 
BRANCH   7  13
ATOM     13  N   UNL A   1      44.878 -18.951 -39.585  0.00  0.00    -0.314 N 
ATOM     14  H   UNL A   1      45.731 -18.621 -39.222  0.00  0.00    +0.000 HD
BRANCH  13  20
ATOM     15  C   UNL A   1      46.936 -23.266 -41.074  0.00  0.00    -0.039 C 
ATOM     16  C   UNL A   1      46.030 -22.082 -41.281  0.00  0.00    -0.046 A 
ATOM     17  C   UNL A   1      45.311 -21.995 -42.481  0.00  0.00    -0.058 A 
ATOM     18  C   UNL A   1      44.466 -20.918 -42.725  0.00  0.00    -0.060 A 
ATOM     19  C   UNL A   1      44.331 -19.913 -41.771  0.00  0.00    -0.040 A 
ATOM     20  C   UNL A   1      45.031 -19.960 -40.557  0.00  0.00    +0.035 A 
ATOM     21  C   UNL A   1      45.870 -21.076 -40.295  0.00  0.00    -0.026 A 
ATOM     22  C   UNL A   1      46.618 -21.159 -38.985  0.00  0.00    -0.038 C 
ENDBRANCH  13  20
ENDBRANCH   7  13
ENDBRANCH   3  12
ENDBRANCH   2   5
ENDBRANCH   1   2
BRANCH   1  23
ATOM     23  C   UNL A   1      45.082 -16.821 -33.608  0.00  0.00    -0.052 C 
BRANCH  23  24
ATOM     24  C   UNL A   1      43.695 -17.311 -33.193  0.00  0.00    -0.053 C 
BRANCH  24  25
ATOM     25  C   UNL A   1      43.579 -18.829 -33.023  0.00  0.00    -0.052 C 
BRANCH  25  26
ATOM     26  C   UNL A   1      42.545 -19.513 -33.924  0.00  0.00    -0.037 C 
BRANCH  26  27
ATOM     27  C   UNL A   1      41.997 -20.815 -33.334  0.00  0.00    +0.009 C 
BRANCH  27  28
ATOM     28  N   UNL A   1      41.561 -21.748 -34.387  0.00  0.00    -0.343 N 
ATOM     29  H   UNL A   1      41.930 -22.656 -34.477  0.00  0.00    +0.000 HD
BRANCH  28  30
ATOM     30  C   UNL A   1      40.566 -21.237 -35.265  0.00  0.00    +0.041 A 
ATOM     31  C   UNL A   1      39.353 -20.726 -34.751  0.00  0.00    -0.005 A 
ATOM     32  C   UNL A   1      38.452 -20.160 -35.659  0.00  0.00    +0.047 A 
ATOM     33  N   UNL A   1      38.701 -20.049 -36.985  0.00  0.00    -0.251 NA
ATOM     34  C   UNL A   1      39.839 -20.555 -37.476  0.00  0.00    +0.073 A 
ATOM     35  C   UNL A   1      40.054 -20.466 -38.846  0.00  0.00    -0.036 A 
ATOM     36  C   UNL A   1      41.194 -20.995 -39.452  0.00  0.00    -0.060 A 
ATOM     37  C   UNL A   1      42.143 -21.640 -38.676  0.00  0.00    -0.061 A 
ATOM     38  C   UNL A   1      41.949 -21.735 -37.299  0.00  0.00    -0.051 A 
ATOM     39  C   UNL A   1      40.809 -21.177 -36.668  0.00  0.00    +0.021 A 
ATOM     40  C   UNL A   1      37.142 -19.562 -35.215  0.00  0.00    -0.010 C 
ATOM     41  C   UNL A   1      36.669 -20.082 -33.865  0.00  0.00    -0.047 C 
ATOM     42  C   UNL A   1      37.802 -19.987 -32.857  0.00  0.00    -0.049 C 
ATOM     43  C   UNL A   1      38.980 -20.858 -33.293  0.00  0.00    -0.024 C 
ENDBRANCH  28  30
ENDBRANCH  27  28
ENDBRANCH  26  27
ENDBRANCH  25  26
ENDBRANCH  24  25
ENDBRANCH  23  24
ENDBRANCH   1  23
TORSDOF 12
ENDMDL
MODEL 5
REMARK VINA RESULT:    -6.706      2.075      5.074
REMARK INTER + INTRA:         -15.824
REMARK INTER:                 -12.352
REMARK INTRA:                  -3.472
REMARK UNBOUND:                -4.414
REMARK  Name = cpd24.pdb
REMARK  14 active torsions:
REMARK  status: ('A' for Active; 'I' for Inactive)
REMARK    1  A    between atoms: C_1  and  C_2
REMARK    2  A    between atoms: C_6  and  N_7
REMARK    3  A    between atoms: N_7  and  C_8
REMARK    4  A    between atoms: C_13  and  C_14
REMARK    5  A    between atoms: N_16  and  C_17
REMARK    6  A    between atoms: C_17  and  C_18
REMARK    7  A    between atoms: C_18  and  C_19
REMARK    8  A    between atoms: C_19  and  C_20
REMARK    9  A    between atoms: C_20  and  C_21
REMARK   10  A    between atoms: C_21  and  C_22
REMARK   11  A    between atoms: C_22  and  C_23
REMARK   12  A    between atoms: C_23  and  N_24
REMARK   13  A    between atoms: N_24  and  C_25
REMARK   14  A    between atoms: C_39  and  C_40
REMARK                            x       y       z     vdW  Elec       q    Type
REMARK                         _______ _______ _______ _____ _____    ______ ____
ROOT
ATOM      1  C   UNL A   1      42.688 -19.808 -39.505  0.00  0.00    -0.037 C 
ENDROOT
BRANCH   1   2
ATOM      2  C   UNL A   1      42.683 -20.837 -40.634  0.00  0.00    +0.012 C 
BRANCH   2   5
ATOM      3  C   UNL A   1      44.923 -20.992 -41.663  0.00  0.00    +0.246 C 
ATOM      4  O   UNL A   1      44.712 -20.064 -42.438  0.00  0.00    -0.270 OA
ATOM      5  N   UNL A   1      43.981 -21.465 -40.770  0.00  0.00    -0.311 N 
ATOM      6  H   UNL A   1      44.198 -22.248 -40.214  0.00  0.00    +0.000 HD
BRANCH   3  12
ATOM      7  C   UNL A   1      47.357 -21.096 -41.028  0.00  0.00    +0.044 A 
ATOM      8  C   UNL A   1      48.572 -21.798 -41.047  0.00  0.00    -0.040 A 
ATOM      9  C   UNL A   1      48.685 -23.045 -41.666  0.00  0.00    -0.060 A 
ATOM     10  C   UNL A   1      47.578 -23.623 -42.278  0.00  0.00    -0.061 A 
ATOM     11  C   UNL A   1      46.356 -22.951 -42.276  0.00  0.00    -0.048 A 
ATOM     12  C   UNL A   1      46.243 -21.688 -41.668  0.00  0.00    +0.058 A 
BRANCH   7  13
ATOM     13  N   UNL A   1      47.254 -19.827 -40.418  0.00  0.00    -0.314 N 
ATOM     14  H   UNL A   1      47.672 -19.105 -40.941  0.00  0.00    +0.000 HD
BRANCH  13  20
ATOM     15  C   UNL A   1      44.638 -16.409 -37.859  0.00  0.00    -0.039 C 
ATOM     16  C   UNL A   1      45.379 -17.715 -37.962  0.00  0.00    -0.046 A 
ATOM     17  C   UNL A   1      45.479 -18.517 -36.816  0.00  0.00    -0.058 A 
ATOM     18  C   UNL A   1      46.158 -19.730 -36.857  0.00  0.00    -0.060 A 
ATOM     19  C   UNL A   1      46.748 -20.155 -38.044  0.00  0.00    -0.040 A 
ATOM     20  C   UNL A   1      46.672 -19.384 -39.213  0.00  0.00    +0.035 A 
ATOM     21  C   UNL A   1      45.951 -18.161 -39.180  0.00  0.00    -0.026 A 
ATOM     22  C   UNL A   1      45.839 -17.325 -40.433  0.00  0.00    -0.038 C 
ENDBRANCH  13  20
ENDBRANCH   7  13
ENDBRANCH   3  12
ENDBRANCH   2   5
ENDBRANCH   1   2
BRANCH   1  23
ATOM     23  C   UNL A   1      42.683 -20.477 -38.129  0.00  0.00    -0.052 C 
BRANCH  23  24
ATOM     24  C   UNL A   1      41.323 -20.319 -37.449  0.00  0.00    -0.053 C 
BRANCH  24  25
ATOM     25  C   UNL A   1      40.402 -21.536 -37.575  0.00  0.00    -0.052 C 
BRANCH  25  26
ATOM     26  C   UNL A   1      39.667 -21.939 -36.291  0.00  0.00    -0.037 C 
BRANCH  26  27
ATOM     27  C   UNL A   1      40.516 -22.804 -35.356  0.00  0.00    +0.009 C 
BRANCH  27  28
ATOM     28  N   UNL A   1      40.255 -22.493 -33.940  0.00  0.00    -0.343 N 
ATOM     29  H   UNL A   1      40.131 -23.192 -33.258  0.00  0.00    +0.000 HD
BRANCH  28  30
ATOM     30  C   UNL A   1      40.195 -21.106 -33.635  0.00  0.00    +0.041 A 
ATOM     31  C   UNL A   1      38.965 -20.501 -33.291  0.00  0.00    -0.005 A 
ATOM     32  C   UNL A   1      38.987 -19.153 -32.918  0.00  0.00    +0.047 A 
ATOM     33  N   UNL A   1      40.123 -18.421 -32.839  0.00  0.00    -0.251 NA
ATOM     34  C   UNL A   1      41.285 -18.985 -33.189  0.00  0.00    +0.073 A 
ATOM     35  C   UNL A   1      42.432 -18.201 -33.138  0.00  0.00    -0.036 A 
ATOM     36  C   UNL A   1      43.682 -18.694 -33.515  0.00  0.00    -0.060 A 
ATOM     37  C   UNL A   1      43.794 -19.999 -33.966  0.00  0.00    -0.061 A 
ATOM     38  C   UNL A   1      42.657 -20.803 -34.018  0.00  0.00    -0.051 A 
ATOM     39  C   UNL A   1      41.387 -20.324 -33.610  0.00  0.00    +0.021 A 
ATOM     40  C   UNL A   1      37.737 -18.419 -32.507  0.00  0.00    -0.010 C 
ATOM     41  C   UNL A   1      36.460 -19.066 -33.024  0.00  0.00    -0.047 C 
ATOM     42  C   UNL A   1      36.477 -20.552 -32.702  0.00  0.00    -0.049 C 
ATOM     43  C   UNL A   1      37.650 -21.237 -33.403  0.00  0.00    -0.024 C 
ENDBRANCH  28  30
ENDBRANCH  27  28
ENDBRANCH  26  27
ENDBRANCH  25  26
ENDBRANCH  24  25
ENDBRANCH  23  24
ENDBRANCH   1  23
TORSDOF 12
ENDMDL
MODEL 6
REMARK VINA RESULT:    -6.699      2.490      7.178
REMARK INTER + INTRA:         -15.813
REMARK INTER:                 -11.293
REMARK INTRA:                  -4.520
REMARK UNBOUND:                -4.414
REMARK  Name = cpd24.pdb
REMARK  14 active torsions:
REMARK  status: ('A' for Active; 'I' for Inactive)
REMARK    1  A    between atoms: C_1  and  C_2
REMARK    2  A    between atoms: C_6  and  N_7
REMARK    3  A    between atoms: N_7  and  C_8
REMARK    4  A    between atoms: C_13  and  C_14
REMARK    5  A    between atoms: N_16  and  C_17
REMARK    6  A    between atoms: C_17  and  C_18
REMARK    7  A    between atoms: C_18  and  C_19
REMARK    8  A    between atoms: C_19  and  C_20
REMARK    9  A    between atoms: C_20  and  C_21
REMARK   10  A    between atoms: C_21  and  C_22
REMARK   11  A    between atoms: C_22  and  C_23
REMARK   12  A    between atoms: C_23  and  N_24
REMARK   13  A    between atoms: N_24  and  C_25
REMARK   14  A    between atoms: C_39  and  C_40
REMARK                            x       y       z     vdW  Elec       q    Type
REMARK                         _______ _______ _______ _____ _____    ______ ____
ROOT
ATOM      1  C   UNL A   1      38.155 -18.942 -36.813  0.00  0.00    -0.037 C 
ENDROOT
BRANCH   1   2
ATOM      2  C   UNL A   1      38.758 -17.545 -36.940  0.00  0.00    +0.012 C 
BRANCH   2   5
ATOM      3  C   UNL A   1      40.223 -16.769 -35.108  0.00  0.00    +0.246 C 
ATOM      4  O   UNL A   1      39.334 -16.108 -34.580  0.00  0.00    -0.270 OA
ATOM      5  N   UNL A   1      40.048 -17.475 -36.283  0.00  0.00    -0.311 N 
ATOM      6  H   UNL A   1      40.817 -17.940 -36.683  0.00  0.00    +0.000 HD
BRANCH   3  12
ATOM      7  C   UNL A   1      41.806 -17.588 -33.331  0.00  0.00    +0.044 A 
ATOM      8  C   UNL A   1      43.106 -17.618 -32.804  0.00  0.00    -0.040 A 
ATOM      9  C   UNL A   1      44.156 -16.924 -33.413  0.00  0.00    -0.060 A 
ATOM     10  C   UNL A   1      43.927 -16.187 -34.570  0.00  0.00    -0.061 A 
ATOM     11  C   UNL A   1      42.646 -16.138 -35.118  0.00  0.00    -0.048 A 
ATOM     12  C   UNL A   1      41.583 -16.822 -34.498  0.00  0.00    +0.058 A 
BRANCH   7  13
ATOM     13  N   UNL A   1      40.745 -18.274 -32.700  0.00  0.00    -0.314 N 
ATOM     14  H   UNL A   1      40.196 -17.699 -32.118  0.00  0.00    +0.000 HD
BRANCH  13  20
ATOM     15  C   UNL A   1      37.038 -21.638 -32.831  0.00  0.00    -0.039 C 
ATOM     16  C   UNL A   1      38.496 -21.264 -32.814  0.00  0.00    -0.046 A 
ATOM     17  C   UNL A   1      39.449 -22.291 -32.844  0.00  0.00    -0.058 A 
ATOM     18  C   UNL A   1      40.808 -21.999 -32.822  0.00  0.00    -0.060 A 
ATOM     19  C   UNL A   1      41.231 -20.674 -32.767  0.00  0.00    -0.040 A 
ATOM     20  C   UNL A   1      40.313 -19.615 -32.736  0.00  0.00    +0.035 A 
ATOM     21  C   UNL A   1      38.925 -19.912 -32.790  0.00  0.00    -0.026 A 
ATOM     22  C   UNL A   1      37.918 -18.786 -32.778  0.00  0.00    -0.038 C 
ENDBRANCH  13  20
ENDBRANCH   7  13
ENDBRANCH   3  12
ENDBRANCH   2   5
ENDBRANCH   1   2
BRANCH   1  23
ATOM     23  C   UNL A   1      39.195 -19.970 -36.362  0.00  0.00    -0.052 C 
BRANCH  23  24
ATOM     24  C   UNL A   1      38.953 -21.324 -37.028  0.00  0.00    -0.053 C 
BRANCH  24  25
ATOM     25  C   UNL A   1      39.839 -22.458 -36.507  0.00  0.00    -0.052 C 
BRANCH  25  26
ATOM     26  C   UNL A   1      41.317 -22.374 -36.908  0.00  0.00    -0.037 C 
BRANCH  26  27
ATOM     27  C   UNL A   1      41.523 -22.029 -38.385  0.00  0.00    +0.009 C 
BRANCH  27  28
ATOM     28  N   UNL A   1      42.161 -20.712 -38.552  0.00  0.00    -0.343 N 
ATOM     29  H   UNL A   1      41.644 -19.877 -38.621  0.00  0.00    +0.000 HD
BRANCH  28  30
ATOM     30  C   UNL A   1      43.582 -20.738 -38.606  0.00  0.00    +0.041 A 
ATOM     31  C   UNL A   1      44.348 -20.473 -37.449  0.00  0.00    -0.005 A 
ATOM     32  C   UNL A   1      45.737 -20.598 -37.548  0.00  0.00    +0.047 A 
ATOM     33  N   UNL A   1      46.371 -20.991 -38.678  0.00  0.00    -0.251 NA
ATOM     34  C   UNL A   1      45.649 -21.219 -39.782  0.00  0.00    +0.073 A 
ATOM     35  C   UNL A   1      46.325 -21.582 -40.940  0.00  0.00    -0.036 A 
ATOM     36  C   UNL A   1      45.660 -21.807 -42.146  0.00  0.00    -0.060 A 
ATOM     37  C   UNL A   1      44.284 -21.657 -42.205  0.00  0.00    -0.061 A 
ATOM     38  C   UNL A   1      43.586 -21.299 -41.053  0.00  0.00    -0.051 A 
ATOM     39  C   UNL A   1      44.247 -21.096 -39.815  0.00  0.00    +0.021 A 
ATOM     40  C   UNL A   1      46.645 -20.364 -36.368  0.00  0.00    -0.010 C 
ATOM     41  C   UNL A   1      46.013 -19.505 -35.282  0.00  0.00    -0.047 C 
ATOM     42  C   UNL A   1      44.634 -20.046 -34.944  0.00  0.00    -0.049 C 
ATOM     43  C   UNL A   1      43.719 -19.979 -36.167  0.00  0.00    -0.024 C 
ENDBRANCH  28  30
ENDBRANCH  27  28
ENDBRANCH  26  27
ENDBRANCH  25  26
ENDBRANCH  24  25
ENDBRANCH  23  24
ENDBRANCH   1  23
TORSDOF 12
ENDMDL
MODEL 7
REMARK VINA RESULT:    -6.695      2.236      4.600
REMARK INTER + INTRA:         -15.806
REMARK INTER:                 -11.430
REMARK INTRA:                  -4.376
REMARK UNBOUND:                -4.414
REMARK  Name = cpd24.pdb
REMARK  14 active torsions:
REMARK  status: ('A' for Active; 'I' for Inactive)
REMARK    1  A    between atoms: C_1  and  C_2
REMARK    2  A    between atoms: C_6  and  N_7
REMARK    3  A    between atoms: N_7  and  C_8
REMARK    4  A    between atoms: C_13  and  C_14
REMARK    5  A    between atoms: N_16  and  C_17
REMARK    6  A    between atoms: C_17  and  C_18
REMARK    7  A    between atoms: C_18  and  C_19
REMARK    8  A    between atoms: C_19  and  C_20
REMARK    9  A    between atoms: C_20  and  C_21
REMARK   10  A    between atoms: C_21  and  C_22
REMARK   11  A    between atoms: C_22  and  C_23
REMARK   12  A    between atoms: C_23  and  N_24
REMARK   13  A    between atoms: N_24  and  C_25
REMARK   14  A    between atoms: C_39  and  C_40
REMARK                            x       y       z     vdW  Elec       q    Type
REMARK                         _______ _______ _______ _____ _____    ______ ____
ROOT
ATOM      1  C   UNL A   1      40.097 -19.131 -38.020  0.00  0.00    -0.037 C 
ENDROOT
BRANCH   1   2
ATOM      2  C   UNL A   1      40.215 -20.042 -39.239  0.00  0.00    +0.012 C 
BRANCH   2   5
ATOM      3  C   UNL A   1      42.404 -21.168 -39.447  0.00  0.00    +0.246 C 
ATOM      4  O   UNL A   1      42.069 -22.111 -38.736  0.00  0.00    -0.270 OA
ATOM      5  N   UNL A   1      41.581 -20.093 -39.720  0.00  0.00    -0.311 N 
ATOM      6  H   UNL A   1      41.930 -19.344 -40.254  0.00  0.00    +0.000 HD
BRANCH   3  12
ATOM      7  C   UNL A   1      44.894 -20.867 -39.232  0.00  0.00    +0.044 A 
ATOM      8  C   UNL A   1      46.157 -20.857 -39.842  0.00  0.00    -0.040 A 
ATOM      9  C   UNL A   1      46.310 -21.108 -41.208  0.00  0.00    -0.060 A 
ATOM     10  C   UNL A   1      45.197 -21.381 -41.997  0.00  0.00    -0.061 A 
ATOM     11  C   UNL A   1      43.928 -21.398 -41.420  0.00  0.00    -0.048 A 
ATOM     12  C   UNL A   1      43.769 -21.130 -40.048  0.00  0.00    +0.058 A 
BRANCH   7  13
ATOM     13  N   UNL A   1      44.743 -20.592 -37.855  0.00  0.00    -0.314 N 
ATOM     14  H   UNL A   1      44.010 -21.096 -37.432  0.00  0.00    +0.000 HD
BRANCH  13  20
ATOM     15  C   UNL A   1      45.236 -16.145 -35.607  0.00  0.00    -0.039 C 
ATOM     16  C   UNL A   1      45.664 -17.567 -35.853  0.00  0.00    -0.046 A 
ATOM     17  C   UNL A   1      46.779 -18.057 -35.160  0.00  0.00    -0.058 A 
ATOM     18  C   UNL A   1      47.219 -19.361 -35.356  0.00  0.00    -0.060 A 
ATOM     19  C   UNL A   1      46.550 -20.192 -36.251  0.00  0.00    -0.040 A 
ATOM     20  C   UNL A   1      45.430 -19.743 -36.965  0.00  0.00    +0.035 A 
ATOM     21  C   UNL A   1      44.961 -18.421 -36.741  0.00  0.00    -0.026 A 
ATOM     22  C   UNL A   1      43.744 -17.923 -37.483  0.00  0.00    -0.038 C 
ENDBRANCH  13  20
ENDBRANCH   7  13
ENDBRANCH   3  12
ENDBRANCH   2   5
ENDBRANCH   1   2
BRANCH   1  23
ATOM     23  C   UNL A   1      40.094 -19.929 -36.714  0.00  0.00    -0.052 C 
BRANCH  23  24
ATOM     24  C   UNL A   1      38.889 -20.866 -36.647  0.00  0.00    -0.053 C 
BRANCH  24  25
ATOM     25  C   UNL A   1      39.242 -22.355 -36.577  0.00  0.00    -0.052 C 
BRANCH  25  26
ATOM     26  C   UNL A   1      40.230 -22.744 -35.472  0.00  0.00    -0.037 C 
BRANCH  26  27
ATOM     27  C   UNL A   1      39.546 -23.146 -34.163  0.00  0.00    +0.009 C 
BRANCH  27  28
ATOM     28  N   UNL A   1      40.112 -22.425 -33.010  0.00  0.00    -0.343 N 
ATOM     29  H   UNL A   1      40.585 -22.884 -32.278  0.00  0.00    +0.000 HD
BRANCH  28  30
ATOM     30  C   UNL A   1      39.924 -21.016 -33.034  0.00  0.00    +0.041 A 
ATOM     31  C   UNL A   1      41.026 -20.149 -33.206  0.00  0.00    -0.005 A 
ATOM     32  C   UNL A   1      40.764 -18.780 -33.307  0.00  0.00    +0.047 A 
ATOM     33  N   UNL A   1      39.516 -18.256 -33.283  0.00  0.00    -0.251 NA
ATOM     34  C   UNL A   1      38.473 -19.073 -33.096  0.00  0.00    +0.073 A 
ATOM     35  C   UNL A   1      37.204 -18.508 -33.035  0.00  0.00    -0.036 A 
ATOM     36  C   UNL A   1      36.062 -19.277 -32.810  0.00  0.00    -0.060 A 
ATOM     37  C   UNL A   1      36.184 -20.645 -32.629  0.00  0.00    -0.061 A 
ATOM     38  C   UNL A   1      37.447 -21.232 -32.693  0.00  0.00    -0.051 A 
ATOM     39  C   UNL A   1      38.611 -20.466 -32.950  0.00  0.00    +0.021 A 
ATOM     40  C   UNL A   1      41.864 -17.770 -33.518  0.00  0.00    -0.010 C 
ATOM     41  C   UNL A   1      43.235 -18.275 -33.090  0.00  0.00    -0.047 C 
ATOM     42  C   UNL A   1      43.485 -19.646 -33.697  0.00  0.00    -0.049 C 
ATOM     43  C   UNL A   1      42.452 -20.652 -33.190  0.00  0.00    -0.024 C 
ENDBRANCH  28  30
ENDBRANCH  27  28
ENDBRANCH  26  27
ENDBRANCH  25  26
ENDBRANCH  24  25
ENDBRANCH  23  24
ENDBRANCH   1  23
TORSDOF 12
ENDMDL
MODEL 8
REMARK VINA RESULT:    -6.680      2.595      5.277
REMARK INTER + INTRA:         -15.780
REMARK INTER:                 -10.125
REMARK INTRA:                  -5.655
REMARK UNBOUND:                -4.414
REMARK  Name = cpd24.pdb
REMARK  14 active torsions:
REMARK  status: ('A' for Active; 'I' for Inactive)
REMARK    1  A    between atoms: C_1  and  C_2
REMARK    2  A    between atoms: C_6  and  N_7
REMARK    3  A    between atoms: N_7  and  C_8
REMARK    4  A    between atoms: C_13  and  C_14
REMARK    5  A    between atoms: N_16  and  C_17
REMARK    6  A    between atoms: C_17  and  C_18
REMARK    7  A    between atoms: C_18  and  C_19
REMARK    8  A    between atoms: C_19  and  C_20
REMARK    9  A    between atoms: C_20  and  C_21
REMARK   10  A    between atoms: C_21  and  C_22
REMARK   11  A    between atoms: C_22  and  C_23
REMARK   12  A    between atoms: C_23  and  N_24
REMARK   13  A    between atoms: N_24  and  C_25
REMARK   14  A    between atoms: C_39  and  C_40
REMARK                            x       y       z     vdW  Elec       q    Type
REMARK                         _______ _______ _______ _____ _____    ______ ____
ROOT
ATOM      1  C   UNL A   1      39.500 -17.237 -38.029  0.00  0.00    -0.037 C 
ENDROOT
BRANCH   1   2
ATOM      2  C   UNL A   1      39.657 -16.435 -36.739  0.00  0.00    +0.012 C 
BRANCH   2   5
ATOM      3  C   UNL A   1      41.835 -15.896 -35.705  0.00  0.00    +0.246 C 
ATOM      4  O   UNL A   1      41.785 -14.717 -36.040  0.00  0.00    -0.270 OA
ATOM      5  N   UNL A   1      40.862 -16.820 -36.032  0.00  0.00    -0.311 N 
ATOM      6  H   UNL A   1      40.991 -17.763 -35.779  0.00  0.00    +0.000 HD
BRANCH   3  12
ATOM      7  C   UNL A   1      44.303 -16.333 -35.471  0.00  0.00    +0.044 A 
ATOM      8  C   UNL A   1      45.368 -16.812 -34.692  0.00  0.00    -0.040 A 
ATOM      9  C   UNL A   1      45.158 -17.334 -33.413  0.00  0.00    -0.060 A 
ATOM     10  C   UNL A   1      43.874 -17.385 -32.881  0.00  0.00    -0.061 A 
ATOM     11  C   UNL A   1      42.796 -16.917 -33.630  0.00  0.00    -0.048 A 
ATOM     12  C   UNL A   1      43.001 -16.406 -34.925  0.00  0.00    +0.058 A 
BRANCH   7  13
ATOM     13  N   UNL A   1      44.518 -15.826 -36.771  0.00  0.00    -0.314 N 
ATOM     14  H   UNL A   1      44.710 -14.860 -36.789  0.00  0.00    +0.000 HD
BRANCH  13  20
ATOM     15  C   UNL A   1      46.991 -17.841 -40.630  0.00  0.00    -0.039 C 
ATOM     16  C   UNL A   1      45.724 -17.423 -39.934  0.00  0.00    -0.046 A 
ATOM     17  C   UNL A   1      44.501 -17.649 -40.581  0.00  0.00    -0.058 A 
ATOM     18  C   UNL A   1      43.303 -17.276 -39.983  0.00  0.00    -0.060 A 
ATOM     19  C   UNL A   1      43.312 -16.668 -38.731  0.00  0.00    -0.040 A 
ATOM     20  C   UNL A   1      44.513 -16.423 -38.048  0.00  0.00    +0.035 A 
ATOM     21  C   UNL A   1      45.734 -16.834 -38.644  0.00  0.00    -0.026 A 
ATOM     22  C   UNL A   1      47.038 -16.599 -37.917  0.00  0.00    -0.038 C 
ENDBRANCH  13  20
ENDBRANCH   7  13
ENDBRANCH   3  12
ENDBRANCH   2   5
ENDBRANCH   1   2
BRANCH   1  23
ATOM     23  C   UNL A   1      40.227 -18.580 -37.954  0.00  0.00    -0.052 C 
BRANCH  23  24
ATOM     24  C   UNL A   1      39.242 -19.725 -37.719  0.00  0.00    -0.053 C 
BRANCH  24  25
ATOM     25  C   UNL A   1      39.353 -20.878 -38.720  0.00  0.00    -0.052 C 
BRANCH  25  26
ATOM     26  C   UNL A   1      40.513 -21.850 -38.475  0.00  0.00    -0.037 C 
BRANCH  26  27
ATOM     27  C   UNL A   1      41.457 -21.978 -39.673  0.00  0.00    +0.009 C 
BRANCH  27  28
ATOM     28  N   UNL A   1      42.270 -20.764 -39.857  0.00  0.00    -0.343 N 
ATOM     29  H   UNL A   1      41.881 -19.901 -40.129  0.00  0.00    +0.000 HD
BRANCH  28  30
ATOM     30  C   UNL A   1      43.660 -20.932 -39.611  0.00  0.00    +0.041 A 
ATOM     31  C   UNL A   1      44.524 -21.359 -40.645  0.00  0.00    -0.005 A 
ATOM     32  C   UNL A   1      45.892 -21.423 -40.362  0.00  0.00    +0.047 A 
ATOM     33  N   UNL A   1      46.424 -21.066 -39.170  0.00  0.00    -0.251 NA
ATOM     34  C   UNL A   1      45.605 -20.686 -38.181  0.00  0.00    +0.073 A 
ATOM     35  C   UNL A   1      46.171 -20.364 -36.954  0.00  0.00    -0.036 A 
ATOM     36  C   UNL A   1      45.394 -19.989 -35.857  0.00  0.00    -0.060 A 
ATOM     37  C   UNL A   1      44.015 -19.944 -35.980  0.00  0.00    -0.061 A 
ATOM     38  C   UNL A   1      43.428 -20.258 -37.205  0.00  0.00    -0.051 A 
ATOM     39  C   UNL A   1      44.208 -20.611 -38.335  0.00  0.00    +0.021 A 
ATOM     40  C   UNL A   1      46.902 -21.839 -41.400  0.00  0.00    -0.010 C 
ATOM     41  C   UNL A   1      46.299 -22.655 -42.536  0.00  0.00    -0.047 C 
ATOM     42  C   UNL A   1      45.068 -21.944 -43.074  0.00  0.00    -0.049 C 
ATOM     43  C   UNL A   1      44.002 -21.823 -41.985  0.00  0.00    -0.024 C 
ENDBRANCH  28  30
ENDBRANCH  27  28
ENDBRANCH  26  27
ENDBRANCH  25  26
ENDBRANCH  24  25
ENDBRANCH  23  24
ENDBRANCH   1  23
TORSDOF 12
ENDMDL
MODEL 9
REMARK VINA RESULT:    -6.622      1.715      3.942
REMARK INTER + INTRA:         -15.681
REMARK INTER:                 -11.583
REMARK INTRA:                  -4.098
REMARK UNBOUND:                -4.414
REMARK  Name = cpd24.pdb
REMARK  14 active torsions:
REMARK  status: ('A' for Active; 'I' for Inactive)
REMARK    1  A    between atoms: C_1  and  C_2
REMARK    2  A    between atoms: C_6  and  N_7
REMARK    3  A    between atoms: N_7  and  C_8
REMARK    4  A    between atoms: C_13  and  C_14
REMARK    5  A    between atoms: N_16  and  C_17
REMARK    6  A    between atoms: C_17  and  C_18
REMARK    7  A    between atoms: C_18  and  C_19
REMARK    8  A    between atoms: C_19  and  C_20
REMARK    9  A    between atoms: C_20  and  C_21
REMARK   10  A    between atoms: C_21  and  C_22
REMARK   11  A    between atoms: C_22  and  C_23
REMARK   12  A    between atoms: C_23  and  N_24
REMARK   13  A    between atoms: N_24  and  C_25
REMARK   14  A    between atoms: C_39  and  C_40
REMARK                            x       y       z     vdW  Elec       q    Type
REMARK                         _______ _______ _______ _____ _____    ______ ____
ROOT
ATOM      1  C   UNL A   1      43.770 -13.973 -39.696  0.00  0.00    -0.037 C 
ENDROOT
BRANCH   1   2
ATOM      2  C   UNL A   1      44.919 -14.873 -40.145  0.00  0.00    +0.012 C 
BRANCH   2   5
ATOM      3  C   UNL A   1      46.342 -16.443 -38.875  0.00  0.00    +0.246 C 
ATOM      4  O   UNL A   1      47.384 -15.985 -39.334  0.00  0.00    -0.270 OA
ATOM      5  N   UNL A   1      45.088 -15.990 -39.239  0.00  0.00    -0.311 N 
ATOM      6  H   UNL A   1      44.292 -16.438 -38.874  0.00  0.00    +0.000 HD
BRANCH   3  12
ATOM      7  C   UNL A   1      46.788 -18.853 -38.303  0.00  0.00    +0.044 A 
ATOM      8  C   UNL A   1      46.825 -19.869 -37.335  0.00  0.00    -0.040 A 
ATOM      9  C   UNL A   1      46.488 -19.619 -36.002  0.00  0.00    -0.060 A 
ATOM     10  C   UNL A   1      46.108 -18.341 -35.605  0.00  0.00    -0.061 A 
ATOM     11  C   UNL A   1      46.060 -17.311 -36.543  0.00  0.00    -0.048 A 
ATOM     12  C   UNL A   1      46.384 -17.562 -37.890  0.00  0.00    +0.058 A 
BRANCH   7  13
ATOM     13  N   UNL A   1      47.109 -19.116 -39.652  0.00  0.00    -0.314 N 
ATOM     14  H   UNL A   1      48.049 -18.923 -39.877  0.00  0.00    +0.000 HD
BRANCH  13  20
ATOM     15  C   UNL A   1      45.920 -22.819 -42.806  0.00  0.00    -0.039 C 
ATOM     16  C   UNL A   1      45.765 -21.417 -42.280  0.00  0.00    -0.046 A 
ATOM     17  C   UNL A   1      44.830 -20.573 -42.895  0.00  0.00    -0.058 A 
ATOM     18  C   UNL A   1      44.652 -19.268 -42.451  0.00  0.00    -0.060 A 
ATOM     19  C   UNL A   1      45.411 -18.788 -41.387  0.00  0.00    -0.040 A 
ATOM     20  C   UNL A   1      46.357 -19.598 -40.742  0.00  0.00    +0.035 A 
ATOM     21  C   UNL A   1      46.515 -20.941 -41.175  0.00  0.00    -0.026 A 
ATOM     22  C   UNL A   1      47.514 -21.838 -40.481  0.00  0.00    -0.038 C 
ENDBRANCH  13  20
ENDBRANCH   7  13
ENDBRANCH   3  12
ENDBRANCH   2   5
ENDBRANCH   1   2
BRANCH   1  23
ATOM     23  C   UNL A   1      43.596 -13.992 -38.176  0.00  0.00    -0.052 C 
BRANCH  23  24
ATOM     24  C   UNL A   1      42.251 -14.603 -37.785  0.00  0.00    -0.053 C 
BRANCH  24  25
ATOM     25  C   UNL A   1      42.301 -15.529 -36.567  0.00  0.00    -0.052 C 
BRANCH  25  26
ATOM     26  C   UNL A   1      42.430 -17.023 -36.883  0.00  0.00    -0.037 C 
BRANCH  26  27
ATOM     27  C   UNL A   1      41.795 -17.923 -35.820  0.00  0.00    +0.009 C 
BRANCH  27  28
ATOM     28  N   UNL A   1      42.628 -19.104 -35.539  0.00  0.00    -0.343 N 
ATOM     29  H   UNL A   1      43.521 -19.038 -35.129  0.00  0.00    +0.000 HD
BRANCH  28  30
ATOM     30  C   UNL A   1      42.045 -20.348 -35.905  0.00  0.00    +0.041 A 
ATOM     31  C   UNL A   1      41.258 -21.070 -34.979  0.00  0.00    -0.005 A 
ATOM     32  C   UNL A   1      40.643 -22.243 -35.427  0.00  0.00    +0.047 A 
ATOM     33  N   UNL A   1      40.736 -22.694 -36.700  0.00  0.00    -0.251 NA
ATOM     34  C   UNL A   1      41.500 -22.025 -37.571  0.00  0.00    +0.073 A 
ATOM     35  C   UNL A   1      41.613 -22.530 -38.861  0.00  0.00    -0.036 A 
ATOM     36  C   UNL A   1      42.414 -21.919 -39.827  0.00  0.00    -0.060 A 
ATOM     37  C   UNL A   1      43.131 -20.780 -39.499  0.00  0.00    -0.061 A 
ATOM     38  C   UNL A   1      43.027 -20.254 -38.212  0.00  0.00    -0.051 A 
ATOM     39  C   UNL A   1      42.195 -20.849 -37.231  0.00  0.00    +0.021 A 
ATOM     40  C   UNL A   1      39.762 -23.074 -34.530  0.00  0.00    -0.010 C 
ATOM     41  C   UNL A   1      40.023 -22.845 -33.048  0.00  0.00    -0.047 C 
ATOM     42  C   UNL A   1      40.026 -21.354 -32.756  0.00  0.00    -0.049 C 
ATOM     43  C   UNL A   1      41.148 -20.660 -33.528  0.00  0.00    -0.024 C 
ENDBRANCH  28  30
ENDBRANCH  27  28
ENDBRANCH  26  27
ENDBRANCH  25  26
ENDBRANCH  24  25
ENDBRANCH  23  24
ENDBRANCH   1  23
TORSDOF 12
ENDMDL
MODEL 10
REMARK VINA RESULT:    -6.604      2.107      4.235
REMARK INTER + INTRA:         -15.651
REMARK INTER:                 -12.241
REMARK INTRA:                  -3.411
REMARK UNBOUND:                -4.414
REMARK  Name = cpd24.pdb
REMARK  14 active torsions:
REMARK  status: ('A' for Active; 'I' for Inactive)
REMARK    1  A    between atoms: C_1  and  C_2
REMARK    2  A    between atoms: C_6  and  N_7
REMARK    3  A    between atoms: N_7  and  C_8
REMARK    4  A    between atoms: C_13  and  C_14
REMARK    5  A    between atoms: N_16  and  C_17
REMARK    6  A    between atoms: C_17  and  C_18
REMARK    7  A    between atoms: C_18  and  C_19
REMARK    8  A    between atoms: C_19  and  C_20
REMARK    9  A    between atoms: C_20  and  C_21
REMARK   10  A    between atoms: C_21  and  C_22
REMARK   11  A    between atoms: C_22  and  C_23
REMARK   12  A    between atoms: C_23  and  N_24
REMARK   13  A    between atoms: N_24  and  C_25
REMARK   14  A    between atoms: C_39  and  C_40
REMARK                            x       y       z     vdW  Elec       q    Type
REMARK                         _______ _______ _______ _____ _____    ______ ____
ROOT
ATOM      1  C   UNL A   1      42.580 -19.903 -39.406  0.00  0.00    -0.037 C 
ENDROOT
BRANCH   1   2
ATOM      2  C   UNL A   1      42.568 -20.924 -40.541  0.00  0.00    +0.012 C 
BRANCH   2   5
ATOM      3  C   UNL A   1      44.779 -21.048 -41.637  0.00  0.00    +0.246 C 
ATOM      4  O   UNL A   1      44.524 -20.134 -42.417  0.00  0.00    -0.270 OA
ATOM      5  N   UNL A   1      43.875 -21.528 -40.711  0.00  0.00    -0.311 N 
ATOM      6  H   UNL A   1      44.124 -22.299 -40.152  0.00  0.00    +0.000 HD
BRANCH   3  12
ATOM      7  C   UNL A   1      47.230 -21.100 -41.067  0.00  0.00    +0.044 A 
ATOM      8  C   UNL A   1      48.458 -21.777 -41.116  0.00  0.00    -0.040 A 
ATOM      9  C   UNL A   1      48.580 -23.025 -41.732  0.00  0.00    -0.060 A 
ATOM     10  C   UNL A   1      47.468 -23.628 -42.312  0.00  0.00    -0.061 A 
ATOM     11  C   UNL A   1      46.234 -22.981 -42.280  0.00  0.00    -0.048 A 
ATOM     12  C   UNL A   1      46.112 -21.717 -41.675  0.00  0.00    +0.058 A 
BRANCH   7  13
ATOM     13  N   UNL A   1      47.118 -19.829 -40.462  0.00  0.00    -0.314 N 
ATOM     14  H   UNL A   1      47.514 -19.103 -40.995  0.00  0.00    +0.000 HD
BRANCH  13  20
ATOM     15  C   UNL A   1      44.476 -16.455 -37.871  0.00  0.00    -0.039 C 
ATOM     16  C   UNL A   1      45.246 -17.744 -37.980  0.00  0.00    -0.046 A 
ATOM     17  C   UNL A   1      45.391 -18.534 -36.831  0.00  0.00    -0.058 A 
ATOM     18  C   UNL A   1      46.098 -19.730 -36.877  0.00  0.00    -0.060 A 
ATOM     19  C   UNL A   1      46.673 -20.150 -38.074  0.00  0.00    -0.040 A 
ATOM     20  C   UNL A   1      46.552 -19.391 -39.247  0.00  0.00    +0.035 A 
ATOM     21  C   UNL A   1      45.802 -18.186 -39.208  0.00  0.00    -0.026 A 
ATOM     22  C   UNL A   1      45.642 -17.363 -40.464  0.00  0.00    -0.038 C 
ENDBRANCH  13  20
ENDBRANCH   7  13
ENDBRANCH   3  12
ENDBRANCH   2   5
ENDBRANCH   1   2
BRANCH   1  23
ATOM     23  C   UNL A   1      42.552 -20.581 -38.035  0.00  0.00    -0.052 C 
BRANCH  23  24
ATOM     24  C   UNL A   1      41.198 -20.386 -37.353  0.00  0.00    -0.053 C 
BRANCH  24  25
ATOM     25  C   UNL A   1      40.236 -21.568 -37.494  0.00  0.00    -0.052 C 
BRANCH  25  26
ATOM     26  C   UNL A   1      39.433 -21.914 -36.235  0.00  0.00    -0.037 C 
BRANCH  26  27
ATOM     27  C   UNL A   1      40.191 -22.823 -35.264  0.00  0.00    +0.009 C 
BRANCH  27  28
ATOM     28  N   UNL A   1      39.881 -22.501 -33.861  0.00  0.00    -0.343 N 
ATOM     29  H   UNL A   1      39.701 -23.193 -33.186  0.00  0.00    +0.000 HD
BRANCH  28  30
ATOM     30  C   UNL A   1      39.862 -21.112 -33.558  0.00  0.00    +0.041 A 
ATOM     31  C   UNL A   1      41.053 -20.353 -33.601  0.00  0.00    -0.005 A 
ATOM     32  C   UNL A   1      40.953 -18.976 -33.376  0.00  0.00    +0.047 A 
ATOM     33  N   UNL A   1      39.778 -18.341 -33.156  0.00  0.00    -0.251 NA
ATOM     34  C   UNL A   1      38.653 -19.061 -33.089  0.00  0.00    +0.073 A 
ATOM     35  C   UNL A   1      37.464 -18.392 -32.821  0.00  0.00    -0.036 A 
ATOM     36  C   UNL A   1      36.247 -19.064 -32.700  0.00  0.00    -0.060 A 
ATOM     37  C   UNL A   1      36.212 -20.442 -32.839  0.00  0.00    -0.061 A 
ATOM     38  C   UNL A   1      37.392 -21.132 -33.114  0.00  0.00    -0.051 A 
ATOM     39  C   UNL A   1      38.629 -20.457 -33.268  0.00  0.00    +0.021 A 
ATOM     40  C   UNL A   1      42.156 -18.070 -33.427  0.00  0.00    -0.010 C 
ATOM     41  C   UNL A   1      43.473 -18.804 -33.212  0.00  0.00    -0.047 C 
ATOM     42  C   UNL A   1      43.533 -20.017 -34.126  0.00  0.00    -0.049 C 
ATOM     43  C   UNL A   1      42.407 -20.996 -33.790  0.00  0.00    -0.024 C 
ENDBRANCH  28  30
ENDBRANCH  27  28
ENDBRANCH  26  27
ENDBRANCH  25  26
ENDBRANCH  24  25
ENDBRANCH  23  24
ENDBRANCH   1  23
TORSDOF 12
ENDMDL
MODEL 11
REMARK VINA RESULT:    -6.593      2.011      7.574
REMARK INTER + INTRA:         -15.632
REMARK INTER:                 -10.764
REMARK INTRA:                  -4.868
REMARK UNBOUND:                -4.414
REMARK  Name = cpd24.pdb
REMARK  14 active torsions:
REMARK  status: ('A' for Active; 'I' for Inactive)
REMARK    1  A    between atoms: C_1  and  C_2
REMARK    2  A    between atoms: C_6  and  N_7
REMARK    3  A    between atoms: N_7  and  C_8
REMARK    4  A    between atoms: C_13  and  C_14
REMARK    5  A    between atoms: N_16  and  C_17
REMARK    6  A    between atoms: C_17  and  C_18
REMARK    7  A    between atoms: C_18  and  C_19
REMARK    8  A    between atoms: C_19  and  C_20
REMARK    9  A    between atoms: C_20  and  C_21
REMARK   10  A    between atoms: C_21  and  C_22
REMARK   11  A    between atoms: C_22  and  C_23
REMARK   12  A    between atoms: C_23  and  N_24
REMARK   13  A    between atoms: N_24  and  C_25
REMARK   14  A    between atoms: C_39  and  C_40
REMARK                            x       y       z     vdW  Elec       q    Type
REMARK                         _______ _______ _______ _____ _____    ______ ____
ROOT
ATOM      1  C   UNL A   1      42.592 -21.291 -39.209  0.00  0.00    -0.037 C 
ENDROOT
BRANCH   1   2
ATOM      2  C   UNL A   1      41.218 -21.936 -39.039  0.00  0.00    +0.012 C 
BRANCH   2   5
ATOM      3  C   UNL A   1      39.796 -21.379 -37.098  0.00  0.00    +0.246 C 
ATOM      4  O   UNL A   1      39.109 -20.587 -37.736  0.00  0.00    -0.270 OA
ATOM      5  N   UNL A   1      40.871 -22.058 -37.638  0.00  0.00    -0.311 N 
ATOM      6  H   UNL A   1      41.413 -22.638 -37.057  0.00  0.00    +0.000 HD
BRANCH   3  12
ATOM      7  C   UNL A   1      40.019 -20.764 -34.667  0.00  0.00    +0.044 A 
ATOM      8  C   UNL A   1      39.704 -21.038 -33.327  0.00  0.00    -0.040 A 
ATOM      9  C   UNL A   1      38.900 -22.125 -32.974  0.00  0.00    -0.060 A 
ATOM     10  C   UNL A   1      38.388 -22.964 -33.959  0.00  0.00    -0.061 A 
ATOM     11  C   UNL A   1      38.683 -22.718 -35.299  0.00  0.00    -0.048 A 
ATOM     12  C   UNL A   1      39.505 -21.634 -35.657  0.00  0.00    +0.058 A 
BRANCH   7  13
ATOM     13  N   UNL A   1      40.848 -19.677 -35.017  0.00  0.00    -0.314 N 
ATOM     14  H   UNL A   1      40.412 -19.025 -35.612  0.00  0.00    +0.000 HD
BRANCH  13  20
ATOM     15  C   UNL A   1      44.316 -16.207 -34.011  0.00  0.00    -0.039 C 
ATOM     16  C   UNL A   1      43.872 -17.636 -34.179  0.00  0.00    -0.046 A 
ATOM     17  C   UNL A   1      44.815 -18.655 -33.987  0.00  0.00    -0.058 A 
ATOM     18  C   UNL A   1      44.457 -19.990 -34.136  0.00  0.00    -0.060 A 
ATOM     19  C   UNL A   1      43.150 -20.323 -34.484  0.00  0.00    -0.040 A 
ATOM     20  C   UNL A   1      42.175 -19.335 -34.685  0.00  0.00    +0.035 A 
ATOM     21  C   UNL A   1      42.533 -17.974 -34.501  0.00  0.00    -0.026 A 
ATOM     22  C   UNL A   1      41.493 -16.894 -34.692  0.00  0.00    -0.038 C 
ENDBRANCH  13  20
ENDBRANCH   7  13
ENDBRANCH   3  12
ENDBRANCH   2   5
ENDBRANCH   1   2
BRANCH   1  23
ATOM     23  C   UNL A   1      42.760 -20.071 -38.302  0.00  0.00    -0.052 C 
BRANCH  23  24
ATOM     24  C   UNL A   1      42.101 -18.836 -38.915  0.00  0.00    -0.053 C 
BRANCH  24  25
ATOM     25  C   UNL A   1      42.386 -17.526 -38.175  0.00  0.00    -0.052 C 
BRANCH  25  26
ATOM     26  C   UNL A   1      43.126 -16.460 -38.990  0.00  0.00    -0.037 C 
BRANCH  26  27
ATOM     27  C   UNL A   1      43.654 -16.982 -40.329  0.00  0.00    +0.009 C 
BRANCH  27  28
ATOM     28  N   UNL A   1      45.127 -17.009 -40.360  0.00  0.00    -0.343 N 
ATOM     29  H   UNL A   1      45.662 -16.282 -40.753  0.00  0.00    +0.000 HD
BRANCH  28  30
ATOM     30  C   UNL A   1      45.716 -18.164 -39.778  0.00  0.00    +0.041 A 
ATOM     31  C   UNL A   1      46.323 -18.094 -38.505  0.00  0.00    -0.005 A 
ATOM     32  C   UNL A   1      46.808 -19.283 -37.951  0.00  0.00    +0.047 A 
ATOM     33  N   UNL A   1      46.692 -20.489 -38.556  0.00  0.00    -0.251 NA
ATOM     34  C   UNL A   1      46.139 -20.553 -39.773  0.00  0.00    +0.073 A 
ATOM     35  C   UNL A   1      46.067 -21.795 -40.392  0.00  0.00    -0.036 A 
ATOM     36  C   UNL A   1      45.538 -21.955 -41.674  0.00  0.00    -0.060 A 
ATOM     37  C   UNL A   1      45.077 -20.846 -42.364  0.00  0.00    -0.061 A 
ATOM     38  C   UNL A   1      45.134 -19.592 -41.759  0.00  0.00    -0.051 A 
ATOM     39  C   UNL A   1      45.642 -19.421 -40.447  0.00  0.00    +0.021 A 
ATOM     40  C   UNL A   1      47.449 -19.326 -36.588  0.00  0.00    -0.010 C 
ATOM     41  C   UNL A   1      47.985 -17.975 -36.132  0.00  0.00    -0.047 C 
ATOM     42  C   UNL A   1      46.911 -16.915 -36.313  0.00  0.00    -0.049 C 
ATOM     43  C   UNL A   1      46.537 -16.780 -37.789  0.00  0.00    -0.024 C 
ENDBRANCH  28  30
ENDBRANCH  27  28
ENDBRANCH  26  27
ENDBRANCH  25  26
ENDBRANCH  24  25
ENDBRANCH  23  24
ENDBRANCH   1  23
TORSDOF 12
ENDMDL
MODEL 12
REMARK VINA RESULT:    -6.586      2.080      5.280
REMARK INTER + INTRA:         -15.621
REMARK INTER:                 -11.576
REMARK INTRA:                  -4.045
REMARK UNBOUND:                -4.414
REMARK  Name = cpd24.pdb
REMARK  14 active torsions:
REMARK  status: ('A' for Active; 'I' for Inactive)
REMARK    1  A    between atoms: C_1  and  C_2
REMARK    2  A    between atoms: C_6  and  N_7
REMARK    3  A    between atoms: N_7  and  C_8
REMARK    4  A    between atoms: C_13  and  C_14
REMARK    5  A    between atoms: N_16  and  C_17
REMARK    6  A    between atoms: C_17  and  C_18
REMARK    7  A    between atoms: C_18  and  C_19
REMARK    8  A    between atoms: C_19  and  C_20
REMARK    9  A    between atoms: C_20  and  C_21
REMARK   10  A    between atoms: C_21  and  C_22
REMARK   11  A    between atoms: C_22  and  C_23
REMARK   12  A    between atoms: C_23  and  N_24
REMARK   13  A    between atoms: N_24  and  C_25
REMARK   14  A    between atoms: C_39  and  C_40
REMARK                            x       y       z     vdW  Elec       q    Type
REMARK                         _______ _______ _______ _____ _____    ______ ____
ROOT
ATOM      1  C   UNL A   1      46.757 -17.121 -37.477  0.00  0.00    -0.037 C 
ENDROOT
BRANCH   1   2
ATOM      2  C   UNL A   1      47.304 -18.537 -37.641  0.00  0.00    +0.012 C 
BRANCH   2   5
ATOM      3  C   UNL A   1      46.069 -20.345 -38.784  0.00  0.00    +0.246 C 
ATOM      4  O   UNL A   1      45.891 -20.978 -37.748  0.00  0.00    -0.270 OA
ATOM      5  N   UNL A   1      46.778 -19.162 -38.838  0.00  0.00    -0.311 N 
ATOM      6  H   UNL A   1      46.931 -18.733 -39.711  0.00  0.00    +0.000 HD
BRANCH   3  12
ATOM      7  C   UNL A   1      44.187 -20.593 -40.438  0.00  0.00    +0.044 A 
ATOM      8  C   UNL A   1      43.731 -21.082 -41.672  0.00  0.00    -0.040 A 
ATOM      9  C   UNL A   1      44.572 -21.797 -42.528  0.00  0.00    -0.060 A 
ATOM     10  C   UNL A   1      45.895 -22.036 -42.170  0.00  0.00    -0.061 A 
ATOM     11  C   UNL A   1      46.378 -21.563 -40.950  0.00  0.00    -0.048 A 
ATOM     12  C   UNL A   1      45.529 -20.857 -40.078  0.00  0.00    +0.058 A 
BRANCH   7  13
ATOM     13  N   UNL A   1      43.327 -19.889 -39.567  0.00  0.00    -0.314 N 
ATOM     14  H   UNL A   1      43.399 -18.910 -39.650  0.00  0.00    +0.000 HD
BRANCH  13  20
ATOM     15  C   UNL A   1      39.637 -18.813 -36.357  0.00  0.00    -0.039 C 
ATOM     16  C   UNL A   1      40.568 -19.779 -37.040  0.00  0.00    -0.046 A 
ATOM     17  C   UNL A   1      40.481 -21.138 -36.707  0.00  0.00    -0.058 A 
ATOM     18  C   UNL A   1      41.323 -22.070 -37.304  0.00  0.00    -0.060 A 
ATOM     19  C   UNL A   1      42.265 -21.653 -38.241  0.00  0.00    -0.040 A 
ATOM     20  C   UNL A   1      42.386 -20.304 -38.603  0.00  0.00    +0.035 A 
ATOM     21  C   UNL A   1      41.505 -19.357 -38.018  0.00  0.00    -0.026 A 
ATOM     22  C   UNL A   1      41.603 -17.901 -38.409  0.00  0.00    -0.038 C 
ENDBRANCH  13  20
ENDBRANCH   7  13
ENDBRANCH   3  12
ENDBRANCH   2   5
ENDBRANCH   1   2
BRANCH   1  23
ATOM     23  C   UNL A   1      45.245 -17.120 -37.248  0.00  0.00    -0.052 C 
BRANCH  23  24
ATOM     24  C   UNL A   1      44.913 -17.371 -35.777  0.00  0.00    -0.053 C 
BRANCH  24  25
ATOM     25  C   UNL A   1      44.291 -18.740 -35.488  0.00  0.00    -0.052 C 
BRANCH  25  26
ATOM     26  C   UNL A   1      43.119 -18.733 -34.500  0.00  0.00    -0.037 C 
BRANCH  26  27
ATOM     27  C   UNL A   1      42.720 -20.132 -34.025  0.00  0.00    +0.009 C 
BRANCH  27  28
ATOM     28  N   UNL A   1      42.001 -20.086 -32.741  0.00  0.00    -0.343 N 
ATOM     29  H   UNL A   1      42.465 -20.074 -31.873  0.00  0.00    +0.000 HD
BRANCH  28  30
ATOM     30  C   UNL A   1      40.583 -20.061 -32.850  0.00  0.00    +0.041 A 
ATOM     31  C   UNL A   1      39.861 -21.256 -33.068  0.00  0.00    -0.005 A 
ATOM     32  C   UNL A   1      38.465 -21.176 -33.080  0.00  0.00    +0.047 A 
ATOM     33  N   UNL A   1      37.782 -20.028 -32.861  0.00  0.00    -0.251 NA
ATOM     34  C   UNL A   1      38.465 -18.891 -32.680  0.00  0.00    +0.073 A 
ATOM     35  C   UNL A   1      37.743 -17.718 -32.497  0.00  0.00    -0.036 A 
ATOM     36  C   UNL A   1      38.368 -16.481 -32.334  0.00  0.00    -0.060 A 
ATOM     37  C   UNL A   1      39.751 -16.407 -32.363  0.00  0.00    -0.061 A 
ATOM     38  C   UNL A   1      40.494 -17.572 -32.539  0.00  0.00    -0.051 A 
ATOM     39  C   UNL A   1      39.872 -18.838 -32.677  0.00  0.00    +0.021 A 
ATOM     40  C   UNL A   1      37.598 -22.393 -33.278  0.00  0.00    -0.010 C 
ATOM     41  C   UNL A   1      38.321 -23.544 -33.963  0.00  0.00    -0.047 C 
ATOM     42  C   UNL A   1      39.649 -23.796 -33.266  0.00  0.00    -0.049 C 
ATOM     43  C   UNL A   1      40.550 -22.566 -33.371  0.00  0.00    -0.024 C 
ENDBRANCH  28  30
ENDBRANCH  27  28
ENDBRANCH  26  27
ENDBRANCH  25  26
ENDBRANCH  24  25
ENDBRANCH  23  24
ENDBRANCH   1  23
TORSDOF 12
ENDMDL
MODEL 13
REMARK VINA RESULT:    -6.567      2.101      5.290
REMARK INTER + INTRA:         -15.589
REMARK INTER:                 -11.360
REMARK INTRA:                  -4.229
REMARK UNBOUND:                -4.414
REMARK  Name = cpd24.pdb
REMARK  14 active torsions:
REMARK  status: ('A' for Active; 'I' for Inactive)
REMARK    1  A    between atoms: C_1  and  C_2
REMARK    2  A    between atoms: C_6  and  N_7
REMARK    3  A    between atoms: N_7  and  C_8
REMARK    4  A    between atoms: C_13  and  C_14
REMARK    5  A    between atoms: N_16  and  C_17
REMARK    6  A    between atoms: C_17  and  C_18
REMARK    7  A    between atoms: C_18  and  C_19
REMARK    8  A    between atoms: C_19  and  C_20
REMARK    9  A    between atoms: C_20  and  C_21
REMARK   10  A    between atoms: C_21  and  C_22
REMARK   11  A    between atoms: C_22  and  C_23
REMARK   12  A    between atoms: C_23  and  N_24
REMARK   13  A    between atoms: N_24  and  C_25
REMARK   14  A    between atoms: C_39  and  C_40
REMARK                            x       y       z     vdW  Elec       q    Type
REMARK                         _______ _______ _______ _____ _____    ______ ____
ROOT
ATOM      1  C   UNL A   1      46.610 -17.039 -37.268  0.00  0.00    -0.037 C 
ENDROOT
BRANCH   1   2
ATOM      2  C   UNL A   1      47.227 -18.409 -37.541  0.00  0.00    +0.012 C 
BRANCH   2   5
ATOM      3  C   UNL A   1      46.034 -20.259 -38.661  0.00  0.00    +0.246 C 
ATOM      4  O   UNL A   1      46.008 -20.953 -37.648  0.00  0.00    -0.270 OA
ATOM      5  N   UNL A   1      46.639 -19.019 -38.716  0.00  0.00    -0.311 N 
ATOM      6  H   UNL A   1      46.671 -18.538 -39.575  0.00  0.00    +0.000 HD
BRANCH   3  12
ATOM      7  C   UNL A   1      44.040 -20.524 -40.174  0.00  0.00    +0.044 A 
ATOM      8  C   UNL A   1      43.506 -20.994 -41.384  0.00  0.00    -0.040 A 
ATOM      9  C   UNL A   1      44.301 -21.659 -42.322  0.00  0.00    -0.060 A 
ATOM     10  C   UNL A   1      45.654 -21.865 -42.071  0.00  0.00    -0.061 A 
ATOM     11  C   UNL A   1      46.213 -21.409 -40.878  0.00  0.00    -0.048 A 
ATOM     12  C   UNL A   1      45.413 -20.753 -39.924  0.00  0.00    +0.058 A 
BRANCH   7  13
ATOM     13  N   UNL A   1      43.228 -19.870 -39.221  0.00  0.00    -0.314 N 
ATOM     14  H   UNL A   1      43.367 -18.896 -39.189  0.00  0.00    +0.000 HD
BRANCH  13  20
ATOM     15  C   UNL A   1      39.218 -19.018 -36.346  0.00  0.00    -0.039 C 
ATOM     16  C   UNL A   1      40.285 -19.918 -36.909  0.00  0.00    -0.046 A 
ATOM     17  C   UNL A   1      40.302 -21.262 -36.513  0.00  0.00    -0.058 A 
ATOM     18  C   UNL A   1      41.270 -22.133 -36.998  0.00  0.00    -0.060 A 
ATOM     19  C   UNL A   1      42.238 -21.669 -37.885  0.00  0.00    -0.040 A 
ATOM     20  C   UNL A   1      42.259 -20.332 -38.308  0.00  0.00    +0.035 A 
ATOM     21  C   UNL A   1      41.250 -19.451 -37.837  0.00  0.00    -0.026 A 
ATOM     22  C   UNL A   1      41.241 -18.011 -38.295  0.00  0.00    -0.038 C 
ENDBRANCH  13  20
ENDBRANCH   7  13
ENDBRANCH   3  12
ENDBRANCH   2   5
ENDBRANCH   1   2
BRANCH   1  23
ATOM     23  C   UNL A   1      45.130 -17.148 -36.898  0.00  0.00    -0.052 C 
BRANCH  23  24
ATOM     24  C   UNL A   1      44.959 -17.667 -35.470  0.00  0.00    -0.053 C 
BRANCH  24  25
ATOM     25  C   UNL A   1      44.268 -19.030 -35.365  0.00  0.00    -0.052 C 
BRANCH  25  26
ATOM     26  C   UNL A   1      42.927 -19.029 -34.622  0.00  0.00    -0.037 C 
BRANCH  26  27
ATOM     27  C   UNL A   1      42.632 -20.350 -33.906  0.00  0.00    +0.009 C 
BRANCH  27  28
ATOM     28  N   UNL A   1      41.930 -20.133 -32.630  0.00  0.00    -0.343 N 
ATOM     29  H   UNL A   1      42.407 -20.007 -31.778  0.00  0.00    +0.000 HD
BRANCH  28  30
ATOM     30  C   UNL A   1      40.512 -20.119 -32.723  0.00  0.00    +0.041 A 
ATOM     31  C   UNL A   1      39.799 -18.903 -32.626  0.00  0.00    -0.005 A 
ATOM     32  C   UNL A   1      38.414 -18.947 -32.811  0.00  0.00    +0.047 A 
ATOM     33  N   UNL A   1      37.737 -20.080 -33.109  0.00  0.00    -0.251 NA
ATOM     34  C   UNL A   1      38.407 -21.237 -33.176  0.00  0.00    +0.073 A 
ATOM     35  C   UNL A   1      37.685 -22.394 -33.444  0.00  0.00    -0.036 A 
ATOM     36  C   UNL A   1      38.292 -23.649 -33.500  0.00  0.00    -0.060 A 
ATOM     37  C   UNL A   1      39.655 -23.759 -33.273  0.00  0.00    -0.061 A 
ATOM     38  C   UNL A   1      40.398 -22.610 -33.009  0.00  0.00    -0.051 A 
ATOM     39  C   UNL A   1      39.798 -21.326 -32.979  0.00  0.00    +0.021 A 
ATOM     40  C   UNL A   1      37.562 -17.704 -32.756  0.00  0.00    -0.010 C 
ATOM     41  C   UNL A   1      38.214 -16.561 -31.991  0.00  0.00    -0.047 C 
ATOM     42  C   UNL A   1      39.633 -16.355 -32.495  0.00  0.00    -0.049 C 
ATOM     43  C   UNL A   1      40.475 -17.606 -32.246  0.00  0.00    -0.024 C 
ENDBRANCH  28  30
ENDBRANCH  27  28
ENDBRANCH  26  27
ENDBRANCH  25  26
ENDBRANCH  24  25
ENDBRANCH  23  24
ENDBRANCH   1  23
TORSDOF 12
ENDMDL
MODEL 14
REMARK VINA RESULT:    -6.560      1.648      4.483
REMARK INTER + INTRA:         -15.576
REMARK INTER:                 -10.722
REMARK INTRA:                  -4.855
REMARK UNBOUND:                -4.414
REMARK  Name = cpd24.pdb
REMARK  14 active torsions:
REMARK  status: ('A' for Active; 'I' for Inactive)
REMARK    1  A    between atoms: C_1  and  C_2
REMARK    2  A    between atoms: C_6  and  N_7
REMARK    3  A    between atoms: N_7  and  C_8
REMARK    4  A    between atoms: C_13  and  C_14
REMARK    5  A    between atoms: N_16  and  C_17
REMARK    6  A    between atoms: C_17  and  C_18
REMARK    7  A    between atoms: C_18  and  C_19
REMARK    8  A    between atoms: C_19  and  C_20
REMARK    9  A    between atoms: C_20  and  C_21
REMARK   10  A    between atoms: C_21  and  C_22
REMARK   11  A    between atoms: C_22  and  C_23
REMARK   12  A    between atoms: C_23  and  N_24
REMARK   13  A    between atoms: N_24  and  C_25
REMARK   14  A    between atoms: C_39  and  C_40
REMARK                            x       y       z     vdW  Elec       q    Type
REMARK                         _______ _______ _______ _____ _____    ______ ____
ROOT
ATOM      1  C   UNL A   1      44.017 -16.164 -38.154  0.00  0.00    -0.037 C 
ENDROOT
BRANCH   1   2
ATOM      2  C   UNL A   1      44.177 -16.319 -39.665  0.00  0.00    +0.012 C 
BRANCH   2   5
ATOM      3  C   UNL A   1      45.725 -18.193 -40.106  0.00  0.00    +0.246 C 
ATOM      4  O   UNL A   1      46.725 -17.498 -39.954  0.00  0.00    -0.270 OA
ATOM      5  N   UNL A   1      44.438 -17.699 -40.021  0.00  0.00    -0.311 N 
ATOM      6  H   UNL A   1      43.680 -18.299 -40.207  0.00  0.00    +0.000 HD
BRANCH   3  12
ATOM      7  C   UNL A   1      46.194 -20.563 -39.402  0.00  0.00    +0.044 A 
ATOM      8  C   UNL A   1      46.295 -21.920 -39.748  0.00  0.00    -0.040 A 
ATOM      9  C   UNL A   1      46.062 -22.359 -41.054  0.00  0.00    -0.060 A 
ATOM     10  C   UNL A   1      45.718 -21.446 -42.046  0.00  0.00    -0.061 A 
ATOM     11  C   UNL A   1      45.611 -20.092 -41.734  0.00  0.00    -0.048 A 
ATOM     12  C   UNL A   1      45.860 -19.644 -40.423  0.00  0.00    +0.058 A 
BRANCH   7  13
ATOM     13  N   UNL A   1      46.451 -20.123 -38.085  0.00  0.00    -0.314 N 
ATOM     14  H   UNL A   1      47.410 -20.081 -37.864  0.00  0.00    +0.000 HD
BRANCH  13  20
ATOM     15  C   UNL A   1      45.479 -17.110 -34.205  0.00  0.00    -0.039 C 
ATOM     16  C   UNL A   1      45.128 -18.245 -35.129  0.00  0.00    -0.046 A 
ATOM     17  C   UNL A   1      43.918 -18.921 -34.926  0.00  0.00    -0.058 A 
ATOM     18  C   UNL A   1      43.550 -19.980 -35.748  0.00  0.00    -0.060 A 
ATOM     19  C   UNL A   1      44.391 -20.379 -36.784  0.00  0.00    -0.040 A 
ATOM     20  C   UNL A   1      45.611 -19.730 -37.023  0.00  0.00    +0.035 A 
ATOM     21  C   UNL A   1      45.971 -18.628 -36.204  0.00  0.00    -0.026 A 
ATOM     22  C   UNL A   1      47.271 -17.901 -36.457  0.00  0.00    -0.038 C 
ENDBRANCH  13  20
ENDBRANCH   7  13
ENDBRANCH   3  12
ENDBRANCH   2   5
ENDBRANCH   1   2
BRANCH   1  23
ATOM     23  C   UNL A   1      42.662 -16.685 -37.672  0.00  0.00    -0.052 C 
BRANCH  23  24
ATOM     24  C   UNL A   1      41.853 -15.573 -37.004  0.00  0.00    -0.053 C 
BRANCH  24  25
ATOM     25  C   UNL A   1      40.671 -16.062 -36.162  0.00  0.00    -0.052 C 
BRANCH  25  26
ATOM     26  C   UNL A   1      40.760 -17.517 -35.688  0.00  0.00    -0.037 C 
BRANCH  26  27
ATOM     27  C   UNL A   1      39.393 -18.145 -35.404  0.00  0.00    +0.009 C 
BRANCH  27  28
ATOM     28  N   UNL A   1      38.901 -18.919 -36.557  0.00  0.00    -0.343 N 
ATOM     29  H   UNL A   1      38.284 -18.541 -37.224  0.00  0.00    +0.000 HD
BRANCH  28  30
ATOM     30  C   UNL A   1      39.386 -20.253 -36.631  0.00  0.00    +0.041 A 
ATOM     31  C   UNL A   1      40.333 -20.617 -37.614  0.00  0.00    -0.005 A 
ATOM     32  C   UNL A   1      40.833 -21.923 -37.581  0.00  0.00    +0.047 A 
ATOM     33  N   UNL A   1      40.483 -22.831 -36.641  0.00  0.00    -0.251 NA
ATOM     34  C   UNL A   1      39.567 -22.496 -35.724  0.00  0.00    +0.073 A 
ATOM     35  C   UNL A   1      39.193 -23.458 -34.794  0.00  0.00    -0.036 A 
ATOM     36  C   UNL A   1      38.223 -23.211 -33.822  0.00  0.00    -0.060 A 
ATOM     37  C   UNL A   1      37.598 -21.975 -33.780  0.00  0.00    -0.061 A 
ATOM     38  C   UNL A   1      37.963 -20.994 -34.701  0.00  0.00    -0.051 A 
ATOM     39  C   UNL A   1      38.968 -21.223 -35.674  0.00  0.00    +0.021 A 
ATOM     40  C   UNL A   1      41.867 -22.406 -38.566  0.00  0.00    -0.010 C 
ATOM     41  C   UNL A   1      41.909 -21.585 -39.847  0.00  0.00    -0.047 C 
ATOM     42  C   UNL A   1      41.981 -20.107 -39.502  0.00  0.00    -0.049 C 
ATOM     43  C   UNL A   1      40.736 -19.677 -38.727  0.00  0.00    -0.024 C 
ENDBRANCH  28  30
ENDBRANCH  27  28
ENDBRANCH  26  27
ENDBRANCH  25  26
ENDBRANCH  24  25
ENDBRANCH  23  24
ENDBRANCH   1  23
TORSDOF 12
ENDMDL
MODEL 15
REMARK VINA RESULT:    -6.538      2.048      6.805
REMARK INTER + INTRA:         -15.538
REMARK INTER:                 -10.634
REMARK INTRA:                  -4.904
REMARK UNBOUND:                -4.414
REMARK  Name = cpd24.pdb
REMARK  14 active torsions:
REMARK  status: ('A' for Active; 'I' for Inactive)
REMARK    1  A    between atoms: C_1  and  C_2
REMARK    2  A    between atoms: C_6  and  N_7
REMARK    3  A    between atoms: N_7  and  C_8
REMARK    4  A    between atoms: C_13  and  C_14
REMARK    5  A    between atoms: N_16  and  C_17
REMARK    6  A    between atoms: C_17  and  C_18
REMARK    7  A    between atoms: C_18  and  C_19
REMARK    8  A    between atoms: C_19  and  C_20
REMARK    9  A    between atoms: C_20  and  C_21
REMARK   10  A    between atoms: C_21  and  C_22
REMARK   11  A    between atoms: C_22  and  C_23
REMARK   12  A    between atoms: C_23  and  N_24
REMARK   13  A    between atoms: N_24  and  C_25
REMARK   14  A    between atoms: C_39  and  C_40
REMARK                            x       y       z     vdW  Elec       q    Type
REMARK                         _______ _______ _______ _____ _____    ______ ____
ROOT
ATOM      1  C   UNL A   1      42.739 -17.036 -40.034  0.00  0.00    -0.037 C 
ENDROOT
BRANCH   1   2
ATOM      2  C   UNL A   1      41.650 -17.564 -39.104  0.00  0.00    +0.012 C 
BRANCH   2   5
ATOM      3  C   UNL A   1      41.323 -17.466 -36.657  0.00  0.00    +0.246 C 
ATOM      4  O   UNL A   1      40.160 -17.085 -36.754  0.00  0.00    -0.270 OA
ATOM      5  N   UNL A   1      42.142 -17.690 -37.747  0.00  0.00    -0.311 N 
ATOM      6  H   UNL A   1      43.081 -17.942 -37.598  0.00  0.00    +0.000 HD
BRANCH   3  12
ATOM      7  C   UNL A   1      41.353 -18.616 -34.418  0.00  0.00    +0.044 A 
ATOM      8  C   UNL A   1      41.971 -18.799 -33.172  0.00  0.00    -0.040 A 
ATOM      9  C   UNL A   1      43.128 -18.097 -32.821  0.00  0.00    -0.060 A 
ATOM     10  C   UNL A   1      43.696 -17.197 -33.716  0.00  0.00    -0.061 A 
ATOM     11  C   UNL A   1      43.105 -16.993 -34.963  0.00  0.00    -0.048 A 
ATOM     12  C   UNL A   1      41.932 -17.686 -35.312  0.00  0.00    +0.058 A 
BRANCH   7  13
ATOM     13  N   UNL A   1      40.173 -19.313 -34.759  0.00  0.00    -0.314 N 
ATOM     14  H   UNL A   1      39.353 -18.784 -34.628  0.00  0.00    +0.000 HD
BRANCH  13  20
ATOM     15  C   UNL A   1      38.300 -23.914 -34.127  0.00  0.00    -0.039 C 
ATOM     16  C   UNL A   1      39.002 -22.863 -34.945  0.00  0.00    -0.046 A 
ATOM     17  C   UNL A   1      39.419 -23.196 -36.241  0.00  0.00    -0.058 A 
ATOM     18  C   UNL A   1      40.078 -22.264 -37.035  0.00  0.00    -0.060 A 
ATOM     19  C   UNL A   1      40.332 -20.987 -36.541  0.00  0.00    -0.040 A 
ATOM     20  C   UNL A   1      39.932 -20.612 -35.250  0.00  0.00    +0.035 A 
ATOM     21  C   UNL A   1      39.231 -21.554 -34.451  0.00  0.00    -0.026 A 
ATOM     22  C   UNL A   1      38.772 -21.165 -33.065  0.00  0.00    -0.038 C 
ENDBRANCH  13  20
ENDBRANCH   7  13
ENDBRANCH   3  12
ENDBRANCH   2   5
ENDBRANCH   1   2
BRANCH   1  23
ATOM     23  C   UNL A   1      43.247 -15.663 -39.590  0.00  0.00    -0.052 C 
BRANCH  23  24
ATOM     24  C   UNL A   1      44.763 -15.675 -39.399  0.00  0.00    -0.053 C 
BRANCH  24  25
ATOM     25  C   UNL A   1      45.571 -15.647 -40.699  0.00  0.00    -0.052 C 
BRANCH  25  26
ATOM     26  C   UNL A   1      46.821 -16.534 -40.714  0.00  0.00    -0.037 C 
BRANCH  26  27
ATOM     27  C   UNL A   1      47.113 -17.190 -39.362  0.00  0.00    +0.009 C 
BRANCH  27  28
ATOM     28  N   UNL A   1      47.231 -18.653 -39.482  0.00  0.00    -0.343 N 
ATOM     29  H   UNL A   1      48.041 -19.093 -39.827  0.00  0.00    +0.000 HD
BRANCH  28  30
ATOM     30  C   UNL A   1      46.085 -19.382 -39.060  0.00  0.00    +0.041 A 
ATOM     31  C   UNL A   1      45.811 -19.551 -37.684  0.00  0.00    -0.005 A 
ATOM     32  C   UNL A   1      44.624 -20.203 -37.335  0.00  0.00    +0.047 A 
ATOM     33  N   UNL A   1      43.721 -20.643 -38.242  0.00  0.00    -0.251 NA
ATOM     34  C   UNL A   1      43.991 -20.506 -39.546  0.00  0.00    +0.073 A 
ATOM     35  C   UNL A   1      43.068 -21.002 -40.459  0.00  0.00    -0.036 A 
ATOM     36  C   UNL A   1      43.280 -20.934 -41.836  0.00  0.00    -0.060 A 
ATOM     37  C   UNL A   1      44.447 -20.367 -42.321  0.00  0.00    -0.061 A 
ATOM     38  C   UNL A   1      45.383 -19.858 -41.422  0.00  0.00    -0.051 A 
ATOM     39  C   UNL A   1      45.167 -19.895 -40.021  0.00  0.00    +0.021 A 
ATOM     40  C   UNL A   1      44.222 -20.412 -35.897  0.00  0.00    -0.010 C 
ATOM     41  C   UNL A   1      45.394 -20.350 -34.928  0.00  0.00    -0.047 C 
ATOM     42  C   UNL A   1      46.212 -19.098 -35.199  0.00  0.00    -0.049 C 
ATOM     43  C   UNL A   1      46.792 -19.134 -36.613  0.00  0.00    -0.024 C 
ENDBRANCH  28  30
ENDBRANCH  27  28
ENDBRANCH  26  27
ENDBRANCH  25  26
ENDBRANCH  24  25
ENDBRANCH  23  24
ENDBRANCH   1  23
TORSDOF 12
ENDMDL
MODEL 16
REMARK VINA RESULT:    -6.464      2.148      7.334
REMARK INTER + INTRA:         -15.413
REMARK INTER:                 -10.843
REMARK INTRA:                  -4.571
REMARK UNBOUND:                -4.414
REMARK  Name = cpd24.pdb
REMARK  14 active torsions:
REMARK  status: ('A' for Active; 'I' for Inactive)
REMARK    1  A    between atoms: C_1  and  C_2
REMARK    2  A    between atoms: C_6  and  N_7
REMARK    3  A    between atoms: N_7  and  C_8
REMARK    4  A    between atoms: C_13  and  C_14
REMARK    5  A    between atoms: N_16  and  C_17
REMARK    6  A    between atoms: C_17  and  C_18
REMARK    7  A    between atoms: C_18  and  C_19
REMARK    8  A    between atoms: C_19  and  C_20
REMARK    9  A    between atoms: C_20  and  C_21
REMARK   10  A    between atoms: C_21  and  C_22
REMARK   11  A    between atoms: C_22  and  C_23
REMARK   12  A    between atoms: C_23  and  N_24
REMARK   13  A    between atoms: N_24  and  C_25
REMARK   14  A    between atoms: C_39  and  C_40
REMARK                            x       y       z     vdW  Elec       q    Type
REMARK                         _______ _______ _______ _____ _____    ______ ____
ROOT
ATOM      1  C   UNL A   1      38.237 -19.069 -36.693  0.00  0.00    -0.037 C 
ENDROOT
BRANCH   1   2
ATOM      2  C   UNL A   1      39.240 -17.958 -36.391  0.00  0.00    +0.012 C 
BRANCH   2   5
ATOM      3  C   UNL A   1      41.424 -17.941 -35.236  0.00  0.00    +0.246 C 
ATOM      4  O   UNL A   1      41.162 -16.925 -34.600  0.00  0.00    -0.270 OA
ATOM      5  N   UNL A   1      40.564 -18.500 -36.161  0.00  0.00    -0.311 N 
ATOM      6  H   UNL A   1      40.857 -19.286 -36.676  0.00  0.00    +0.000 HD
BRANCH   3  12
ATOM      7  C   UNL A   1      42.877 -19.624 -34.055  0.00  0.00    +0.044 A 
ATOM      8  C   UNL A   1      44.127 -20.250 -33.929  0.00  0.00    -0.040 A 
ATOM      9  C   UNL A   1      45.198 -19.914 -34.760  0.00  0.00    -0.060 A 
ATOM     10  C   UNL A   1      45.041 -18.943 -35.744  0.00  0.00    -0.061 A 
ATOM     11  C   UNL A   1      43.812 -18.302 -35.894  0.00  0.00    -0.048 A 
ATOM     12  C   UNL A   1      42.735 -18.627 -35.048  0.00  0.00    +0.058 A 
BRANCH   7  13
ATOM     13  N   UNL A   1      41.803 -19.952 -33.199  0.00  0.00    -0.314 N 
ATOM     14  H   UNL A   1      41.814 -19.458 -32.348  0.00  0.00    +0.000 HD
BRANCH  13  20
ATOM     15  C   UNL A   1      36.909 -20.920 -32.767  0.00  0.00    -0.039 C 
ATOM     16  C   UNL A   1      38.318 -21.315 -33.119  0.00  0.00    -0.046 A 
ATOM     17  C   UNL A   1      38.548 -22.615 -33.591  0.00  0.00    -0.058 A 
ATOM     18  C   UNL A   1      39.832 -23.032 -33.923  0.00  0.00    -0.060 A 
ATOM     19  C   UNL A   1      40.904 -22.154 -33.786  0.00  0.00    -0.040 A 
ATOM     20  C   UNL A   1      40.719 -20.845 -33.318  0.00  0.00    +0.035 A 
ATOM     21  C   UNL A   1      39.403 -20.409 -33.009  0.00  0.00    -0.026 A 
ATOM     22  C   UNL A   1      39.178 -18.996 -32.523  0.00  0.00    -0.038 C 
ENDBRANCH  13  20
ENDBRANCH   7  13
ENDBRANCH   3  12
ENDBRANCH   2   5
ENDBRANCH   1   2
BRANCH   1  23
ATOM     23  C   UNL A   1      38.899 -20.449 -36.676  0.00  0.00    -0.052 C 
BRANCH  23  24
ATOM     24  C   UNL A   1      39.147 -20.956 -38.096  0.00  0.00    -0.053 C 
BRANCH  24  25
ATOM     25  C   UNL A   1      40.270 -21.990 -38.217  0.00  0.00    -0.052 C 
BRANCH  25  26
ATOM     26  C   UNL A   1      41.390 -21.868 -37.178  0.00  0.00    -0.037 C 
BRANCH  26  27
ATOM     27  C   UNL A   1      42.655 -21.204 -37.727  0.00  0.00    +0.009 C 
BRANCH  27  28
ATOM     28  N   UNL A   1      42.607 -21.072 -39.194  0.00  0.00    -0.343 N 
ATOM     29  H   UNL A   1      41.990 -21.597 -39.753  0.00  0.00    +0.000 HD
BRANCH  28  30
ATOM     30  C   UNL A   1      43.521 -20.130 -39.739  0.00  0.00    +0.041 A 
ATOM     31  C   UNL A   1      43.211 -18.752 -39.744  0.00  0.00    -0.005 A 
ATOM     32  C   UNL A   1      44.187 -17.869 -40.216  0.00  0.00    +0.047 A 
ATOM     33  N   UNL A   1      45.412 -18.266 -40.631  0.00  0.00    -0.251 NA
ATOM     34  C   UNL A   1      45.699 -19.573 -40.651  0.00  0.00    +0.073 A 
ATOM     35  C   UNL A   1      46.949 -19.960 -41.120  0.00  0.00    -0.036 A 
ATOM     36  C   UNL A   1      47.324 -21.301 -41.209  0.00  0.00    -0.060 A 
ATOM     37  C   UNL A   1      46.427 -22.287 -40.831  0.00  0.00    -0.061 A 
ATOM     38  C   UNL A   1      45.170 -21.920 -40.352  0.00  0.00    -0.051 A 
ATOM     39  C   UNL A   1      44.788 -20.560 -40.230  0.00  0.00    +0.021 A 
ATOM     40  C   UNL A   1      43.970 -16.377 -40.239  0.00  0.00    -0.010 C 
ATOM     41  C   UNL A   1      42.500 -15.982 -40.223  0.00  0.00    -0.047 C 
ATOM     42  C   UNL A   1      41.785 -16.726 -39.107  0.00  0.00    -0.049 C 
ATOM     43  C   UNL A   1      41.848 -18.235 -39.345  0.00  0.00    -0.024 C 
ENDBRANCH  28  30
ENDBRANCH  27  28
ENDBRANCH  26  27
ENDBRANCH  25  26
ENDBRANCH  24  25
ENDBRANCH  23  24
ENDBRANCH   1  23
TORSDOF 12
ENDMDL
MODEL 17
REMARK VINA RESULT:    -6.431      2.227      4.110
REMARK INTER + INTRA:         -15.357
REMARK INTER:                 -10.113
REMARK INTRA:                  -5.244
REMARK UNBOUND:                -4.414
REMARK  Name = cpd24.pdb
REMARK  14 active torsions:
REMARK  status: ('A' for Active; 'I' for Inactive)
REMARK    1  A    between atoms: C_1  and  C_2
REMARK    2  A    between atoms: C_6  and  N_7
REMARK    3  A    between atoms: N_7  and  C_8
REMARK    4  A    between atoms: C_13  and  C_14
REMARK    5  A    between atoms: N_16  and  C_17
REMARK    6  A    between atoms: C_17  and  C_18
REMARK    7  A    between atoms: C_18  and  C_19
REMARK    8  A    between atoms: C_19  and  C_20
REMARK    9  A    between atoms: C_20  and  C_21
REMARK   10  A    between atoms: C_21  and  C_22
REMARK   11  A    between atoms: C_22  and  C_23
REMARK   12  A    between atoms: C_23  and  N_24
REMARK   13  A    between atoms: N_24  and  C_25
REMARK   14  A    between atoms: C_39  and  C_40
REMARK                            x       y       z     vdW  Elec       q    Type
REMARK                         _______ _______ _______ _____ _____    ______ ____
ROOT
ATOM      1  C   UNL A   1      46.394 -12.695 -36.778  0.00  0.00    -0.037 C 
ENDROOT
BRANCH   1   2
ATOM      2  C   UNL A   1      46.706 -13.744 -37.843  0.00  0.00    +0.012 C 
BRANCH   2   5
ATOM      3  C   UNL A   1      47.197 -16.165 -37.877  0.00  0.00    +0.246 C 
ATOM      4  O   UNL A   1      47.890 -16.083 -38.887  0.00  0.00    -0.270 OA
ATOM      5  N   UNL A   1      46.548 -15.084 -37.314  0.00  0.00    -0.311 N 
ATOM      6  H   UNL A   1      45.963 -15.227 -36.535  0.00  0.00    +0.000 HD
BRANCH   3  12
ATOM      7  C   UNL A   1      46.949 -18.668 -37.976  0.00  0.00    +0.044 A 
ATOM      8  C   UNL A   1      46.778 -19.883 -37.296  0.00  0.00    -0.040 A 
ATOM      9  C   UNL A   1      46.671 -19.932 -35.904  0.00  0.00    -0.060 A 
ATOM     10  C   UNL A   1      46.739 -18.760 -35.157  0.00  0.00    -0.061 A 
ATOM     11  C   UNL A   1      46.909 -17.537 -35.803  0.00  0.00    -0.048 A 
ATOM     12  C   UNL A   1      47.000 -17.482 -37.206  0.00  0.00    +0.058 A 
BRANCH   7  13
ATOM     13  N   UNL A   1      47.036 -18.622 -39.385  0.00  0.00    -0.314 N 
ATOM     14  H   UNL A   1      47.924 -18.355 -39.715  0.00  0.00    +0.000 HD
BRANCH  13  20
ATOM     15  C   UNL A   1      45.040 -21.759 -42.739  0.00  0.00    -0.039 C 
ATOM     16  C   UNL A   1      45.120 -20.424 -42.047  0.00  0.00    -0.046 A 
ATOM     17  C   UNL A   1      44.228 -19.415 -42.439  0.00  0.00    -0.058 A 
ATOM     18  C   UNL A   1      44.265 -18.163 -41.836  0.00  0.00    -0.060 A 
ATOM     19  C   UNL A   1      45.197 -17.903 -40.835  0.00  0.00    -0.040 A 
ATOM     20  C   UNL A   1      46.107 -18.883 -40.412  0.00  0.00    +0.035 A 
ATOM     21  C   UNL A   1      46.048 -20.171 -41.005  0.00  0.00    -0.026 A 
ATOM     22  C   UNL A   1      47.005 -21.249 -40.551  0.00  0.00    -0.038 C 
ENDBRANCH  13  20
ENDBRANCH   7  13
ENDBRANCH   3  12
ENDBRANCH   2   5
ENDBRANCH   1   2
BRANCH   1  23
ATOM     23  C   UNL A   1      45.080 -12.996 -36.054  0.00  0.00    -0.052 C 
BRANCH  23  24
ATOM     24  C   UNL A   1      43.879 -12.674 -36.942  0.00  0.00    -0.053 C 
BRANCH  24  25
ATOM     25  C   UNL A   1      42.811 -13.770 -36.993  0.00  0.00    -0.052 C 
BRANCH  25  26
ATOM     26  C   UNL A   1      42.780 -14.595 -38.285  0.00  0.00    -0.037 C 
BRANCH  26  27
ATOM     27  C   UNL A   1      42.344 -16.046 -38.066  0.00  0.00    +0.009 C 
BRANCH  27  28
ATOM     28  N   UNL A   1      43.496 -16.929 -37.821  0.00  0.00    -0.343 N 
ATOM     29  H   UNL A   1      44.373 -16.786 -38.244  0.00  0.00    +0.000 HD
BRANCH  28  30
ATOM     30  C   UNL A   1      43.245 -18.006 -36.927  0.00  0.00    +0.041 A 
ATOM     31  C   UNL A   1      43.308 -17.806 -35.530  0.00  0.00    -0.005 A 
ATOM     32  C   UNL A   1      42.967 -18.882 -34.705  0.00  0.00    +0.047 A 
ATOM     33  N   UNL A   1      42.552 -20.081 -35.177  0.00  0.00    -0.251 NA
ATOM     34  C   UNL A   1      42.516 -20.280 -36.500  0.00  0.00    +0.073 A 
ATOM     35  C   UNL A   1      42.125 -21.532 -36.961  0.00  0.00    -0.036 A 
ATOM     36  C   UNL A   1      42.090 -21.842 -38.321  0.00  0.00    -0.060 A 
ATOM     37  C   UNL A   1      42.464 -20.884 -39.250  0.00  0.00    -0.061 A 
ATOM     38  C   UNL A   1      42.853 -19.620 -38.808  0.00  0.00    -0.051 A 
ATOM     39  C   UNL A   1      42.865 -19.284 -37.431  0.00  0.00    +0.021 A 
ATOM     40  C   UNL A   1      42.974 -18.768 -33.202  0.00  0.00    -0.010 C 
ATOM     41  C   UNL A   1      43.850 -17.635 -32.687  0.00  0.00    -0.047 C 
ATOM     42  C   UNL A   1      43.517 -16.355 -33.435  0.00  0.00    -0.049 C 
ATOM     43  C   UNL A   1      43.810 -16.515 -34.926  0.00  0.00    -0.024 C 
ENDBRANCH  28  30
ENDBRANCH  27  28
ENDBRANCH  26  27
ENDBRANCH  25  26
ENDBRANCH  24  25
ENDBRANCH  23  24
ENDBRANCH   1  23
TORSDOF 12
ENDMDL
MODEL 18
REMARK VINA RESULT:    -6.378      2.327      5.461
REMARK INTER + INTRA:         -15.266
REMARK INTER:                 -10.661
REMARK INTRA:                  -4.605
REMARK UNBOUND:                -4.414
REMARK  Name = cpd24.pdb
REMARK  14 active torsions:
REMARK  status: ('A' for Active; 'I' for Inactive)
REMARK    1  A    between atoms: C_1  and  C_2
REMARK    2  A    between atoms: C_6  and  N_7
REMARK    3  A    between atoms: N_7  and  C_8
REMARK    4  A    between atoms: C_13  and  C_14
REMARK    5  A    between atoms: N_16  and  C_17
REMARK    6  A    between atoms: C_17  and  C_18
REMARK    7  A    between atoms: C_18  and  C_19
REMARK    8  A    between atoms: C_19  and  C_20
REMARK    9  A    between atoms: C_20  and  C_21
REMARK   10  A    between atoms: C_21  and  C_22
REMARK   11  A    between atoms: C_22  and  C_23
REMARK   12  A    between atoms: C_23  and  N_24
REMARK   13  A    between atoms: N_24  and  C_25
REMARK   14  A    between atoms: C_39  and  C_40
REMARK                            x       y       z     vdW  Elec       q    Type
REMARK                         _______ _______ _______ _____ _____    ______ ____
ROOT
ATOM      1  C   UNL A   1      46.652 -17.284 -37.025  0.00  0.00    -0.037 C 
ENDROOT
BRANCH   1   2
ATOM      2  C   UNL A   1      47.149 -17.196 -38.466  0.00  0.00    +0.012 C 
BRANCH   2   5
ATOM      3  C   UNL A   1      45.913 -18.402 -40.233  0.00  0.00    +0.246 C 
ATOM      4  O   UNL A   1      45.265 -17.411 -40.557  0.00  0.00    -0.270 OA
ATOM      5  N   UNL A   1      46.830 -18.404 -39.200  0.00  0.00    -0.311 N 
ATOM      6  H   UNL A   1      47.277 -19.246 -38.957  0.00  0.00    +0.000 HD
BRANCH   3  12
ATOM      7  C   UNL A   1      44.424 -20.263 -41.041  0.00  0.00    +0.044 A 
ATOM      8  C   UNL A   1      44.288 -21.473 -41.739  0.00  0.00    -0.040 A 
ATOM      9  C   UNL A   1      45.385 -22.098 -42.336  0.00  0.00    -0.060 A 
ATOM     10  C   UNL A   1      46.648 -21.521 -42.252  0.00  0.00    -0.061 A 
ATOM     11  C   UNL A   1      46.816 -20.319 -41.566  0.00  0.00    -0.048 A 
ATOM     12  C   UNL A   1      45.716 -19.695 -40.950  0.00  0.00    +0.058 A 
BRANCH   7  13
ATOM     13  N   UNL A   1      43.315 -19.646 -40.422  0.00  0.00    -0.314 N 
ATOM     14  H   UNL A   1      42.946 -18.892 -40.937  0.00  0.00    +0.000 HD
BRANCH  13  20
ATOM     15  C   UNL A   1      40.346 -18.060 -36.714  0.00  0.00    -0.039 C 
ATOM     16  C   UNL A   1      41.163 -19.120 -37.405  0.00  0.00    -0.046 A 
ATOM     17  C   UNL A   1      41.229 -20.395 -36.827  0.00  0.00    -0.058 A 
ATOM     18  C   UNL A   1      41.974 -21.406 -37.422  0.00  0.00    -0.060 A 
ATOM     19  C   UNL A   1      42.667 -21.153 -38.603  0.00  0.00    -0.040 A 
ATOM     20  C   UNL A   1      42.629 -19.893 -39.216  0.00  0.00    +0.035 A 
ATOM     21  C   UNL A   1      41.841 -18.869 -38.625  0.00  0.00    -0.026 A 
ATOM     22  C   UNL A   1      41.768 -17.509 -39.279  0.00  0.00    -0.038 C 
ENDBRANCH  13  20
ENDBRANCH   7  13
ENDBRANCH   3  12
ENDBRANCH   2   5
ENDBRANCH   1   2
BRANCH   1  23
ATOM     23  C   UNL A   1      45.251 -16.688 -36.871  0.00  0.00    -0.052 C 
BRANCH  23  24
ATOM     24  C   UNL A   1      44.309 -17.673 -36.180  0.00  0.00    -0.053 C 
BRANCH  24  25
ATOM     25  C   UNL A   1      44.734 -19.140 -36.281  0.00  0.00    -0.052 C 
BRANCH  25  26
ATOM     26  C   UNL A   1      45.176 -19.787 -34.963  0.00  0.00    -0.037 C 
BRANCH  26  27
ATOM     27  C   UNL A   1      45.332 -18.782 -33.819  0.00  0.00    +0.009 C 
BRANCH  27  28
ATOM     28  N   UNL A   1      44.387 -19.056 -32.722  0.00  0.00    -0.343 N 
ATOM     29  H   UNL A   1      44.610 -19.646 -31.966  0.00  0.00    +0.000 HD
BRANCH  28  30
ATOM     30  C   UNL A   1      43.129 -18.404 -32.840  0.00  0.00    +0.041 A 
ATOM     31  C   UNL A   1      41.941 -19.158 -32.970  0.00  0.00    -0.005 A 
ATOM     32  C   UNL A   1      40.730 -18.460 -32.995  0.00  0.00    +0.047 A 
ATOM     33  N   UNL A   1      40.642 -17.115 -32.867  0.00  0.00    -0.251 NA
ATOM     34  C   UNL A   1      41.768 -16.397 -32.770  0.00  0.00    +0.073 A 
ATOM     35  C   UNL A   1      41.655 -15.015 -32.681  0.00  0.00    -0.036 A 
ATOM     36  C   UNL A   1      42.773 -14.184 -32.610  0.00  0.00    -0.060 A 
ATOM     37  C   UNL A   1      44.041 -14.741 -32.638  0.00  0.00    -0.061 A 
ATOM     38  C   UNL A   1      44.176 -16.126 -32.721  0.00  0.00    -0.051 A 
ATOM     39  C   UNL A   1      43.048 -16.983 -32.764  0.00  0.00    +0.021 A 
ATOM     40  C   UNL A   1      39.403 -19.167 -33.103  0.00  0.00    -0.010 C 
ATOM     41  C   UNL A   1      39.513 -20.566 -33.694  0.00  0.00    -0.047 C 
ATOM     42  C   UNL A   1      40.606 -21.339 -32.975  0.00  0.00    -0.049 C 
ATOM     43  C   UNL A   1      41.960 -20.656 -33.168  0.00  0.00    -0.024 C 
ENDBRANCH  28  30
ENDBRANCH  27  28
ENDBRANCH  26  27
ENDBRANCH  25  26
ENDBRANCH  24  25
ENDBRANCH  23  24
ENDBRANCH   1  23
TORSDOF 12
ENDMDL
MODEL 19
REMARK VINA RESULT:    -6.253      1.897      4.608
REMARK INTER + INTRA:         -15.053
REMARK INTER:                  -9.936
REMARK INTRA:                  -5.117
REMARK UNBOUND:                -4.414
REMARK  Name = cpd24.pdb
REMARK  14 active torsions:
REMARK  status: ('A' for Active; 'I' for Inactive)
REMARK    1  A    between atoms: C_1  and  C_2
REMARK    2  A    between atoms: C_6  and  N_7
REMARK    3  A    between atoms: N_7  and  C_8
REMARK    4  A    between atoms: C_13  and  C_14
REMARK    5  A    between atoms: N_16  and  C_17
REMARK    6  A    between atoms: C_17  and  C_18
REMARK    7  A    between atoms: C_18  and  C_19
REMARK    8  A    between atoms: C_19  and  C_20
REMARK    9  A    between atoms: C_20  and  C_21
REMARK   10  A    between atoms: C_21  and  C_22
REMARK   11  A    between atoms: C_22  and  C_23
REMARK   12  A    between atoms: C_23  and  N_24
REMARK   13  A    between atoms: N_24  and  C_25
REMARK   14  A    between atoms: C_39  and  C_40
REMARK                            x       y       z     vdW  Elec       q    Type
REMARK                         _______ _______ _______ _____ _____    ______ ____
ROOT
ATOM      1  C   UNL A   1      42.635 -19.909 -34.536  0.00  0.00    -0.037 C 
ENDROOT
BRANCH   1   2
ATOM      2  C   UNL A   1      44.043 -19.439 -34.896  0.00  0.00    +0.012 C 
BRANCH   2   5
ATOM      3  C   UNL A   1      45.486 -19.285 -36.895  0.00  0.00    +0.246 C 
ATOM      4  O   UNL A   1      46.201 -18.417 -36.402  0.00  0.00    -0.270 OA
ATOM      5  N   UNL A   1      44.387 -19.819 -36.251  0.00  0.00    -0.311 N 
ATOM      6  H   UNL A   1      43.824 -20.473 -36.725  0.00  0.00    +0.000 HD
BRANCH   3  12
ATOM      7  C   UNL A   1      45.708 -18.926 -39.376  0.00  0.00    +0.044 A 
ATOM      8  C   UNL A   1      45.998 -19.456 -40.643  0.00  0.00    -0.040 A 
ATOM      9  C   UNL A   1      46.347 -20.799 -40.810  0.00  0.00    -0.060 A 
ATOM     10  C   UNL A   1      46.418 -21.644 -39.708  0.00  0.00    -0.061 A 
ATOM     11  C   UNL A   1      46.136 -21.148 -38.436  0.00  0.00    -0.048 A 
ATOM     12  C   UNL A   1      45.769 -19.800 -38.266  0.00  0.00    +0.058 A 
BRANCH   7  13
ATOM     13  N   UNL A   1      45.336 -17.574 -39.216  0.00  0.00    -0.314 N 
ATOM     14  H   UNL A   1      45.904 -17.083 -38.578  0.00  0.00    +0.000 HD
BRANCH  13  20
ATOM     15  C   UNL A   1      41.045 -15.034 -38.752  0.00  0.00    -0.039 C 
ATOM     16  C   UNL A   1      42.219 -15.529 -39.554  0.00  0.00    -0.046 A 
ATOM     17  C   UNL A   1      42.297 -15.179 -40.909  0.00  0.00    -0.058 A 
ATOM     18  C   UNL A   1      43.357 -15.615 -41.695  0.00  0.00    -0.060 A 
ATOM     19  C   UNL A   1      44.353 -16.411 -41.135  0.00  0.00    -0.040 A 
ATOM     20  C   UNL A   1      44.315 -16.785 -39.784  0.00  0.00    +0.035 A 
ATOM     21  C   UNL A   1      43.249 -16.312 -38.974  0.00  0.00    -0.026 A 
ATOM     22  C   UNL A   1      43.199 -16.685 -37.510  0.00  0.00    -0.038 C 
ENDBRANCH  13  20
ENDBRANCH   7  13
ENDBRANCH   3  12
ENDBRANCH   2   5
ENDBRANCH   1   2
BRANCH   1  23
ATOM     23  C   UNL A   1      42.294 -19.608 -33.075  0.00  0.00    -0.052 C 
BRANCH  23  24
ATOM     24  C   UNL A   1      40.982 -18.830 -32.968  0.00  0.00    -0.053 C 
BRANCH  24  25
ATOM     25  C   UNL A   1      40.928 -17.551 -33.809  0.00  0.00    -0.052 C 
BRANCH  25  26
ATOM     26  C   UNL A   1      39.654 -17.366 -34.640  0.00  0.00    -0.037 C 
BRANCH  26  27
ATOM     27  C   UNL A   1      39.876 -17.570 -36.141  0.00  0.00    +0.009 C 
BRANCH  27  28
ATOM     28  N   UNL A   1      39.000 -18.623 -36.682  0.00  0.00    -0.343 N 
ATOM     29  H   UNL A   1      38.098 -18.437 -37.027  0.00  0.00    +0.000 HD
BRANCH  28  30
ATOM     30  C   UNL A   1      39.559 -19.930 -36.667  0.00  0.00    +0.041 A 
ATOM     31  C   UNL A   1      40.548 -20.297 -37.607  0.00  0.00    -0.005 A 
ATOM     32  C   UNL A   1      41.119 -21.568 -37.486  0.00  0.00    +0.047 A 
ATOM     33  N   UNL A   1      40.797 -22.438 -36.500  0.00  0.00    -0.251 NA
ATOM     34  C   UNL A   1      39.843 -22.102 -35.623  0.00  0.00    +0.073 A 
ATOM     35  C   UNL A   1      39.501 -23.028 -34.645  0.00  0.00    -0.036 A 
ATOM     36  C   UNL A   1      38.496 -22.779 -33.709  0.00  0.00    -0.060 A 
ATOM     37  C   UNL A   1      37.803 -21.580 -33.754  0.00  0.00    -0.061 A 
ATOM     38  C   UNL A   1      38.135 -20.635 -34.724  0.00  0.00    -0.051 A 
ATOM     39  C   UNL A   1      39.174 -20.864 -35.661  0.00  0.00    +0.021 A 
ATOM     40  C   UNL A   1      42.200 -22.050 -38.419  0.00  0.00    -0.010 C 
ATOM     41  C   UNL A   1      42.227 -21.304 -39.746  0.00  0.00    -0.047 C 
ATOM     42  C   UNL A   1      42.210 -19.806 -39.488  0.00  0.00    -0.049 C 
ATOM     43  C   UNL A   1      40.924 -19.403 -38.766  0.00  0.00    -0.024 C 
ENDBRANCH  28  30
ENDBRANCH  27  28
ENDBRANCH  26  27
ENDBRANCH  25  26
ENDBRANCH  24  25
ENDBRANCH  23  24
ENDBRANCH   1  23
TORSDOF 12
ENDMDL
MODEL 20
REMARK VINA RESULT:    -6.016      2.440      5.851
REMARK INTER + INTRA:         -14.651
REMARK INTER:                  -9.295
REMARK INTRA:                  -5.356
REMARK UNBOUND:                -4.414
REMARK  Name = cpd24.pdb
REMARK  14 active torsions:
REMARK  status: ('A' for Active; 'I' for Inactive)
REMARK    1  A    between atoms: C_1  and  C_2
REMARK    2  A    between atoms: C_6  and  N_7
REMARK    3  A    between atoms: N_7  and  C_8
REMARK    4  A    between atoms: C_13  and  C_14
REMARK    5  A    between atoms: N_16  and  C_17
REMARK    6  A    between atoms: C_17  and  C_18
REMARK    7  A    between atoms: C_18  and  C_19
REMARK    8  A    between atoms: C_19  and  C_20
REMARK    9  A    between atoms: C_20  and  C_21
REMARK   10  A    between atoms: C_21  and  C_22
REMARK   11  A    between atoms: C_22  and  C_23
REMARK   12  A    between atoms: C_23  and  N_24
REMARK   13  A    between atoms: N_24  and  C_25
REMARK   14  A    between atoms: C_39  and  C_40
REMARK                            x       y       z     vdW  Elec       q    Type
REMARK                         _______ _______ _______ _____ _____    ______ ____
ROOT
ATOM      1  C   UNL A   1      41.124 -19.325 -33.375  0.00  0.00    -0.037 C 
ENDROOT
BRANCH   1   2
ATOM      2  C   UNL A   1      42.443 -18.846 -32.773  0.00  0.00    +0.012 C 
BRANCH   2   5
ATOM      3  C   UNL A   1      43.957 -16.907 -33.000  0.00  0.00    +0.246 C 
ATOM      4  O   UNL A   1      44.924 -17.517 -32.556  0.00  0.00    -0.270 OA
ATOM      5  N   UNL A   1      42.696 -17.459 -33.110  0.00  0.00    -0.311 N 
ATOM      6  H   UNL A   1      41.951 -16.898 -33.424  0.00  0.00    +0.000 HD
BRANCH   3  12
ATOM      7  C   UNL A   1      44.323 -15.181 -34.796  0.00  0.00    +0.044 A 
ATOM      8  C   UNL A   1      44.435 -13.829 -35.155  0.00  0.00    -0.040 A 
ATOM      9  C   UNL A   1      44.320 -12.810 -34.206  0.00  0.00    -0.060 A 
ATOM     10  C   UNL A   1      44.084 -13.123 -32.871  0.00  0.00    -0.061 A 
ATOM     11  C   UNL A   1      43.967 -14.457 -32.483  0.00  0.00    -0.048 A 
ATOM     12  C   UNL A   1      44.100 -15.486 -33.433  0.00  0.00    +0.058 A 
BRANCH   7  13
ATOM     13  N   UNL A   1      44.462 -16.208 -35.756  0.00  0.00    -0.314 N 
ATOM     14  H   UNL A   1      43.938 -17.015 -35.546  0.00  0.00    +0.000 HD
BRANCH  13  20
ATOM     15  C   UNL A   1      44.601 -16.633 -40.743  0.00  0.00    -0.039 C 
ATOM     16  C   UNL A   1      45.266 -16.504 -39.399  0.00  0.00    -0.046 A 
ATOM     17  C   UNL A   1      46.667 -16.475 -39.348  0.00  0.00    -0.058 A 
ATOM     18  C   UNL A   1      47.330 -16.365 -38.131  0.00  0.00    -0.060 A 
ATOM     19  C   UNL A   1      46.600 -16.285 -36.948  0.00  0.00    -0.040 A 
ATOM     20  C   UNL A   1      45.198 -16.309 -36.954  0.00  0.00    +0.035 A 
ATOM     21  C   UNL A   1      44.520 -16.390 -38.199  0.00  0.00    -0.026 A 
ATOM     22  C   UNL A   1      43.010 -16.397 -38.229  0.00  0.00    -0.038 C 
ENDBRANCH  13  20
ENDBRANCH   7  13
ENDBRANCH   3  12
ENDBRANCH   2   5
ENDBRANCH   1   2
BRANCH   1  23
ATOM     23  C   UNL A   1      40.996 -18.925 -34.847  0.00  0.00    -0.052 C 
BRANCH  23  24
ATOM     24  C   UNL A   1      39.818 -19.641 -35.508  0.00  0.00    -0.053 C 
BRANCH  24  25
ATOM     25  C   UNL A   1      40.057 -20.050 -36.964  0.00  0.00    -0.052 C 
BRANCH  25  26
ATOM     26  C   UNL A   1      40.586 -21.474 -37.167  0.00  0.00    -0.037 C 
BRANCH  26  27
ATOM     27  C   UNL A   1      41.960 -21.518 -37.842  0.00  0.00    +0.009 C 
BRANCH  27  28
ATOM     28  N   UNL A   1      42.448 -20.168 -38.170  0.00  0.00    -0.343 N 
ATOM     29  H   UNL A   1      41.851 -19.388 -38.226  0.00  0.00    +0.000 HD
BRANCH  28  30
ATOM     30  C   UNL A   1      43.849 -20.078 -38.398  0.00  0.00    +0.041 A 
ATOM     31  C   UNL A   1      44.747 -19.990 -37.311  0.00  0.00    -0.005 A 
ATOM     32  C   UNL A   1      46.116 -19.991 -37.600  0.00  0.00    +0.047 A 
ATOM     33  N   UNL A   1      46.613 -20.106 -38.853  0.00  0.00    -0.251 NA
ATOM     34  C   UNL A   1      45.763 -20.165 -39.886  0.00  0.00    +0.073 A 
ATOM     35  C   UNL A   1      46.297 -20.242 -41.167  0.00  0.00    -0.036 A 
ATOM     36  C   UNL A   1      45.490 -20.274 -42.304  0.00  0.00    -0.060 A 
ATOM     37  C   UNL A   1      44.112 -20.217 -42.166  0.00  0.00    -0.061 A 
ATOM     38  C   UNL A   1      43.557 -20.145 -40.890  0.00  0.00    -0.051 A 
ATOM     39  C   UNL A   1      44.365 -20.141 -39.725  0.00  0.00    +0.021 A 
ATOM     40  C   UNL A   1      47.160 -19.927 -36.514  0.00  0.00    -0.010 C 
ATOM     41  C   UNL A   1      46.636 -19.347 -35.208  0.00  0.00    -0.047 C 
ATOM     42  C   UNL A   1      45.341 -20.045 -34.825  0.00  0.00    -0.049 C 
ATOM     43  C   UNL A   1      44.270 -19.806 -35.889  0.00  0.00    -0.024 C 
ENDBRANCH  28  30
ENDBRANCH  27  28
ENDBRANCH  26  27
ENDBRANCH  25  26
ENDBRANCH  24  25
ENDBRANCH  23  24
ENDBRANCH   1  23
TORSDOF 12
ENDMDL
