MODEL 1
REMARK VINA RESULT:    -6.930      0.000      0.000
REMARK INTER + INTRA:         -14.220
REMARK INTER:                 -12.398
REMARK INTRA:                  -1.821
REMARK UNBOUND:                -1.821
REMARK  Name = cpd290.pdb
REMARK  18 active torsions:
REMARK  status: ('A' for Active; 'I' for Inactive)
REMARK    1  A    between atoms: C_1  and  C_2
REMARK    2  A    between atoms: C_2  and  C_3
REMARK    3  A    between atoms: C_2  and  C_20
REMARK    4  A    between atoms: C_3  and  C_4
REMARK    5  A    between atoms: C_4  and  C_5
REMARK    6  A    between atoms: C_6  and  C_7
REMARK    7  A    between atoms: C_7  and  O_8
REMARK    8  A    between atoms: C_12  and  C_13
REMARK    9  A    between atoms: C_12  and  C_14
REMARK   10  A    between atoms: C_18  and  C_19
REMARK   11  A    between atoms: C_20  and  C_21
REMARK   12  A    between atoms: C_21  and  O_23
REMARK   13  A    between atoms: O_23  and  C_24
REMARK   14  A    between atoms: C_24  and  C_25
REMARK   15  A    between atoms: C_25  and  C_26
REMARK   16  A    between atoms: C_26  and  C_27
REMARK   17  A    between atoms: C_27  and  C_28
REMARK   18  A    between atoms: C_28  and  N_29
REMARK                            x       y       z     vdW  Elec       q    Type
REMARK                         _______ _______ _______ _____ _____    ______ ____
ROOT
ATOM      1  C   UNL     1      34.137 -36.197 -30.102  0.00  0.00    -0.062 C 
ATOM      2  C   UNL     1      34.979 -35.015 -30.600  0.00  0.00    -0.034 C 
ENDROOT
BRANCH   2   3
ATOM      3  C   UNL     1      36.239 -35.475 -31.361  0.00  0.00    -0.049 C 
BRANCH   3   4
ATOM      4  C   UNL     1      37.505 -35.683 -30.498  0.00  0.00    -0.046 C 
BRANCH   4   5
ATOM      5  C   UNL     1      38.378 -36.950 -30.920  0.00  0.00    -0.012 C 
ATOM      6  C   UNL     1      38.194 -37.949 -29.771  0.00  0.00    -0.045 C 
ATOM      7  C   UNL     1      39.238 -38.120 -28.962  0.00  0.00    -0.082 C 
ATOM      8  C   UNL     1      40.510 -37.477 -29.367  0.00  0.00    -0.031 C 
ATOM      9  C   UNL     1      40.563 -37.243 -30.957  0.00  0.00    -0.027 C 
ATOM     10  C   UNL     1      42.176 -37.439 -31.463  0.00  0.00    -0.031 C 
ATOM     11  C   UNL     1      42.216 -38.037 -32.902  0.00  0.00    -0.060 C 
ATOM     12  C   UNL     1      43.016 -38.408 -30.597  0.00  0.00    -0.060 C 
ATOM     13  C   UNL     1      42.897 -36.072 -31.496  0.00  0.00    -0.048 C 
ATOM     14  C   UNL     1      42.252 -35.163 -30.479  0.00  0.00    -0.052 C 
ATOM     15  C   UNL     1      40.735 -35.153 -30.736  0.00  0.00    -0.047 C 
ATOM     16  C   UNL     1      40.108 -36.624 -31.597  0.00  0.00    -0.022 C 
ATOM     17  C   UNL     1      39.653 -36.005 -32.237  0.00  0.00    -0.059 C 
BRANCH   6  18
ATOM     18  C   UNL     1      36.853 -38.613 -29.594  0.00  0.00    +0.066 C 
BRANCH  18  19
ATOM     19  O   UNL     1      36.283 -38.305 -28.329  0.00  0.00    -0.391 OA
ATOM     20  H   UNL     1      35.891 -37.418 -28.359  0.00  0.00    +0.000 HD
ENDBRANCH  18  19
ENDBRANCH   6  18
ENDBRANCH   4   5
ENDBRANCH   3   4
ENDBRANCH   2   3
BRANCH   2  21
ATOM     21  C   UNL     1      34.136 -34.047 -31.450  0.00  0.00    +0.048 C 
BRANCH  21  22
ATOM     22  C   UNL     1      34.433 -32.587 -31.198  0.00  0.00    +0.307 C 
ATOM     23  O   UNL     1      35.171 -31.903 -31.892  0.00  0.00    -0.251 OA
BRANCH  22  24
ATOM     24  O   UNL     1      33.737 -32.164 -30.110  0.00  0.00    -0.465 OA
BRANCH  24  25
ATOM     25  C   UNL     1      32.335 -32.461 -30.057  0.00  0.00    +0.092 C 
BRANCH  25  26
ATOM     26  C   UNL     1      32.037 -33.175 -28.743  0.00  0.00    -0.018 C 
BRANCH  26  27
ATOM     27  C   UNL     1      30.870 -34.166 -28.866  0.00  0.00    -0.049 C 
BRANCH  27  28
ATOM     28  C   UNL     1      30.723 -34.721 -30.286  0.00  0.00    -0.040 C 
BRANCH  28  29
ATOM     29  C   UNL     1      29.329 -34.484 -30.891  0.00  0.00    -0.001 C 
BRANCH  29  30
ATOM     30  N   UNL     1      29.025 -35.429 -31.975  0.00  0.00    -0.298 N 
ATOM     31  C   UNL     1      30.203 -36.277 -32.266  0.00  0.00    +0.022 C 
ATOM     32  C   UNL     1      29.939 -37.220 -33.450  0.00  0.00    +0.060 C 
ATOM     33  O   UNL     1      29.591 -36.485 -34.631  0.00  0.00    -0.377 OA
ATOM     34  C   UNL     1      28.422 -35.693 -34.385  0.00  0.00    +0.060 C 
ATOM     35  C   UNL     1      28.648 -34.717 -33.220  0.00  0.00    +0.022 C 
ATOM     36  H   UNL     1      28.243 -36.005 -31.663  0.00  0.00    +0.000 HD
ENDBRANCH  29  30
ENDBRANCH  28  29
ENDBRANCH  27  28
ENDBRANCH  26  27
ENDBRANCH  25  26
ENDBRANCH  24  25
ENDBRANCH  22  24
ENDBRANCH  21  22
ENDBRANCH   2  21
TORSDOF 14
ENDMDL
MODEL 2
REMARK VINA RESULT:    -6.698      2.405      3.953
REMARK INTER + INTRA:         -13.805
REMARK INTER:                 -11.456
REMARK INTRA:                  -2.349
REMARK UNBOUND:                -1.821
REMARK  Name = cpd290.pdb
REMARK  18 active torsions:
REMARK  status: ('A' for Active; 'I' for Inactive)
REMARK    1  A    between atoms: C_1  and  C_2
REMARK    2  A    between atoms: C_2  and  C_3
REMARK    3  A    between atoms: C_2  and  C_20
REMARK    4  A    between atoms: C_3  and  C_4
REMARK    5  A    between atoms: C_4  and  C_5
REMARK    6  A    between atoms: C_6  and  C_7
REMARK    7  A    between atoms: C_7  and  O_8
REMARK    8  A    between atoms: C_12  and  C_13
REMARK    9  A    between atoms: C_12  and  C_14
REMARK   10  A    between atoms: C_18  and  C_19
REMARK   11  A    between atoms: C_20  and  C_21
REMARK   12  A    between atoms: C_21  and  O_23
REMARK   13  A    between atoms: O_23  and  C_24
REMARK   14  A    between atoms: C_24  and  C_25
REMARK   15  A    between atoms: C_25  and  C_26
REMARK   16  A    between atoms: C_26  and  C_27
REMARK   17  A    between atoms: C_27  and  C_28
REMARK   18  A    between atoms: C_28  and  N_29
REMARK                            x       y       z     vdW  Elec       q    Type
REMARK                         _______ _______ _______ _____ _____    ______ ____
ROOT
ATOM      1  C   UNL     1      35.768 -33.574 -30.792  0.00  0.00    -0.062 C 
ATOM      2  C   UNL     1      34.867 -34.808 -30.923  0.00  0.00    -0.034 C 
ENDROOT
BRANCH   2   3
ATOM      3  C   UNL     1      35.463 -36.045 -30.220  0.00  0.00    -0.049 C 
BRANCH   3   4
ATOM      4  C   UNL     1      36.960 -35.948 -29.846  0.00  0.00    -0.046 C 
BRANCH   4   5
ATOM      5  C   UNL     1      37.894 -36.981 -30.624  0.00  0.00    -0.012 C 
ATOM      6  C   UNL     1      38.323 -37.996 -29.558  0.00  0.00    -0.045 C 
ATOM      7  C   UNL     1      39.588 -37.923 -29.147  0.00  0.00    -0.082 C 
ATOM      8  C   UNL     1      40.482 -37.008 -29.894  0.00  0.00    -0.031 C 
ATOM      9  C   UNL     1      39.949 -36.767 -31.392  0.00  0.00    -0.027 C 
ATOM     10  C   UNL     1      41.303 -36.590 -32.407  0.00  0.00    -0.031 C 
ATOM     11  C   UNL     1      40.988 -37.163 -33.823  0.00  0.00    -0.060 C 
ATOM     12  C   UNL     1      42.571 -37.341 -31.938  0.00  0.00    -0.060 C 
ATOM     13  C   UNL     1      41.659 -35.094 -32.569  0.00  0.00    -0.048 C 
ATOM     14  C   UNL     1      41.211 -34.356 -31.331  0.00  0.00    -0.052 C 
ATOM     15  C   UNL     1      39.731 -34.693 -31.080  0.00  0.00    -0.047 C 
ATOM     16  C   UNL     1      39.185 -36.269 -31.800  0.00  0.00    -0.022 C 
ATOM     17  C   UNL     1      38.420 -35.770 -32.209  0.00  0.00    -0.059 C 
BRANCH   6  18
ATOM     18  C   UNL     1      37.294 -38.948 -29.006  0.00  0.00    +0.066 C 
BRANCH  18  19
ATOM     19  O   UNL     1      36.912 -38.592 -27.684  0.00  0.00    -0.391 OA
ATOM     20  H   UNL     1      36.089 -38.080 -27.713  0.00  0.00    +0.000 HD
ENDBRANCH  18  19
ENDBRANCH   6  18
ENDBRANCH   4   5
ENDBRANCH   3   4
ENDBRANCH   2   3
BRANCH   2  21
ATOM     21  C   UNL     1      33.441 -34.516 -30.422  0.00  0.00    +0.048 C 
BRANCH  21  22
ATOM     22  C   UNL     1      32.680 -33.526 -31.271  0.00  0.00    +0.307 C 
ATOM     23  O   UNL     1      32.381 -32.395 -30.914  0.00  0.00    -0.251 OA
BRANCH  22  24
ATOM     24  O   UNL     1      32.409 -34.081 -32.483  0.00  0.00    -0.465 OA
BRANCH  24  25
ATOM     25  C   UNL     1      31.612 -35.272 -32.507  0.00  0.00    +0.092 C 
BRANCH  25  26
ATOM     26  C   UNL     1      32.139 -36.189 -33.606  0.00  0.00    -0.018 C 
BRANCH  26  27
ATOM     27  C   UNL     1      33.138 -37.227 -33.074  0.00  0.00    -0.049 C 
BRANCH  27  28
ATOM     28  C   UNL     1      32.693 -37.835 -31.740  0.00  0.00    -0.040 C 
BRANCH  28  29
ATOM     29  C   UNL     1      33.521 -39.062 -31.325  0.00  0.00    -0.001 C 
BRANCH  29  30
ATOM     30  N   UNL     1      32.922 -39.778 -30.189  0.00  0.00    -0.298 N 
ATOM     31  C   UNL     1      32.118 -38.851 -29.360  0.00  0.00    +0.022 C 
ATOM     32  C   UNL     1      31.546 -39.557 -28.121  0.00  0.00    +0.060 C 
ATOM     33  O   UNL     1      32.590 -40.115 -27.314  0.00  0.00    -0.377 OA
ATOM     34  C   UNL     1      33.351 -41.054 -28.084  0.00  0.00    +0.060 C 
ATOM     35  C   UNL     1      33.963 -40.385 -29.325  0.00  0.00    +0.022 C 
ATOM     36  H   UNL     1      32.329 -40.513 -30.574  0.00  0.00    +0.000 HD
ENDBRANCH  29  30
ENDBRANCH  28  29
ENDBRANCH  27  28
ENDBRANCH  26  27
ENDBRANCH  25  26
ENDBRANCH  24  25
ENDBRANCH  22  24
ENDBRANCH  21  22
ENDBRANCH   2  21
TORSDOF 14
ENDMDL
MODEL 3
REMARK VINA RESULT:    -6.491     18.620     21.553
REMARK INTER + INTRA:         -13.436
REMARK INTER:                 -10.349
REMARK INTRA:                  -3.087
REMARK UNBOUND:                -1.821
REMARK  Name = cpd290.pdb
REMARK  18 active torsions:
REMARK  status: ('A' for Active; 'I' for Inactive)
REMARK    1  A    between atoms: C_1  and  C_2
REMARK    2  A    between atoms: C_2  and  C_3
REMARK    3  A    between atoms: C_2  and  C_20
REMARK    4  A    between atoms: C_3  and  C_4
REMARK    5  A    between atoms: C_4  and  C_5
REMARK    6  A    between atoms: C_6  and  C_7
REMARK    7  A    between atoms: C_7  and  O_8
REMARK    8  A    between atoms: C_12  and  C_13
REMARK    9  A    between atoms: C_12  and  C_14
REMARK   10  A    between atoms: C_18  and  C_19
REMARK   11  A    between atoms: C_20  and  C_21
REMARK   12  A    between atoms: C_21  and  O_23
REMARK   13  A    between atoms: O_23  and  C_24
REMARK   14  A    between atoms: C_24  and  C_25
REMARK   15  A    between atoms: C_25  and  C_26
REMARK   16  A    between atoms: C_26  and  C_27
REMARK   17  A    between atoms: C_27  and  C_28
REMARK   18  A    between atoms: C_28  and  N_29
REMARK                            x       y       z     vdW  Elec       q    Type
REMARK                         _______ _______ _______ _____ _____    ______ ____
ROOT
ATOM      1  C   UNL     1      47.030 -17.590 -38.660  0.00  0.00    -0.062 C 
ATOM      2  C   UNL     1      47.041 -17.687 -40.191  0.00  0.00    -0.034 C 
ENDROOT
BRANCH   2   3
ATOM      3  C   UNL     1      46.929 -19.144 -40.686  0.00  0.00    -0.049 C 
BRANCH   3   4
ATOM      4  C   UNL     1      46.963 -20.230 -39.586  0.00  0.00    -0.046 C 
BRANCH   4   5
ATOM      5  C   UNL     1      45.885 -21.389 -39.783  0.00  0.00    -0.012 C 
ATOM      6  C   UNL     1      46.089 -21.870 -41.225  0.00  0.00    -0.045 C 
ATOM      7  C   UNL     1      45.149 -21.525 -42.102  0.00  0.00    -0.082 C 
ATOM      8  C   UNL     1      43.929 -20.886 -41.557  0.00  0.00    -0.031 C 
ATOM      9  C   UNL     1      43.695 -21.292 -40.020  0.00  0.00    -0.027 C 
ATOM     10  C   UNL     1      42.018 -21.390 -39.751  0.00  0.00    -0.031 C 
ATOM     11  C   UNL     1      41.710 -22.491 -38.691  0.00  0.00    -0.060 C 
ATOM     12  C   UNL     1      41.182 -21.779 -40.994  0.00  0.00    -0.060 C 
ATOM     13  C   UNL     1      41.482 -20.045 -39.209  0.00  0.00    -0.048 C 
ATOM     14  C   UNL     1      42.369 -18.934 -39.717  0.00  0.00    -0.052 C 
ATOM     15  C   UNL     1      43.826 -19.289 -39.374  0.00  0.00    -0.047 C 
ATOM     16  C   UNL     1      44.137 -21.064 -39.152  0.00  0.00    -0.022 C 
ATOM     17  C   UNL     1      44.580 -20.836 -38.284  0.00  0.00    -0.059 C 
BRANCH   6  18
ATOM     18  C   UNL     1      47.345 -22.630 -41.565  0.00  0.00    +0.066 C 
BRANCH  18  19
ATOM     19  O   UNL     1      48.046 -22.022 -42.642  0.00  0.00    -0.391 OA
ATOM     20  H   UNL     1      48.913 -22.443 -42.741  0.00  0.00    +0.000 HD
ENDBRANCH  18  19
ENDBRANCH   6  18
ENDBRANCH   4   5
ENDBRANCH   3   4
ENDBRANCH   2   3
BRANCH   2  21
ATOM     21  C   UNL     1      45.949 -16.801 -40.816  0.00  0.00    +0.048 C 
BRANCH  21  22
ATOM     22  C   UNL     1      46.162 -15.320 -40.606  0.00  0.00    +0.307 C 
ATOM     23  O   UNL     1      47.227 -14.745 -40.773  0.00  0.00    -0.251 OA
BRANCH  22  24
ATOM     24  O   UNL     1      44.989 -14.741 -40.233  0.00  0.00    -0.465 OA
BRANCH  24  25
ATOM     25  C   UNL     1      44.014 -15.568 -39.584  0.00  0.00    +0.092 C 
BRANCH  25  26
ATOM     26  C   UNL     1      44.088 -15.320 -38.081  0.00  0.00    -0.018 C 
BRANCH  26  27
ATOM     27  C   UNL     1      42.803 -15.739 -37.354  0.00  0.00    -0.049 C 
BRANCH  27  28
ATOM     28  C   UNL     1      43.048 -16.848 -36.325  0.00  0.00    -0.040 C 
BRANCH  28  29
ATOM     29  C   UNL     1      44.534 -17.036 -35.976  0.00  0.00    -0.001 C 
BRANCH  29  30
ATOM     30  N   UNL     1      44.886 -18.452 -35.793  0.00  0.00    -0.298 N 
ATOM     31  C   UNL     1      43.970 -19.090 -34.821  0.00  0.00    +0.022 C 
ATOM     32  C   UNL     1      44.366 -20.550 -34.550  0.00  0.00    +0.060 C 
ATOM     33  O   UNL     1      45.707 -20.640 -34.053  0.00  0.00    -0.377 OA
ATOM     34  C   UNL     1      46.617 -20.070 -35.003  0.00  0.00    +0.060 C 
ATOM     35  C   UNL     1      46.273 -18.600 -35.288  0.00  0.00    +0.022 C 
ATOM     36  H   UNL     1      44.806 -18.903 -36.704  0.00  0.00    +0.000 HD
ENDBRANCH  29  30
ENDBRANCH  28  29
ENDBRANCH  27  28
ENDBRANCH  26  27
ENDBRANCH  25  26
ENDBRANCH  24  25
ENDBRANCH  22  24
ENDBRANCH  21  22
ENDBRANCH   2  21
TORSDOF 14
ENDMDL
MODEL 4
REMARK VINA RESULT:    -6.351     15.995     19.406
REMARK INTER + INTRA:         -13.184
REMARK INTER:                 -11.201
REMARK INTRA:                  -1.983
REMARK UNBOUND:                -1.821
REMARK  Name = cpd290.pdb
REMARK  18 active torsions:
REMARK  status: ('A' for Active; 'I' for Inactive)
REMARK    1  A    between atoms: C_1  and  C_2
REMARK    2  A    between atoms: C_2  and  C_3
REMARK    3  A    between atoms: C_2  and  C_20
REMARK    4  A    between atoms: C_3  and  C_4
REMARK    5  A    between atoms: C_4  and  C_5
REMARK    6  A    between atoms: C_6  and  C_7
REMARK    7  A    between atoms: C_7  and  O_8
REMARK    8  A    between atoms: C_12  and  C_13
REMARK    9  A    between atoms: C_12  and  C_14
REMARK   10  A    between atoms: C_18  and  C_19
REMARK   11  A    between atoms: C_20  and  C_21
REMARK   12  A    between atoms: C_21  and  O_23
REMARK   13  A    between atoms: O_23  and  C_24
REMARK   14  A    between atoms: C_24  and  C_25
REMARK   15  A    between atoms: C_25  and  C_26
REMARK   16  A    between atoms: C_26  and  C_27
REMARK   17  A    between atoms: C_27  and  C_28
REMARK   18  A    between atoms: C_28  and  N_29
REMARK                            x       y       z     vdW  Elec       q    Type
REMARK                         _______ _______ _______ _____ _____    ______ ____
ROOT
ATOM      1  C   UNL     1      41.489 -17.717 -33.058  0.00  0.00    -0.062 C 
ATOM      2  C   UNL     1      42.082 -19.116 -32.852  0.00  0.00    -0.034 C 
ENDROOT
BRANCH   2   3
ATOM      3  C   UNL     1      41.059 -20.233 -33.145  0.00  0.00    -0.049 C 
BRANCH   3   4
ATOM      4  C   UNL     1      39.724 -19.772 -33.774  0.00  0.00    -0.046 C 
BRANCH   4   5
ATOM      5  C   UNL     1      39.304 -20.588 -35.079  0.00  0.00    -0.012 C 
ATOM      6  C   UNL     1      39.539 -22.058 -34.711  0.00  0.00    -0.045 C 
ATOM      7  C   UNL     1      40.587 -22.650 -35.281  0.00  0.00    -0.082 C 
ATOM      8  C   UNL     1      41.289 -21.890 -36.341  0.00  0.00    -0.031 C 
ATOM      9  C   UNL     1      40.316 -20.809 -37.025  0.00  0.00    -0.027 C 
ATOM     10  C   UNL     1      40.738 -20.689 -38.669  0.00  0.00    -0.031 C 
ATOM     11  C   UNL     1      39.470 -20.383 -39.525  0.00  0.00    -0.060 C 
ATOM     12  C   UNL     1      41.340 -21.976 -39.282  0.00  0.00    -0.060 C 
ATOM     13  C   UNL     1      41.745 -19.536 -38.881  0.00  0.00    -0.048 C 
ATOM     14  C   UNL     1      42.536 -19.349 -37.610  0.00  0.00    -0.052 C 
ATOM     15  C   UNL     1      41.545 -19.197 -36.444  0.00  0.00    -0.047 C 
ATOM     16  C   UNL     1      39.914 -19.939 -36.742  0.00  0.00    -0.022 C 
ATOM     17  C   UNL     1      39.512 -19.068 -36.458  0.00  0.00    -0.059 C 
BRANCH   6  18
ATOM     18  C   UNL     1      38.629 -22.708 -33.701  0.00  0.00    +0.066 C 
BRANCH  18  19
ATOM     19  O   UNL     1      39.368 -23.420 -32.717  0.00  0.00    -0.391 OA
ATOM     20  H   UNL     1      40.099 -22.867 -32.400  0.00  0.00    +0.000 HD
ENDBRANCH  18  19
ENDBRANCH   6  18
ENDBRANCH   4   5
ENDBRANCH   3   4
ENDBRANCH   2   3
BRANCH   2  21
ATOM     21  C   UNL     1      43.367 -19.307 -33.678  0.00  0.00    +0.048 C 
BRANCH  21  22
ATOM     22  C   UNL     1      44.611 -18.760 -33.017  0.00  0.00    +0.307 C 
ATOM     23  O   UNL     1      44.611 -18.071 -32.008  0.00  0.00    -0.251 OA
BRANCH  22  24
ATOM     24  O   UNL     1      45.709 -19.176 -33.703  0.00  0.00    -0.465 OA
BRANCH  24  25
ATOM     25  C   UNL     1      45.967 -18.572 -34.978  0.00  0.00    +0.092 C 
BRANCH  25  26
ATOM     26  C   UNL     1      46.761 -19.557 -35.831  0.00  0.00    -0.018 C 
BRANCH  26  27
ATOM     27  C   UNL     1      45.948 -20.091 -37.019  0.00  0.00    -0.049 C 
BRANCH  27  28
ATOM     28  C   UNL     1      46.721 -20.012 -38.339  0.00  0.00    -0.040 C 
BRANCH  28  29
ATOM     29  C   UNL     1      45.870 -20.382 -39.565  0.00  0.00    -0.001 C 
BRANCH  29  30
ATOM     30  N   UNL     1      46.634 -21.149 -40.561  0.00  0.00    -0.298 N 
ATOM     31  C   UNL     1      45.728 -22.006 -41.358  0.00  0.00    +0.022 C 
ATOM     32  C   UNL     1      46.511 -22.878 -42.352  0.00  0.00    +0.060 C 
ATOM     33  O   UNL     1      47.463 -23.709 -41.676  0.00  0.00    -0.377 OA
ATOM     34  C   UNL     1      48.380 -22.895 -40.936  0.00  0.00    +0.060 C 
ATOM     35  C   UNL     1      47.643 -22.020 -39.911  0.00  0.00    +0.022 C 
ATOM     36  H   UNL     1      47.105 -20.474 -41.164  0.00  0.00    +0.000 HD
ENDBRANCH  29  30
ENDBRANCH  28  29
ENDBRANCH  27  28
ENDBRANCH  26  27
ENDBRANCH  25  26
ENDBRANCH  24  25
ENDBRANCH  22  24
ENDBRANCH  21  22
ENDBRANCH   2  21
TORSDOF 14
ENDMDL
MODEL 5
REMARK VINA RESULT:    -6.280     16.763     19.730
REMARK INTER + INTRA:         -13.057
REMARK INTER:                 -10.546
REMARK INTRA:                  -2.512
REMARK UNBOUND:                -1.821
REMARK  Name = cpd290.pdb
REMARK  18 active torsions:
REMARK  status: ('A' for Active; 'I' for Inactive)
REMARK    1  A    between atoms: C_1  and  C_2
REMARK    2  A    between atoms: C_2  and  C_3
REMARK    3  A    between atoms: C_2  and  C_20
REMARK    4  A    between atoms: C_3  and  C_4
REMARK    5  A    between atoms: C_4  and  C_5
REMARK    6  A    between atoms: C_6  and  C_7
REMARK    7  A    between atoms: C_7  and  O_8
REMARK    8  A    between atoms: C_12  and  C_13
REMARK    9  A    between atoms: C_12  and  C_14
REMARK   10  A    between atoms: C_18  and  C_19
REMARK   11  A    between atoms: C_20  and  C_21
REMARK   12  A    between atoms: C_21  and  O_23
REMARK   13  A    between atoms: O_23  and  C_24
REMARK   14  A    between atoms: C_24  and  C_25
REMARK   15  A    between atoms: C_25  and  C_26
REMARK   16  A    between atoms: C_26  and  C_27
REMARK   17  A    between atoms: C_27  and  C_28
REMARK   18  A    between atoms: C_28  and  N_29
REMARK                            x       y       z     vdW  Elec       q    Type
REMARK                         _______ _______ _______ _____ _____    ______ ____
ROOT
ATOM      1  C   UNL     1      41.241 -22.452 -38.349  0.00  0.00    -0.062 C 
ATOM      2  C   UNL     1      40.654 -21.542 -37.263  0.00  0.00    -0.034 C 
ENDROOT
BRANCH   2   3
ATOM      3  C   UNL     1      40.585 -20.067 -37.710  0.00  0.00    -0.049 C 
BRANCH   3   4
ATOM      4  C   UNL     1      41.402 -19.710 -38.973  0.00  0.00    -0.046 C 
BRANCH   4   5
ATOM      5  C   UNL     1      42.699 -18.830 -38.681  0.00  0.00    -0.012 C 
ATOM      6  C   UNL     1      42.357 -17.438 -39.228  0.00  0.00    -0.045 C 
ATOM      7  C   UNL     1      42.971 -17.077 -40.353  0.00  0.00    -0.082 C 
ATOM      8  C   UNL     1      44.047 -17.969 -40.843  0.00  0.00    -0.031 C 
ATOM      9  C   UNL     1      44.684 -18.828 -39.642  0.00  0.00    -0.027 C 
ATOM     10  C   UNL     1      46.341 -19.038 -39.968  0.00  0.00    -0.031 C 
ATOM     11  C   UNL     1      47.146 -19.079 -38.634  0.00  0.00    -0.060 C 
ATOM     12  C   UNL     1      46.989 -17.905 -40.799  0.00  0.00    -0.060 C 
ATOM     13  C   UNL     1      46.576 -20.375 -40.707  0.00  0.00    -0.048 C 
ATOM     14  C   UNL     1      45.333 -20.717 -41.491  0.00  0.00    -0.052 C 
ATOM     15  C   UNL     1      44.130 -20.657 -40.534  0.00  0.00    -0.047 C 
ATOM     16  C   UNL     1      44.376 -19.596 -39.081  0.00  0.00    -0.022 C 
ATOM     17  C   UNL     1      44.069 -20.364 -38.519  0.00  0.00    -0.059 C 
BRANCH   6  18
ATOM     18  C   UNL     1      41.321 -16.612 -38.510  0.00  0.00    +0.066 C 
BRANCH  18  19
ATOM     19  O   UNL     1      40.186 -16.371 -39.332  0.00  0.00    -0.391 OA
ATOM     20  H   UNL     1      40.436 -16.470 -40.264  0.00  0.00    +0.000 HD
ENDBRANCH  18  19
ENDBRANCH   6  18
ENDBRANCH   4   5
ENDBRANCH   3   4
ENDBRANCH   2   3
BRANCH   2  21
ATOM     21  C   UNL     1      39.278 -22.047 -36.792  0.00  0.00    +0.048 C 
BRANCH  21  22
ATOM     22  C   UNL     1      39.344 -23.204 -35.823  0.00  0.00    +0.307 C 
ATOM     23  O   UNL     1      38.555 -24.138 -35.809  0.00  0.00    -0.251 OA
BRANCH  22  24
ATOM     24  O   UNL     1      40.418 -23.049 -35.004  0.00  0.00    -0.465 OA
BRANCH  24  25
ATOM     25  C   UNL     1      40.203 -23.174 -33.592  0.00  0.00    +0.092 C 
BRANCH  25  26
ATOM     26  C   UNL     1      41.118 -22.189 -32.871  0.00  0.00    -0.018 C 
BRANCH  26  27
ATOM     27  C   UNL     1      40.592 -20.748 -32.932  0.00  0.00    -0.049 C 
BRANCH  27  28
ATOM     28  C   UNL     1      41.356 -19.890 -33.945  0.00  0.00    -0.040 C 
BRANCH  28  29
ATOM     29  C   UNL     1      42.794 -20.374 -34.192  0.00  0.00    -0.001 C 
BRANCH  29  30
ATOM     30  N   UNL     1      43.743 -19.258 -34.311  0.00  0.00    -0.298 N 
ATOM     31  C   UNL     1      45.040 -19.737 -34.841  0.00  0.00    +0.022 C 
ATOM     32  C   UNL     1      46.076 -18.604 -34.900  0.00  0.00    +0.060 C 
ATOM     33  O   UNL     1      46.289 -18.028 -33.605  0.00  0.00    -0.377 OA
ATOM     34  C   UNL     1      45.052 -17.513 -33.093  0.00  0.00    +0.060 C 
ATOM     35  C   UNL     1      43.990 -18.618 -32.995  0.00  0.00    +0.022 C 
ATOM     36  H   UNL     1      43.330 -18.577 -34.948  0.00  0.00    +0.000 HD
ENDBRANCH  29  30
ENDBRANCH  28  29
ENDBRANCH  27  28
ENDBRANCH  26  27
ENDBRANCH  25  26
ENDBRANCH  24  25
ENDBRANCH  22  24
ENDBRANCH  21  22
ENDBRANCH   2  21
TORSDOF 14
ENDMDL
MODEL 6
REMARK VINA RESULT:    -6.272     18.287     20.930
REMARK INTER + INTRA:         -13.043
REMARK INTER:                  -9.397
REMARK INTRA:                  -3.646
REMARK UNBOUND:                -1.821
REMARK  Name = cpd290.pdb
REMARK  18 active torsions:
REMARK  status: ('A' for Active; 'I' for Inactive)
REMARK    1  A    between atoms: C_1  and  C_2
REMARK    2  A    between atoms: C_2  and  C_3
REMARK    3  A    between atoms: C_2  and  C_20
REMARK    4  A    between atoms: C_3  and  C_4
REMARK    5  A    between atoms: C_4  and  C_5
REMARK    6  A    between atoms: C_6  and  C_7
REMARK    7  A    between atoms: C_7  and  O_8
REMARK    8  A    between atoms: C_12  and  C_13
REMARK    9  A    between atoms: C_12  and  C_14
REMARK   10  A    between atoms: C_18  and  C_19
REMARK   11  A    between atoms: C_20  and  C_21
REMARK   12  A    between atoms: C_21  and  O_23
REMARK   13  A    between atoms: O_23  and  C_24
REMARK   14  A    between atoms: C_24  and  C_25
REMARK   15  A    between atoms: C_25  and  C_26
REMARK   16  A    between atoms: C_26  and  C_27
REMARK   17  A    between atoms: C_27  and  C_28
REMARK   18  A    between atoms: C_28  and  N_29
REMARK                            x       y       z     vdW  Elec       q    Type
REMARK                         _______ _______ _______ _____ _____    ______ ____
ROOT
ATOM      1  C   UNL     1      41.965 -17.135 -37.237  0.00  0.00    -0.062 C 
ATOM      2  C   UNL     1      43.334 -16.480 -37.459  0.00  0.00    -0.034 C 
ENDROOT
BRANCH   2   3
ATOM      3  C   UNL     1      43.388 -15.668 -38.769  0.00  0.00    -0.049 C 
BRANCH   3   4
ATOM      4  C   UNL     1      44.147 -16.334 -39.940  0.00  0.00    -0.046 C 
BRANCH   4   5
ATOM      5  C   UNL     1      45.247 -17.395 -39.482  0.00  0.00    -0.012 C 
ATOM      6  C   UNL     1      46.585 -16.663 -39.645  0.00  0.00    -0.045 C 
ATOM      7  C   UNL     1      47.350 -17.049 -40.664  0.00  0.00    -0.082 C 
ATOM      8  C   UNL     1      46.919 -18.258 -41.404  0.00  0.00    -0.031 C 
ATOM      9  C   UNL     1      46.003 -19.207 -40.485  0.00  0.00    -0.027 C 
ATOM     10  C   UNL     1      46.325 -20.822 -40.914  0.00  0.00    -0.031 C 
ATOM     11  C   UNL     1      46.187 -21.745 -39.664  0.00  0.00    -0.060 C 
ATOM     12  C   UNL     1      47.751 -21.080 -41.453  0.00  0.00    -0.060 C 
ATOM     13  C   UNL     1      45.311 -21.306 -41.976  0.00  0.00    -0.048 C 
ATOM     14  C   UNL     1      44.844 -20.114 -42.774  0.00  0.00    -0.052 C 
ATOM     15  C   UNL     1      44.355 -19.038 -41.790  0.00  0.00    -0.047 C 
ATOM     16  C   UNL     1      45.071 -19.159 -40.125  0.00  0.00    -0.022 C 
ATOM     17  C   UNL     1      44.139 -19.112 -39.765  0.00  0.00    -0.059 C 
BRANCH   6  18
ATOM     18  C   UNL     1      46.913 -15.533 -38.704  0.00  0.00    +0.066 C 
BRANCH  18  19
ATOM     19  O   UNL     1      47.487 -16.013 -37.495  0.00  0.00    -0.391 OA
ATOM     20  H   UNL     1      46.782 -16.308 -36.898  0.00  0.00    +0.000 HD
ENDBRANCH  18  19
ENDBRANCH   6  18
ENDBRANCH   4   5
ENDBRANCH   3   4
ENDBRANCH   2   3
BRANCH   2  21
ATOM     21  C   UNL     1      43.744 -15.617 -36.251  0.00  0.00    +0.048 C 
BRANCH  21  22
ATOM     22  C   UNL     1      44.334 -16.403 -35.104  0.00  0.00    +0.307 C 
ATOM     23  O   UNL     1      43.712 -16.746 -34.110  0.00  0.00    -0.251 OA
BRANCH  22  24
ATOM     24  O   UNL     1      45.639 -16.680 -35.368  0.00  0.00    -0.465 OA
BRANCH  24  25
ATOM     25  C   UNL     1      46.112 -18.002 -35.076  0.00  0.00    +0.092 C 
BRANCH  25  26
ATOM     26  C   UNL     1      46.014 -18.846 -36.343  0.00  0.00    -0.018 C 
BRANCH  26  27
ATOM     27  C   UNL     1      45.327 -20.196 -36.096  0.00  0.00    -0.049 C 
BRANCH  27  28
ATOM     28  C   UNL     1      43.801 -20.101 -36.186  0.00  0.00    -0.040 C 
BRANCH  28  29
ATOM     29  C   UNL     1      43.104 -20.198 -34.820  0.00  0.00    -0.001 C 
BRANCH  29  30
ATOM     30  N   UNL     1      42.254 -21.394 -34.713  0.00  0.00    -0.298 N 
ATOM     31  C   UNL     1      41.386 -21.519 -35.905  0.00  0.00    +0.022 C 
ATOM     32  C   UNL     1      40.431 -22.716 -35.782  0.00  0.00    +0.060 C 
ATOM     33  O   UNL     1      39.606 -22.604 -34.616  0.00  0.00    -0.377 OA
ATOM     34  C   UNL     1      40.428 -22.531 -33.444  0.00  0.00    +0.060 C 
ATOM     35  C   UNL     1      41.386 -21.332 -33.512  0.00  0.00    +0.022 C 
ATOM     36  H   UNL     1      42.876 -22.199 -34.641  0.00  0.00    +0.000 HD
ENDBRANCH  29  30
ENDBRANCH  28  29
ENDBRANCH  27  28
ENDBRANCH  26  27
ENDBRANCH  25  26
ENDBRANCH  24  25
ENDBRANCH  22  24
ENDBRANCH  21  22
ENDBRANCH   2  21
TORSDOF 14
ENDMDL
MODEL 7
REMARK VINA RESULT:    -6.268     15.792     19.511
REMARK INTER + INTRA:         -13.037
REMARK INTER:                 -11.110
REMARK INTRA:                  -1.927
REMARK UNBOUND:                -1.821
REMARK  Name = cpd290.pdb
REMARK  18 active torsions:
REMARK  status: ('A' for Active; 'I' for Inactive)
REMARK    1  A    between atoms: C_1  and  C_2
REMARK    2  A    between atoms: C_2  and  C_3
REMARK    3  A    between atoms: C_2  and  C_20
REMARK    4  A    between atoms: C_3  and  C_4
REMARK    5  A    between atoms: C_4  and  C_5
REMARK    6  A    between atoms: C_6  and  C_7
REMARK    7  A    between atoms: C_7  and  O_8
REMARK    8  A    between atoms: C_12  and  C_13
REMARK    9  A    between atoms: C_12  and  C_14
REMARK   10  A    between atoms: C_18  and  C_19
REMARK   11  A    between atoms: C_20  and  C_21
REMARK   12  A    between atoms: C_21  and  O_23
REMARK   13  A    between atoms: O_23  and  C_24
REMARK   14  A    between atoms: C_24  and  C_25
REMARK   15  A    between atoms: C_25  and  C_26
REMARK   16  A    between atoms: C_26  and  C_27
REMARK   17  A    between atoms: C_27  and  C_28
REMARK   18  A    between atoms: C_28  and  N_29
REMARK                            x       y       z     vdW  Elec       q    Type
REMARK                         _______ _______ _______ _____ _____    ______ ____
ROOT
ATOM      1  C   UNL     1      41.575 -17.128 -34.887  0.00  0.00    -0.062 C 
ATOM      2  C   UNL     1      42.330 -18.329 -35.472  0.00  0.00    -0.034 C 
ENDROOT
BRANCH   2   3
ATOM      3  C   UNL     1      41.843 -18.691 -36.890  0.00  0.00    -0.049 C 
BRANCH   3   4
ATOM      4  C   UNL     1      41.774 -20.202 -37.209  0.00  0.00    -0.046 C 
BRANCH   4   5
ATOM      5  C   UNL     1      40.349 -20.861 -36.931  0.00  0.00    -0.012 C 
ATOM      6  C   UNL     1      39.348 -19.711 -37.100  0.00  0.00    -0.045 C 
ATOM      7  C   UNL     1      38.797 -19.239 -35.983  0.00  0.00    -0.082 C 
ATOM      8  C   UNL     1      39.060 -19.993 -34.736  0.00  0.00    -0.031 C 
ATOM      9  C   UNL     1      39.415 -21.530 -35.049  0.00  0.00    -0.027 C 
ATOM     10  C   UNL     1      38.790 -22.481 -33.784  0.00  0.00    -0.031 C 
ATOM     11  C   UNL     1      38.345 -23.872 -34.331  0.00  0.00    -0.060 C 
ATOM     12  C   UNL     1      37.537 -21.898 -33.090  0.00  0.00    -0.060 C 
ATOM     13  C   UNL     1      39.873 -22.718 -32.706  0.00  0.00    -0.048 C 
ATOM     14  C   UNL     1      40.835 -21.556 -32.727  0.00  0.00    -0.052 C 
ATOM     15  C   UNL     1      41.326 -21.363 -34.172  0.00  0.00    -0.047 C 
ATOM     16  C   UNL     1      40.199 -22.010 -35.442  0.00  0.00    -0.022 C 
ATOM     17  C   UNL     1      40.984 -22.489 -35.835  0.00  0.00    -0.059 C 
BRANCH   6  18
ATOM     18  C   UNL     1      39.107 -19.155 -38.479  0.00  0.00    +0.066 C 
BRANCH  18  19
ATOM     19  O   UNL     1      38.923 -20.193 -39.433  0.00  0.00    -0.391 OA
ATOM     20  H   UNL     1      38.970 -19.821 -40.328  0.00  0.00    +0.000 HD
ENDBRANCH  18  19
ENDBRANCH   6  18
ENDBRANCH   4   5
ENDBRANCH   3   4
ENDBRANCH   2   3
BRANCH   2  21
ATOM     21  C   UNL     1      43.852 -18.099 -35.446  0.00  0.00    +0.048 C 
BRANCH  21  22
ATOM     22  C   UNL     1      44.629 -19.199 -34.762  0.00  0.00    +0.307 C 
ATOM     23  O   UNL     1      44.790 -19.281 -33.553  0.00  0.00    -0.251 OA
BRANCH  22  24
ATOM     24  O   UNL     1      45.091 -20.076 -35.693  0.00  0.00    -0.465 OA
BRANCH  24  25
ATOM     25  C   UNL     1      46.506 -20.299 -35.755  0.00  0.00    +0.092 C 
BRANCH  25  26
ATOM     26  C   UNL     1      47.138 -19.190 -36.589  0.00  0.00    -0.018 C 
BRANCH  26  27
ATOM     27  C   UNL     1      46.486 -19.053 -37.973  0.00  0.00    -0.049 C 
BRANCH  27  28
ATOM     28  C   UNL     1      46.968 -20.126 -38.954  0.00  0.00    -0.040 C 
BRANCH  28  29
ATOM     29  C   UNL     1      45.870 -21.127 -39.349  0.00  0.00    -0.001 C 
BRANCH  29  30
ATOM     30  N   UNL     1      46.369 -22.170 -40.257  0.00  0.00    -0.298 N 
ATOM     31  C   UNL     1      47.850 -22.176 -40.272  0.00  0.00    +0.022 C 
ATOM     32  C   UNL     1      48.398 -23.204 -41.274  0.00  0.00    +0.060 C 
ATOM     33  O   UNL     1      47.921 -22.941 -42.600  0.00  0.00    -0.377 OA
ATOM     34  C   UNL     1      46.488 -22.979 -42.617  0.00  0.00    +0.060 C 
ATOM     35  C   UNL     1      45.893 -21.949 -41.644  0.00  0.00    +0.022 C 
ATOM     36  H   UNL     1      46.015 -23.063 -39.914  0.00  0.00    +0.000 HD
ENDBRANCH  29  30
ENDBRANCH  28  29
ENDBRANCH  27  28
ENDBRANCH  26  27
ENDBRANCH  25  26
ENDBRANCH  24  25
ENDBRANCH  22  24
ENDBRANCH  21  22
ENDBRANCH   2  21
TORSDOF 14
ENDMDL
MODEL 8
REMARK VINA RESULT:    -6.228     15.611     18.083
REMARK INTER + INTRA:         -12.965
REMARK INTER:                 -10.810
REMARK INTRA:                  -2.156
REMARK UNBOUND:                -1.821
REMARK  Name = cpd290.pdb
REMARK  18 active torsions:
REMARK  status: ('A' for Active; 'I' for Inactive)
REMARK    1  A    between atoms: C_1  and  C_2
REMARK    2  A    between atoms: C_2  and  C_3
REMARK    3  A    between atoms: C_2  and  C_20
REMARK    4  A    between atoms: C_3  and  C_4
REMARK    5  A    between atoms: C_4  and  C_5
REMARK    6  A    between atoms: C_6  and  C_7
REMARK    7  A    between atoms: C_7  and  O_8
REMARK    8  A    between atoms: C_12  and  C_13
REMARK    9  A    between atoms: C_12  and  C_14
REMARK   10  A    between atoms: C_18  and  C_19
REMARK   11  A    between atoms: C_20  and  C_21
REMARK   12  A    between atoms: C_21  and  O_23
REMARK   13  A    between atoms: O_23  and  C_24
REMARK   14  A    between atoms: C_24  and  C_25
REMARK   15  A    between atoms: C_25  and  C_26
REMARK   16  A    between atoms: C_26  and  C_27
REMARK   17  A    between atoms: C_27  and  C_28
REMARK   18  A    between atoms: C_28  and  N_29
REMARK                            x       y       z     vdW  Elec       q    Type
REMARK                         _______ _______ _______ _____ _____    ______ ____
ROOT
ATOM      1  C   UNL     1      40.247 -22.672 -39.219  0.00  0.00    -0.062 C 
ATOM      2  C   UNL     1      40.461 -21.647 -38.099  0.00  0.00    -0.034 C 
ENDROOT
BRANCH   2   3
ATOM      3  C   UNL     1      40.615 -20.211 -38.641  0.00  0.00    -0.049 C 
BRANCH   3   4
ATOM      4  C   UNL     1      42.041 -19.618 -38.574  0.00  0.00    -0.046 C 
BRANCH   4   5
ATOM      5  C   UNL     1      43.194 -20.711 -38.432  0.00  0.00    -0.012 C 
ATOM      6  C   UNL     1      43.854 -20.407 -37.082  0.00  0.00    -0.045 C 
ATOM      7  C   UNL     1      45.065 -19.854 -37.127  0.00  0.00    -0.082 C 
ATOM      8  C   UNL     1      45.713 -19.771 -38.456  0.00  0.00    -0.031 C 
ATOM      9  C   UNL     1      45.138 -20.892 -39.455  0.00  0.00    -0.027 C 
ATOM     10  C   UNL     1      46.410 -21.393 -40.469  0.00  0.00    -0.031 C 
ATOM     11  C   UNL     1      46.240 -22.900 -40.834  0.00  0.00    -0.060 C 
ATOM     12  C   UNL     1      47.821 -21.283 -39.846  0.00  0.00    -0.060 C 
ATOM     13  C   UNL     1      46.397 -20.582 -41.785  0.00  0.00    -0.048 C 
ATOM     14  C   UNL     1      45.786 -19.230 -41.511  0.00  0.00    -0.052 C 
ATOM     15  C   UNL     1      44.430 -19.447 -40.818  0.00  0.00    -0.047 C 
ATOM     16  C   UNL     1      44.277 -21.031 -39.943  0.00  0.00    -0.022 C 
ATOM     17  C   UNL     1      43.415 -21.170 -40.431  0.00  0.00    -0.059 C 
BRANCH   6  18
ATOM     18  C   UNL     1      43.083 -20.685 -35.818  0.00  0.00    +0.066 C 
BRANCH  18  19
ATOM     19  O   UNL     1      43.952 -20.869 -34.708  0.00  0.00    -0.391 OA
ATOM     20  H   UNL     1      43.908 -20.091 -34.130  0.00  0.00    +0.000 HD
ENDBRANCH  18  19
ENDBRANCH   6  18
ENDBRANCH   4   5
ENDBRANCH   3   4
ENDBRANCH   2   3
BRANCH   2  21
ATOM     21  C   UNL     1      39.342 -21.729 -37.044  0.00  0.00    +0.048 C 
BRANCH  21  22
ATOM     22  C   UNL     1      39.445 -22.924 -36.127  0.00  0.00    +0.307 C 
ATOM     23  O   UNL     1      38.974 -24.025 -36.373  0.00  0.00    -0.251 OA
BRANCH  22  24
ATOM     24  O   UNL     1      40.155 -22.585 -35.018  0.00  0.00    -0.465 OA
BRANCH  24  25
ATOM     25  C   UNL     1      39.771 -23.184 -33.772  0.00  0.00    +0.092 C 
BRANCH  25  26
ATOM     26  C   UNL     1      39.120 -22.116 -32.899  0.00  0.00    -0.018 C 
BRANCH  26  27
ATOM     27  C   UNL     1      37.610 -21.996 -33.150  0.00  0.00    -0.049 C 
BRANCH  27  28
ATOM     28  C   UNL     1      37.223 -20.644 -33.758  0.00  0.00    -0.040 C 
BRANCH  28  29
ATOM     29  C   UNL     1      37.431 -19.463 -32.796  0.00  0.00    -0.001 C 
BRANCH  29  30
ATOM     30  N   UNL     1      38.190 -18.367 -33.418  0.00  0.00    -0.298 N 
ATOM     31  C   UNL     1      38.857 -18.838 -34.653  0.00  0.00    +0.022 C 
ATOM     32  C   UNL     1      39.723 -17.734 -35.280  0.00  0.00    +0.060 C 
ATOM     33  O   UNL     1      40.720 -17.272 -34.361  0.00  0.00    -0.377 OA
ATOM     34  C   UNL     1      40.093 -16.767 -33.175  0.00  0.00    +0.060 C 
ATOM     35  C   UNL     1      39.232 -17.846 -32.500  0.00  0.00    +0.022 C 
ATOM     36  H   UNL     1      37.525 -17.625 -33.635  0.00  0.00    +0.000 HD
ENDBRANCH  29  30
ENDBRANCH  28  29
ENDBRANCH  27  28
ENDBRANCH  26  27
ENDBRANCH  25  26
ENDBRANCH  24  25
ENDBRANCH  22  24
ENDBRANCH  21  22
ENDBRANCH   2  21
TORSDOF 14
ENDMDL
MODEL 9
REMARK VINA RESULT:    -6.158     17.712     20.355
REMARK INTER + INTRA:         -12.839
REMARK INTER:                 -11.041
REMARK INTRA:                  -1.798
REMARK UNBOUND:                -1.821
REMARK  Name = cpd290.pdb
REMARK  18 active torsions:
REMARK  status: ('A' for Active; 'I' for Inactive)
REMARK    1  A    between atoms: C_1  and  C_2
REMARK    2  A    between atoms: C_2  and  C_3
REMARK    3  A    between atoms: C_2  and  C_20
REMARK    4  A    between atoms: C_3  and  C_4
REMARK    5  A    between atoms: C_4  and  C_5
REMARK    6  A    between atoms: C_6  and  C_7
REMARK    7  A    between atoms: C_7  and  O_8
REMARK    8  A    between atoms: C_12  and  C_13
REMARK    9  A    between atoms: C_12  and  C_14
REMARK   10  A    between atoms: C_18  and  C_19
REMARK   11  A    between atoms: C_20  and  C_21
REMARK   12  A    between atoms: C_21  and  O_23
REMARK   13  A    between atoms: O_23  and  C_24
REMARK   14  A    between atoms: C_24  and  C_25
REMARK   15  A    between atoms: C_25  and  C_26
REMARK   16  A    between atoms: C_26  and  C_27
REMARK   17  A    between atoms: C_27  and  C_28
REMARK   18  A    between atoms: C_28  and  N_29
REMARK                            x       y       z     vdW  Elec       q    Type
REMARK                         _______ _______ _______ _____ _____    ______ ____
ROOT
ATOM      1  C   UNL     1      47.689 -18.989 -35.194  0.00  0.00    -0.062 C 
ATOM      2  C   UNL     1      47.024 -17.619 -35.375  0.00  0.00    -0.034 C 
ENDROOT
BRANCH   2   3
ATOM      3  C   UNL     1      47.304 -17.012 -36.766  0.00  0.00    -0.049 C 
BRANCH   3   4
ATOM      4  C   UNL     1      46.130 -17.066 -37.770  0.00  0.00    -0.046 C 
BRANCH   4   5
ATOM      5  C   UNL     1      46.519 -17.671 -39.194  0.00  0.00    -0.012 C 
ATOM      6  C   UNL     1      46.457 -16.477 -40.154  0.00  0.00    -0.045 C 
ATOM      7  C   UNL     1      45.427 -16.451 -40.999  0.00  0.00    -0.082 C 
ATOM      8  C   UNL     1      44.572 -17.659 -41.048  0.00  0.00    -0.031 C 
ATOM      9  C   UNL     1      45.379 -18.964 -40.568  0.00  0.00    -0.027 C 
ATOM     10  C   UNL     1      44.816 -20.291 -41.472  0.00  0.00    -0.031 C 
ATOM     11  C   UNL     1      45.974 -21.309 -41.706  0.00  0.00    -0.060 C 
ATOM     12  C   UNL     1      44.292 -19.941 -42.884  0.00  0.00    -0.060 C 
ATOM     13  C   UNL     1      43.689 -21.022 -40.705  0.00  0.00    -0.048 C 
ATOM     14  C   UNL     1      42.989 -20.025 -39.814  0.00  0.00    -0.052 C 
ATOM     15  C   UNL     1      44.053 -19.309 -38.965  0.00  0.00    -0.047 C 
ATOM     16  C   UNL     1      45.718 -19.304 -39.691  0.00  0.00    -0.022 C 
ATOM     17  C   UNL     1      46.056 -19.645 -38.814  0.00  0.00    -0.059 C 
BRANCH   6  18
ATOM     18  C   UNL     1      47.503 -15.399 -40.041  0.00  0.00    +0.066 C 
BRANCH  18  19
ATOM     19  O   UNL     1      48.494 -15.528 -41.052  0.00  0.00    -0.391 OA
ATOM     20  H   UNL     1      48.068 -15.743 -41.896  0.00  0.00    +0.000 HD
ENDBRANCH  18  19
ENDBRANCH   6  18
ENDBRANCH   4   5
ENDBRANCH   3   4
ENDBRANCH   2   3
BRANCH   2  21
ATOM     21  C   UNL     1      45.512 -17.688 -35.092  0.00  0.00    +0.048 C 
BRANCH  21  22
ATOM     22  C   UNL     1      45.159 -17.671 -33.623  0.00  0.00    +0.307 C 
ATOM     23  O   UNL     1      45.134 -16.664 -32.931  0.00  0.00    -0.251 OA
BRANCH  22  24
ATOM     24  O   UNL     1      44.854 -18.932 -33.215  0.00  0.00    -0.465 OA
BRANCH  24  25
ATOM     25  C   UNL     1      43.749 -19.590 -33.849  0.00  0.00    +0.092 C 
BRANCH  25  26
ATOM     26  C   UNL     1      42.453 -18.988 -33.314  0.00  0.00    -0.018 C 
BRANCH  26  27
ATOM     27  C   UNL     1      41.457 -18.655 -34.434  0.00  0.00    -0.049 C 
BRANCH  27  28
ATOM     28  C   UNL     1      40.089 -19.307 -34.212  0.00  0.00    -0.040 C 
BRANCH  28  29
ATOM     29  C   UNL     1      39.895 -19.846 -32.785  0.00  0.00    -0.001 C 
BRANCH  29  30
ATOM     30  N   UNL     1      39.483 -21.258 -32.775  0.00  0.00    -0.298 N 
ATOM     31  C   UNL     1      40.669 -22.142 -32.814  0.00  0.00    +0.022 C 
ATOM     32  C   UNL     1      40.264 -23.623 -32.886  0.00  0.00    +0.060 C 
ATOM     33  O   UNL     1      39.452 -23.883 -34.038  0.00  0.00    -0.377 OA
ATOM     34  C   UNL     1      38.272 -23.070 -33.995  0.00  0.00    +0.060 C 
ATOM     35  C   UNL     1      38.629 -21.577 -33.945  0.00  0.00    +0.022 C 
ATOM     36  H   UNL     1      38.954 -21.411 -31.917  0.00  0.00    +0.000 HD
ENDBRANCH  29  30
ENDBRANCH  28  29
ENDBRANCH  27  28
ENDBRANCH  26  27
ENDBRANCH  25  26
ENDBRANCH  24  25
ENDBRANCH  22  24
ENDBRANCH  21  22
ENDBRANCH   2  21
TORSDOF 14
ENDMDL
MODEL 10
REMARK VINA RESULT:    -6.102     18.344     21.067
REMARK INTER + INTRA:         -12.739
REMARK INTER:                 -10.712
REMARK INTRA:                  -2.027
REMARK UNBOUND:                -1.821
REMARK  Name = cpd290.pdb
REMARK  18 active torsions:
REMARK  status: ('A' for Active; 'I' for Inactive)
REMARK    1  A    between atoms: C_1  and  C_2
REMARK    2  A    between atoms: C_2  and  C_3
REMARK    3  A    between atoms: C_2  and  C_20
REMARK    4  A    between atoms: C_3  and  C_4
REMARK    5  A    between atoms: C_4  and  C_5
REMARK    6  A    between atoms: C_6  and  C_7
REMARK    7  A    between atoms: C_7  and  O_8
REMARK    8  A    between atoms: C_12  and  C_13
REMARK    9  A    between atoms: C_12  and  C_14
REMARK   10  A    between atoms: C_18  and  C_19
REMARK   11  A    between atoms: C_20  and  C_21
REMARK   12  A    between atoms: C_21  and  O_23
REMARK   13  A    between atoms: O_23  and  C_24
REMARK   14  A    between atoms: C_24  and  C_25
REMARK   15  A    between atoms: C_25  and  C_26
REMARK   16  A    between atoms: C_26  and  C_27
REMARK   17  A    between atoms: C_27  and  C_28
REMARK   18  A    between atoms: C_28  and  N_29
REMARK                            x       y       z     vdW  Elec       q    Type
REMARK                         _______ _______ _______ _____ _____    ______ ____
ROOT
ATOM      1  C   UNL     1      44.702 -20.078 -36.340  0.00  0.00    -0.062 C 
ATOM      2  C   UNL     1      46.166 -19.819 -36.716  0.00  0.00    -0.034 C 
ENDROOT
BRANCH   2   3
ATOM      3  C   UNL     1      46.403 -19.908 -38.238  0.00  0.00    -0.049 C 
BRANCH   3   4
ATOM      4  C   UNL     1      45.142 -20.143 -39.101  0.00  0.00    -0.046 C 
BRANCH   4   5
ATOM      5  C   UNL     1      45.044 -19.197 -40.381  0.00  0.00    -0.012 C 
ATOM      6  C   UNL     1      46.447 -19.230 -40.999  0.00  0.00    -0.045 C 
ATOM      7  C   UNL     1      47.182 -18.129 -40.855  0.00  0.00    -0.082 C 
ATOM      8  C   UNL     1      46.504 -16.940 -40.290  0.00  0.00    -0.031 C 
ATOM      9  C   UNL     1      44.917 -17.001 -40.540  0.00  0.00    -0.027 C 
ATOM     10  C   UNL     1      44.362 -15.411 -40.782  0.00  0.00    -0.031 C 
ATOM     11  C   UNL     1      43.165 -15.409 -41.781  0.00  0.00    -0.060 C 
ATOM     12  C   UNL     1      45.403 -14.445 -41.395  0.00  0.00    -0.060 C 
ATOM     13  C   UNL     1      43.868 -14.807 -39.447  0.00  0.00    -0.048 C 
ATOM     14  C   UNL     1      44.621 -15.462 -38.315  0.00  0.00    -0.052 C 
ATOM     15  C   UNL     1      44.496 -16.987 -38.474  0.00  0.00    -0.047 C 
ATOM     16  C   UNL     1      44.162 -17.543 -40.170  0.00  0.00    -0.022 C 
ATOM     17  C   UNL     1      43.407 -18.084 -39.801  0.00  0.00    -0.059 C 
BRANCH   6  18
ATOM     18  C   UNL     1      46.920 -20.500 -41.657  0.00  0.00    +0.066 C 
BRANCH  18  19
ATOM     19  O   UNL     1      48.010 -20.255 -42.536  0.00  0.00    -0.391 OA
ATOM     20  H   UNL     1      48.809 -20.073 -42.018  0.00  0.00    +0.000 HD
ENDBRANCH  18  19
ENDBRANCH   6  18
ENDBRANCH   4   5
ENDBRANCH   3   4
ENDBRANCH   2   3
BRANCH   2  21
ATOM     21  C   UNL     1      46.660 -18.474 -36.152  0.00  0.00    +0.048 C 
BRANCH  21  22
ATOM     22  C   UNL     1      47.586 -18.606 -34.967  0.00  0.00    +0.307 C 
ATOM     23  O   UNL     1      48.760 -18.940 -35.042  0.00  0.00    -0.251 OA
BRANCH  22  24
ATOM     24  O   UNL     1      46.919 -18.273 -33.830  0.00  0.00    -0.465 OA
BRANCH  24  25
ATOM     25  C   UNL     1      45.664 -17.594 -33.968  0.00  0.00    +0.092 C 
BRANCH  25  26
ATOM     26  C   UNL     1      44.634 -18.289 -33.083  0.00  0.00    -0.018 C 
BRANCH  26  27
ATOM     27  C   UNL     1      43.202 -17.815 -33.368  0.00  0.00    -0.049 C 
BRANCH  27  28
ATOM     28  C   UNL     1      42.293 -18.953 -33.841  0.00  0.00    -0.040 C 
BRANCH  28  29
ATOM     29  C   UNL     1      41.669 -19.754 -32.686  0.00  0.00    -0.001 C 
BRANCH  29  30
ATOM     30  N   UNL     1      40.826 -20.859 -33.168  0.00  0.00    -0.298 N 
ATOM     31  C   UNL     1      41.230 -22.132 -32.531  0.00  0.00    +0.022 C 
ATOM     32  C   UNL     1      40.417 -23.317 -33.078  0.00  0.00    +0.060 C 
ATOM     33  O   UNL     1      40.568 -23.438 -34.497  0.00  0.00    -0.377 OA
ATOM     34  C   UNL     1      40.136 -22.231 -35.138  0.00  0.00    +0.060 C 
ATOM     35  C   UNL     1      40.939 -21.020 -34.638  0.00  0.00    +0.022 C 
ATOM     36  H   UNL     1      39.862 -20.631 -32.924  0.00  0.00    +0.000 HD
ENDBRANCH  29  30
ENDBRANCH  28  29
ENDBRANCH  27  28
ENDBRANCH  26  27
ENDBRANCH  25  26
ENDBRANCH  24  25
ENDBRANCH  22  24
ENDBRANCH  21  22
ENDBRANCH   2  21
TORSDOF 14
ENDMDL
MODEL 11
REMARK VINA RESULT:    -6.050     16.642     19.336
REMARK INTER + INTRA:         -12.646
REMARK INTER:                 -10.434
REMARK INTRA:                  -2.212
REMARK UNBOUND:                -1.821
REMARK  Name = cpd290.pdb
REMARK  18 active torsions:
REMARK  status: ('A' for Active; 'I' for Inactive)
REMARK    1  A    between atoms: C_1  and  C_2
REMARK    2  A    between atoms: C_2  and  C_3
REMARK    3  A    between atoms: C_2  and  C_20
REMARK    4  A    between atoms: C_3  and  C_4
REMARK    5  A    between atoms: C_4  and  C_5
REMARK    6  A    between atoms: C_6  and  C_7
REMARK    7  A    between atoms: C_7  and  O_8
REMARK    8  A    between atoms: C_12  and  C_13
REMARK    9  A    between atoms: C_12  and  C_14
REMARK   10  A    between atoms: C_18  and  C_19
REMARK   11  A    between atoms: C_20  and  C_21
REMARK   12  A    between atoms: C_21  and  O_23
REMARK   13  A    between atoms: O_23  and  C_24
REMARK   14  A    between atoms: C_24  and  C_25
REMARK   15  A    between atoms: C_25  and  C_26
REMARK   16  A    between atoms: C_26  and  C_27
REMARK   17  A    between atoms: C_27  and  C_28
REMARK   18  A    between atoms: C_28  and  N_29
REMARK                            x       y       z     vdW  Elec       q    Type
REMARK                         _______ _______ _______ _____ _____    ______ ____
ROOT
ATOM      1  C   UNL     1      39.441 -18.947 -38.728  0.00  0.00    -0.062 C 
ATOM      2  C   UNL     1      40.361 -20.156 -38.513  0.00  0.00    -0.034 C 
ENDROOT
BRANCH   2   3
ATOM      3  C   UNL     1      41.649 -19.782 -37.750  0.00  0.00    -0.049 C 
BRANCH   3   4
ATOM      4  C   UNL     1      42.776 -19.156 -38.603  0.00  0.00    -0.046 C 
BRANCH   4   5
ATOM      5  C   UNL     1      44.146 -19.973 -38.570  0.00  0.00    -0.012 C 
ATOM      6  C   UNL     1      45.166 -18.998 -37.969  0.00  0.00    -0.045 C 
ATOM      7  C   UNL     1      46.064 -18.489 -38.811  0.00  0.00    -0.082 C 
ATOM      8  C   UNL     1      46.098 -19.059 -40.177  0.00  0.00    -0.031 C 
ATOM      9  C   UNL     1      45.513 -20.556 -40.199  0.00  0.00    -0.027 C 
ATOM     10  C   UNL     1      46.378 -21.441 -41.367  0.00  0.00    -0.031 C 
ATOM     11  C   UNL     1      46.500 -22.932 -40.925  0.00  0.00    -0.060 C 
ATOM     12  C   UNL     1      47.832 -20.966 -41.598  0.00  0.00    -0.060 C 
ATOM     13  C   UNL     1      45.636 -21.406 -42.723  0.00  0.00    -0.048 C 
ATOM     14  C   UNL     1      44.834 -20.131 -42.800  0.00  0.00    -0.052 C 
ATOM     15  C   UNL     1      43.967 -20.031 -41.534  0.00  0.00    -0.047 C 
ATOM     16  C   UNL     1      44.603 -20.962 -40.110  0.00  0.00    -0.022 C 
ATOM     17  C   UNL     1      43.694 -21.368 -40.021  0.00  0.00    -0.059 C 
BRANCH   6  18
ATOM     18  C   UNL     1      45.051 -18.635 -36.512  0.00  0.00    +0.066 C 
BRANCH  18  19
ATOM     19  O   UNL     1      45.707 -17.406 -36.228  0.00  0.00    -0.391 OA
ATOM     20  H   UNL     1      46.646 -17.575 -36.053  0.00  0.00    +0.000 HD
ENDBRANCH  18  19
ENDBRANCH   6  18
ENDBRANCH   4   5
ENDBRANCH   3   4
ENDBRANCH   2   3
BRANCH   2  21
ATOM     21  C   UNL     1      39.616 -21.310 -37.818  0.00  0.00    +0.048 C 
BRANCH  21  22
ATOM     22  C   UNL     1      40.438 -22.567 -37.658  0.00  0.00    +0.307 C 
ATOM     23  O   UNL     1      40.938 -23.187 -38.585  0.00  0.00    -0.251 OA
BRANCH  22  24
ATOM     24  O   UNL     1      40.547 -22.873 -36.338  0.00  0.00    -0.465 OA
BRANCH  24  25
ATOM     25  C   UNL     1      39.552 -22.350 -35.447  0.00  0.00    +0.092 C 
BRANCH  25  26
ATOM     26  C   UNL     1      39.643 -23.100 -34.122  0.00  0.00    -0.018 C 
BRANCH  26  27
ATOM     27  C   UNL     1      39.959 -22.169 -32.943  0.00  0.00    -0.049 C 
BRANCH  27  28
ATOM     28  C   UNL     1      40.480 -20.803 -33.400  0.00  0.00    -0.040 C 
BRANCH  28  29
ATOM     29  C   UNL     1      41.853 -20.446 -32.806  0.00  0.00    -0.001 C 
BRANCH  29  30
ATOM     30  N   UNL     1      42.112 -18.998 -32.837  0.00  0.00    -0.298 N 
ATOM     31  C   UNL     1      41.666 -18.422 -34.125  0.00  0.00    +0.022 C 
ATOM     32  C   UNL     1      41.999 -16.924 -34.216  0.00  0.00    +0.060 C 
ATOM     33  O   UNL     1      43.405 -16.695 -34.066  0.00  0.00    -0.377 OA
ATOM     34  C   UNL     1      43.849 -17.204 -32.802  0.00  0.00    +0.060 C 
ATOM     35  C   UNL     1      43.557 -18.707 -32.675  0.00  0.00    +0.022 C 
ATOM     36  H   UNL     1      41.592 -18.583 -32.064  0.00  0.00    +0.000 HD
ENDBRANCH  29  30
ENDBRANCH  28  29
ENDBRANCH  27  28
ENDBRANCH  26  27
ENDBRANCH  25  26
ENDBRANCH  24  25
ENDBRANCH  22  24
ENDBRANCH  21  22
ENDBRANCH   2  21
TORSDOF 14
ENDMDL
MODEL 12
REMARK VINA RESULT:    -6.030     16.065     19.418
REMARK INTER + INTRA:         -12.610
REMARK INTER:                  -9.235
REMARK INTRA:                  -3.375
REMARK UNBOUND:                -1.821
REMARK  Name = cpd290.pdb
REMARK  18 active torsions:
REMARK  status: ('A' for Active; 'I' for Inactive)
REMARK    1  A    between atoms: C_1  and  C_2
REMARK    2  A    between atoms: C_2  and  C_3
REMARK    3  A    between atoms: C_2  and  C_20
REMARK    4  A    between atoms: C_3  and  C_4
REMARK    5  A    between atoms: C_4  and  C_5
REMARK    6  A    between atoms: C_6  and  C_7
REMARK    7  A    between atoms: C_7  and  O_8
REMARK    8  A    between atoms: C_12  and  C_13
REMARK    9  A    between atoms: C_12  and  C_14
REMARK   10  A    between atoms: C_18  and  C_19
REMARK   11  A    between atoms: C_20  and  C_21
REMARK   12  A    between atoms: C_21  and  O_23
REMARK   13  A    between atoms: O_23  and  C_24
REMARK   14  A    between atoms: C_24  and  C_25
REMARK   15  A    between atoms: C_25  and  C_26
REMARK   16  A    between atoms: C_26  and  C_27
REMARK   17  A    between atoms: C_27  and  C_28
REMARK   18  A    between atoms: C_28  and  N_29
REMARK                            x       y       z     vdW  Elec       q    Type
REMARK                         _______ _______ _______ _____ _____    ______ ____
ROOT
ATOM      1  C   UNL     1      39.202 -16.455 -39.700  0.00  0.00    -0.062 C 
ATOM      2  C   UNL     1      39.685 -17.475 -38.662  0.00  0.00    -0.034 C 
ENDROOT
BRANCH   2   3
ATOM      3  C   UNL     1      39.618 -18.923 -39.191  0.00  0.00    -0.049 C 
BRANCH   3   4
ATOM      4  C   UNL     1      39.079 -19.976 -38.195  0.00  0.00    -0.046 C 
BRANCH   4   5
ATOM      5  C   UNL     1      40.208 -20.667 -37.305  0.00  0.00    -0.012 C 
ATOM      6  C   UNL     1      40.472 -22.015 -37.989  0.00  0.00    -0.045 C 
ATOM      7  C   UNL     1      40.012 -23.096 -37.363  0.00  0.00    -0.082 C 
ATOM      8  C   UNL     1      39.471 -22.899 -35.998  0.00  0.00    -0.031 C 
ATOM      9  C   UNL     1      40.099 -21.591 -35.306  0.00  0.00    -0.027 C 
ATOM     10  C   UNL     1      40.252 -21.901 -33.640  0.00  0.00    -0.031 C 
ATOM     11  C   UNL     1      41.499 -21.156 -33.070  0.00  0.00    -0.060 C 
ATOM     12  C   UNL     1      40.464 -23.388 -33.271  0.00  0.00    -0.060 C 
ATOM     13  C   UNL     1      39.006 -21.388 -32.883  0.00  0.00    -0.048 C 
ATOM     14  C   UNL     1      37.824 -21.424 -33.821  0.00  0.00    -0.052 C 
ATOM     15  C   UNL     1      38.210 -20.675 -35.108  0.00  0.00    -0.047 C 
ATOM     16  C   UNL     1      39.996 -20.604 -35.432  0.00  0.00    -0.022 C 
ATOM     17  C   UNL     1      39.892 -19.618 -35.558  0.00  0.00    -0.059 C 
BRANCH   6  18
ATOM     18  C   UNL     1      41.162 -22.026 -39.329  0.00  0.00    +0.066 C 
BRANCH  18  19
ATOM     19  O   UNL     1      42.486 -21.517 -39.236  0.00  0.00    -0.391 OA
ATOM     20  H   UNL     1      42.480 -20.693 -38.725  0.00  0.00    +0.000 HD
ENDBRANCH  18  19
ENDBRANCH   6  18
ENDBRANCH   4   5
ENDBRANCH   3   4
ENDBRANCH   2   3
BRANCH   2  21
ATOM     21  C   UNL     1      41.098 -17.132 -38.155  0.00  0.00    +0.048 C 
BRANCH  21  22
ATOM     22  C   UNL     1      42.212 -17.659 -39.029  0.00  0.00    +0.307 C 
ATOM     23  O   UNL     1      42.515 -17.193 -40.117  0.00  0.00    -0.251 OA
BRANCH  22  24
ATOM     24  O   UNL     1      42.824 -18.700 -38.404  0.00  0.00    -0.465 OA
BRANCH  24  25
ATOM     25  C   UNL     1      43.589 -18.414 -37.225  0.00  0.00    +0.092 C 
BRANCH  25  26
ATOM     26  C   UNL     1      43.697 -19.689 -36.394  0.00  0.00    -0.018 C 
BRANCH  26  27
ATOM     27  C   UNL     1      45.154 -20.115 -36.163  0.00  0.00    -0.049 C 
BRANCH  27  28
ATOM     28  C   UNL     1      46.063 -19.752 -37.340  0.00  0.00    -0.040 C 
BRANCH  28  29
ATOM     29  C   UNL     1      46.361 -20.941 -38.268  0.00  0.00    -0.001 C 
BRANCH  29  30
ATOM     30  N   UNL     1      45.577 -20.886 -39.511  0.00  0.00    -0.298 N 
ATOM     31  C   UNL     1      46.040 -21.923 -40.460  0.00  0.00    +0.022 C 
ATOM     32  C   UNL     1      45.291 -21.835 -41.799  0.00  0.00    +0.060 C 
ATOM     33  O   UNL     1      45.457 -20.546 -42.402  0.00  0.00    -0.377 OA
ATOM     34  C   UNL     1      44.969 -19.529 -41.518  0.00  0.00    +0.060 C 
ATOM     35  C   UNL     1      45.707 -19.564 -40.171  0.00  0.00    +0.022 C 
ATOM     36  H   UNL     1      44.602 -21.046 -39.259  0.00  0.00    +0.000 HD
ENDBRANCH  29  30
ENDBRANCH  28  29
ENDBRANCH  27  28
ENDBRANCH  26  27
ENDBRANCH  25  26
ENDBRANCH  24  25
ENDBRANCH  22  24
ENDBRANCH  21  22
ENDBRANCH   2  21
TORSDOF 14
ENDMDL
MODEL 13
REMARK VINA RESULT:    -5.988     19.320     22.140
REMARK INTER + INTRA:         -12.535
REMARK INTER:                  -9.908
REMARK INTRA:                  -2.628
REMARK UNBOUND:                -1.821
REMARK  Name = cpd290.pdb
REMARK  18 active torsions:
REMARK  status: ('A' for Active; 'I' for Inactive)
REMARK    1  A    between atoms: C_1  and  C_2
REMARK    2  A    between atoms: C_2  and  C_3
REMARK    3  A    between atoms: C_2  and  C_20
REMARK    4  A    between atoms: C_3  and  C_4
REMARK    5  A    between atoms: C_4  and  C_5
REMARK    6  A    between atoms: C_6  and  C_7
REMARK    7  A    between atoms: C_7  and  O_8
REMARK    8  A    between atoms: C_12  and  C_13
REMARK    9  A    between atoms: C_12  and  C_14
REMARK   10  A    between atoms: C_18  and  C_19
REMARK   11  A    between atoms: C_20  and  C_21
REMARK   12  A    between atoms: C_21  and  O_23
REMARK   13  A    between atoms: O_23  and  C_24
REMARK   14  A    between atoms: C_24  and  C_25
REMARK   15  A    between atoms: C_25  and  C_26
REMARK   16  A    between atoms: C_26  and  C_27
REMARK   17  A    between atoms: C_27  and  C_28
REMARK   18  A    between atoms: C_28  and  N_29
REMARK                            x       y       z     vdW  Elec       q    Type
REMARK                         _______ _______ _______ _____ _____    ______ ____
ROOT
ATOM      1  C   UNL     1      42.133 -17.614 -38.607  0.00  0.00    -0.062 C 
ATOM      2  C   UNL     1      42.805 -18.886 -38.075  0.00  0.00    -0.034 C 
ENDROOT
BRANCH   2   3
ATOM      3  C   UNL     1      44.221 -18.613 -37.525  0.00  0.00    -0.049 C 
BRANCH   3   4
ATOM      4  C   UNL     1      45.390 -19.102 -38.411  0.00  0.00    -0.046 C 
BRANCH   4   5
ATOM      5  C   UNL     1      46.627 -18.097 -38.468  0.00  0.00    -0.012 C 
ATOM      6  C   UNL     1      46.792 -17.601 -37.026  0.00  0.00    -0.045 C 
ATOM      7  C   UNL     1      46.419 -16.345 -36.787  0.00  0.00    -0.082 C 
ATOM      8  C   UNL     1      46.069 -15.516 -37.962  0.00  0.00    -0.031 C 
ATOM      9  C   UNL     1      46.789 -16.059 -39.293  0.00  0.00    -0.027 C 
ATOM     10  C   UNL     1      47.166 -14.718 -40.271  0.00  0.00    -0.031 C 
ATOM     11  C   UNL     1      48.481 -14.989 -41.065  0.00  0.00    -0.060 C 
ATOM     12  C   UNL     1      47.423 -13.402 -39.499  0.00  0.00    -0.060 C 
ATOM     13  C   UNL     1      46.036 -14.466 -41.294  0.00  0.00    -0.048 C 
ATOM     14  C   UNL     1      44.738 -14.968 -40.711  0.00  0.00    -0.052 C 
ATOM     15  C   UNL     1      44.947 -16.421 -40.253  0.00  0.00    -0.047 C 
ATOM     16  C   UNL     1      46.672 -16.855 -39.887  0.00  0.00    -0.022 C 
ATOM     17  C   UNL     1      46.555 -17.651 -40.481  0.00  0.00    -0.059 C 
BRANCH   6  18
ATOM     18  C   UNL     1      47.293 -18.563 -35.981  0.00  0.00    +0.066 C 
BRANCH  18  19
ATOM     19  O   UNL     1      48.369 -19.352 -36.472  0.00  0.00    -0.391 OA
ATOM     20  H   UNL     1      48.933 -18.809 -37.043  0.00  0.00    +0.000 HD
ENDBRANCH  18  19
ENDBRANCH   6  18
ENDBRANCH   4   5
ENDBRANCH   3   4
ENDBRANCH   2   3
BRANCH   2  21
ATOM     21  C   UNL     1      41.925 -19.586 -37.024  0.00  0.00    +0.048 C 
BRANCH  21  22
ATOM     22  C   UNL     1      40.956 -20.591 -37.601  0.00  0.00    +0.307 C 
ATOM     23  O   UNL     1      39.751 -20.411 -37.700  0.00  0.00    -0.251 OA
BRANCH  22  24
ATOM     24  O   UNL     1      41.637 -21.695 -38.008  0.00  0.00    -0.465 OA
BRANCH  24  25
ATOM     25  C   UNL     1      41.572 -22.046 -39.397  0.00  0.00    +0.092 C 
BRANCH  25  26
ATOM     26  C   UNL     1      42.965 -21.908 -40.000  0.00  0.00    -0.018 C 
BRANCH  26  27
ATOM     27  C   UNL     1      42.953 -21.152 -41.336  0.00  0.00    -0.049 C 
BRANCH  27  28
ATOM     28  C   UNL     1      44.276 -20.429 -41.611  0.00  0.00    -0.040 C 
BRANCH  28  29
ATOM     29  C   UNL     1      44.979 -20.913 -42.889  0.00  0.00    -0.001 C 
BRANCH  29  30
ATOM     30  N   UNL     1      46.315 -21.465 -42.613  0.00  0.00    -0.298 N 
ATOM     31  C   UNL     1      46.290 -22.942 -42.697  0.00  0.00    +0.022 C 
ATOM     32  C   UNL     1      47.655 -23.549 -42.334  0.00  0.00    +0.060 C 
ATOM     33  O   UNL     1      48.059 -23.164 -41.014  0.00  0.00    -0.377 OA
ATOM     34  C   UNL     1      48.136 -21.736 -40.925  0.00  0.00    +0.060 C 
ATOM     35  C   UNL     1      46.784 -21.085 -41.259  0.00  0.00    +0.022 C 
ATOM     36  H   UNL     1      46.949 -21.081 -43.313  0.00  0.00    +0.000 HD
ENDBRANCH  29  30
ENDBRANCH  28  29
ENDBRANCH  27  28
ENDBRANCH  26  27
ENDBRANCH  25  26
ENDBRANCH  24  25
ENDBRANCH  22  24
ENDBRANCH  21  22
ENDBRANCH   2  21
TORSDOF 14
ENDMDL
MODEL 14
REMARK VINA RESULT:    -5.959     17.006     19.496
REMARK INTER + INTRA:         -12.483
REMARK INTER:                  -9.638
REMARK INTRA:                  -2.846
REMARK UNBOUND:                -1.821
REMARK  Name = cpd290.pdb
REMARK  18 active torsions:
REMARK  status: ('A' for Active; 'I' for Inactive)
REMARK    1  A    between atoms: C_1  and  C_2
REMARK    2  A    between atoms: C_2  and  C_3
REMARK    3  A    between atoms: C_2  and  C_20
REMARK    4  A    between atoms: C_3  and  C_4
REMARK    5  A    between atoms: C_4  and  C_5
REMARK    6  A    between atoms: C_6  and  C_7
REMARK    7  A    between atoms: C_7  and  O_8
REMARK    8  A    between atoms: C_12  and  C_13
REMARK    9  A    between atoms: C_12  and  C_14
REMARK   10  A    between atoms: C_18  and  C_19
REMARK   11  A    between atoms: C_20  and  C_21
REMARK   12  A    between atoms: C_21  and  O_23
REMARK   13  A    between atoms: O_23  and  C_24
REMARK   14  A    between atoms: C_24  and  C_25
REMARK   15  A    between atoms: C_25  and  C_26
REMARK   16  A    between atoms: C_26  and  C_27
REMARK   17  A    between atoms: C_27  and  C_28
REMARK   18  A    between atoms: C_28  and  N_29
REMARK                            x       y       z     vdW  Elec       q    Type
REMARK                         _______ _______ _______ _____ _____    ______ ____
ROOT
ATOM      1  C   UNL     1      42.790 -15.738 -35.950  0.00  0.00    -0.062 C 
ATOM      2  C   UNL     1      44.104 -16.424 -35.559  0.00  0.00    -0.034 C 
ENDROOT
BRANCH   2   3
ATOM      3  C   UNL     1      45.320 -15.818 -36.289  0.00  0.00    -0.049 C 
BRANCH   3   4
ATOM      4  C   UNL     1      45.908 -16.670 -37.437  0.00  0.00    -0.046 C 
BRANCH   4   5
ATOM      5  C   UNL     1      45.534 -18.219 -37.354  0.00  0.00    -0.012 C 
ATOM      6  C   UNL     1      46.808 -18.900 -36.839  0.00  0.00    -0.045 C 
ATOM      7  C   UNL     1      47.493 -19.620 -37.725  0.00  0.00    -0.082 C 
ATOM      8  C   UNL     1      46.856 -19.839 -39.044  0.00  0.00    -0.031 C 
ATOM      9  C   UNL     1      45.256 -19.719 -38.945  0.00  0.00    -0.027 C 
ATOM     10  C   UNL     1      44.577 -20.822 -40.049  0.00  0.00    -0.031 C 
ATOM     11  C   UNL     1      43.226 -21.370 -39.495  0.00  0.00    -0.060 C 
ATOM     12  C   UNL     1      45.439 -22.075 -40.329  0.00  0.00    -0.060 C 
ATOM     13  C   UNL     1      44.289 -20.122 -41.397  0.00  0.00    -0.048 C 
ATOM     14  C   UNL     1      45.263 -18.982 -41.565  0.00  0.00    -0.052 C 
ATOM     15  C   UNL     1      45.201 -18.106 -40.302  0.00  0.00    -0.047 C 
ATOM     16  C   UNL     1      44.609 -18.967 -38.817  0.00  0.00    -0.022 C 
ATOM     17  C   UNL     1      43.962 -18.216 -38.689  0.00  0.00    -0.059 C 
BRANCH   6  18
ATOM     18  C   UNL     1      47.232 -18.663 -35.412  0.00  0.00    +0.066 C 
BRANCH  18  19
ATOM     19  O   UNL     1      48.491 -18.007 -35.345  0.00  0.00    -0.391 OA
ATOM     20  H   UNL     1      49.105 -18.539 -34.817  0.00  0.00    +0.000 HD
ENDBRANCH  18  19
ENDBRANCH   6  18
ENDBRANCH   4   5
ENDBRANCH   3   4
ENDBRANCH   2   3
BRANCH   2  21
ATOM     21  C   UNL     1      44.308 -16.415 -34.033  0.00  0.00    +0.048 C 
BRANCH  21  22
ATOM     22  C   UNL     1      44.225 -17.781 -33.392  0.00  0.00    +0.307 C 
ATOM     23  O   UNL     1      45.012 -18.199 -32.556  0.00  0.00    -0.251 OA
BRANCH  22  24
ATOM     24  O   UNL     1      43.138 -18.442 -33.872  0.00  0.00    -0.465 OA
BRANCH  24  25
ATOM     25  C   UNL     1      43.216 -19.871 -33.968  0.00  0.00    +0.092 C 
BRANCH  25  26
ATOM     26  C   UNL     1      43.465 -20.248 -35.425  0.00  0.00    -0.018 C 
BRANCH  26  27
ATOM     27  C   UNL     1      42.284 -21.009 -36.043  0.00  0.00    -0.049 C 
BRANCH  27  28
ATOM     28  C   UNL     1      40.931 -20.512 -35.525  0.00  0.00    -0.040 C 
BRANCH  28  29
ATOM     29  C   UNL     1      39.738 -21.023 -36.349  0.00  0.00    -0.001 C 
BRANCH  29  30
ATOM     30  N   UNL     1      38.759 -21.743 -35.521  0.00  0.00    -0.298 N 
ATOM     31  C   UNL     1      38.413 -20.947 -34.321  0.00  0.00    +0.022 C 
ATOM     32  C   UNL     1      37.452 -21.712 -33.397  0.00  0.00    +0.060 C 
ATOM     33  O   UNL     1      38.018 -22.960 -32.980  0.00  0.00    -0.377 OA
ATOM     34  C   UNL     1      38.316 -23.767 -34.126  0.00  0.00    +0.060 C 
ATOM     35  C   UNL     1      39.294 -23.051 -35.070  0.00  0.00    +0.022 C 
ATOM     36  H   UNL     1      37.931 -21.894 -36.096  0.00  0.00    +0.000 HD
ENDBRANCH  29  30
ENDBRANCH  28  29
ENDBRANCH  27  28
ENDBRANCH  26  27
ENDBRANCH  25  26
ENDBRANCH  24  25
ENDBRANCH  22  24
ENDBRANCH  21  22
ENDBRANCH   2  21
TORSDOF 14
ENDMDL
MODEL 15
REMARK VINA RESULT:    -5.958     17.105     19.594
REMARK INTER + INTRA:         -12.481
REMARK INTER:                  -9.695
REMARK INTRA:                  -2.786
REMARK UNBOUND:                -1.821
REMARK  Name = cpd290.pdb
REMARK  18 active torsions:
REMARK  status: ('A' for Active; 'I' for Inactive)
REMARK    1  A    between atoms: C_1  and  C_2
REMARK    2  A    between atoms: C_2  and  C_3
REMARK    3  A    between atoms: C_2  and  C_20
REMARK    4  A    between atoms: C_3  and  C_4
REMARK    5  A    between atoms: C_4  and  C_5
REMARK    6  A    between atoms: C_6  and  C_7
REMARK    7  A    between atoms: C_7  and  O_8
REMARK    8  A    between atoms: C_12  and  C_13
REMARK    9  A    between atoms: C_12  and  C_14
REMARK   10  A    between atoms: C_18  and  C_19
REMARK   11  A    between atoms: C_20  and  C_21
REMARK   12  A    between atoms: C_21  and  O_23
REMARK   13  A    between atoms: O_23  and  C_24
REMARK   14  A    between atoms: C_24  and  C_25
REMARK   15  A    between atoms: C_25  and  C_26
REMARK   16  A    between atoms: C_26  and  C_27
REMARK   17  A    between atoms: C_27  and  C_28
REMARK   18  A    between atoms: C_28  and  N_29
REMARK                            x       y       z     vdW  Elec       q    Type
REMARK                         _______ _______ _______ _____ _____    ______ ____
ROOT
ATOM      1  C   UNL     1      42.491 -16.372 -35.942  0.00  0.00    -0.062 C 
ATOM      2  C   UNL     1      43.781 -16.659 -35.163  0.00  0.00    -0.034 C 
ENDROOT
BRANCH   2   3
ATOM      3  C   UNL     1      44.993 -15.898 -35.740  0.00  0.00    -0.049 C 
BRANCH   3   4
ATOM      4  C   UNL     1      45.740 -16.604 -36.894  0.00  0.00    -0.046 C 
BRANCH   4   5
ATOM      5  C   UNL     1      45.477 -18.175 -36.975  0.00  0.00    -0.012 C 
ATOM      6  C   UNL     1      46.672 -18.807 -36.250  0.00  0.00    -0.045 C 
ATOM      7  C   UNL     1      47.573 -19.419 -37.017  0.00  0.00    -0.082 C 
ATOM      8  C   UNL     1      47.229 -19.587 -38.448  0.00  0.00    -0.031 C 
ATOM      9  C   UNL     1      45.637 -19.576 -38.670  0.00  0.00    -0.027 C 
ATOM     10  C   UNL     1      45.278 -20.641 -39.948  0.00  0.00    -0.031 C 
ATOM     11  C   UNL     1      43.890 -21.311 -39.711  0.00  0.00    -0.060 C 
ATOM     12  C   UNL     1      46.272 -21.814 -40.116  0.00  0.00    -0.060 C 
ATOM     13  C   UNL     1      45.210 -19.869 -41.285  0.00  0.00    -0.048 C 
ATOM     14  C   UNL     1      46.108 -18.660 -41.189  0.00  0.00    -0.052 C 
ATOM     15  C   UNL     1      45.729 -17.880 -39.919  0.00  0.00    -0.047 C 
ATOM     16  C   UNL     1      44.921 -18.878 -38.635  0.00  0.00    -0.022 C 
ATOM     17  C   UNL     1      44.206 -18.181 -38.599  0.00  0.00    -0.059 C 
BRANCH   6  18
ATOM     18  C   UNL     1      46.784 -18.644 -34.757  0.00  0.00    +0.066 C 
BRANCH  18  19
ATOM     19  O   UNL     1      45.796 -19.405 -34.074  0.00  0.00    -0.391 OA
ATOM     20  H   UNL     1      45.388 -20.031 -34.692  0.00  0.00    +0.000 HD
ENDBRANCH  18  19
ENDBRANCH   6  18
ENDBRANCH   4   5
ENDBRANCH   3   4
ENDBRANCH   2   3
BRANCH   2  21
ATOM     21  C   UNL     1      43.604 -16.369 -33.661  0.00  0.00    +0.048 C 
BRANCH  21  22
ATOM     22  C   UNL     1      42.950 -17.491 -32.890  0.00  0.00    +0.307 C 
ATOM     23  O   UNL     1      43.507 -18.537 -32.589  0.00  0.00    -0.251 OA
BRANCH  22  24
ATOM     24  O   UNL     1      41.676 -17.142 -32.572  0.00  0.00    -0.465 OA
BRANCH  24  25
ATOM     25  C   UNL     1      40.611 -17.932 -33.118  0.00  0.00    +0.092 C 
BRANCH  25  26
ATOM     26  C   UNL     1      40.006 -18.774 -32.000  0.00  0.00    -0.018 C 
BRANCH  26  27
ATOM     27  C   UNL     1      39.715 -20.215 -32.443  0.00  0.00    -0.049 C 
BRANCH  27  28
ATOM     28  C   UNL     1      40.984 -21.070 -32.519  0.00  0.00    -0.040 C 
BRANCH  28  29
ATOM     29  C   UNL     1      40.813 -22.338 -33.372  0.00  0.00    -0.001 C 
BRANCH  29  30
ATOM     30  N   UNL     1      41.394 -22.186 -34.714  0.00  0.00    -0.298 N 
ATOM     31  C   UNL     1      42.105 -20.893 -34.826  0.00  0.00    +0.022 C 
ATOM     32  C   UNL     1      42.653 -20.674 -36.245  0.00  0.00    +0.060 C 
ATOM     33  O   UNL     1      41.603 -20.711 -37.218  0.00  0.00    -0.377 OA
ATOM     34  C   UNL     1      40.930 -21.976 -37.160  0.00  0.00    +0.060 C 
ATOM     35  C   UNL     1      40.345 -22.229 -35.762  0.00  0.00    +0.022 C 
ATOM     36  H   UNL     1      42.043 -22.961 -34.851  0.00  0.00    +0.000 HD
ENDBRANCH  29  30
ENDBRANCH  28  29
ENDBRANCH  27  28
ENDBRANCH  26  27
ENDBRANCH  25  26
ENDBRANCH  24  25
ENDBRANCH  22  24
ENDBRANCH  21  22
ENDBRANCH   2  21
TORSDOF 14
ENDMDL
MODEL 16
REMARK VINA RESULT:    -5.915     16.977     19.488
REMARK INTER + INTRA:         -12.405
REMARK INTER:                  -9.873
REMARK INTRA:                  -2.532
REMARK UNBOUND:                -1.821
REMARK  Name = cpd290.pdb
REMARK  18 active torsions:
REMARK  status: ('A' for Active; 'I' for Inactive)
REMARK    1  A    between atoms: C_1  and  C_2
REMARK    2  A    between atoms: C_2  and  C_3
REMARK    3  A    between atoms: C_2  and  C_20
REMARK    4  A    between atoms: C_3  and  C_4
REMARK    5  A    between atoms: C_4  and  C_5
REMARK    6  A    between atoms: C_6  and  C_7
REMARK    7  A    between atoms: C_7  and  O_8
REMARK    8  A    between atoms: C_12  and  C_13
REMARK    9  A    between atoms: C_12  and  C_14
REMARK   10  A    between atoms: C_18  and  C_19
REMARK   11  A    between atoms: C_20  and  C_21
REMARK   12  A    between atoms: C_21  and  O_23
REMARK   13  A    between atoms: O_23  and  C_24
REMARK   14  A    between atoms: C_24  and  C_25
REMARK   15  A    between atoms: C_25  and  C_26
REMARK   16  A    between atoms: C_26  and  C_27
REMARK   17  A    between atoms: C_27  and  C_28
REMARK   18  A    between atoms: C_28  and  N_29
REMARK                            x       y       z     vdW  Elec       q    Type
REMARK                         _______ _______ _______ _____ _____    ______ ____
ROOT
ATOM      1  C   UNL     1      41.331 -21.016 -40.339  0.00  0.00    -0.062 C 
ATOM      2  C   UNL     1      42.284 -21.932 -39.560  0.00  0.00    -0.034 C 
ENDROOT
BRANCH   2   3
ATOM      3  C   UNL     1      43.723 -21.884 -40.113  0.00  0.00    -0.049 C 
BRANCH   3   4
ATOM      4  C   UNL     1      43.908 -21.105 -41.436  0.00  0.00    -0.046 C 
BRANCH   4   5
ATOM      5  C   UNL     1      45.172 -20.133 -41.447  0.00  0.00    -0.012 C 
ATOM      6  C   UNL     1      46.308 -20.964 -40.838  0.00  0.00    -0.045 C 
ATOM      7  C   UNL     1      46.686 -20.634 -39.604  0.00  0.00    -0.082 C 
ATOM      8  C   UNL     1      46.108 -19.394 -39.036  0.00  0.00    -0.031 C 
ATOM      9  C   UNL     1      45.650 -18.380 -40.197  0.00  0.00    -0.027 C 
ATOM     10  C   UNL     1      45.913 -16.794 -39.642  0.00  0.00    -0.031 C 
ATOM     11  C   UNL     1      46.297 -15.866 -40.836  0.00  0.00    -0.060 C 
ATOM     12  C   UNL     1      47.069 -16.644 -38.625  0.00  0.00    -0.060 C 
ATOM     13  C   UNL     1      44.626 -16.231 -38.998  0.00  0.00    -0.048 C 
ATOM     14  C   UNL     1      43.821 -17.382 -38.447  0.00  0.00    -0.052 C 
ATOM     15  C   UNL     1      43.638 -18.421 -39.567  0.00  0.00    -0.047 C 
ATOM     16  C   UNL     1      44.907 -18.358 -40.865  0.00  0.00    -0.022 C 
ATOM     17  C   UNL     1      44.163 -18.336 -41.533  0.00  0.00    -0.059 C 
BRANCH   6  18
ATOM     18  C   UNL     1      46.868 -22.118 -41.628  0.00  0.00    +0.066 C 
BRANCH  18  19
ATOM     19  O   UNL     1      47.788 -21.674 -42.616  0.00  0.00    -0.391 OA
ATOM     20  H   UNL     1      47.932 -22.380 -43.265  0.00  0.00    +0.000 HD
ENDBRANCH  18  19
ENDBRANCH   6  18
ENDBRANCH   4   5
ENDBRANCH   3   4
ENDBRANCH   2   3
BRANCH   2  21
ATOM     21  C   UNL     1      42.255 -21.617 -38.053  0.00  0.00    +0.048 C 
BRANCH  21  22
ATOM     22  C   UNL     1      40.930 -21.905 -37.388  0.00  0.00    +0.307 C 
ATOM     23  O   UNL     1      40.335 -22.970 -37.467  0.00  0.00    -0.251 OA
BRANCH  22  24
ATOM     24  O   UNL     1      40.529 -20.814 -36.682  0.00  0.00    -0.465 OA
BRANCH  24  25
ATOM     25  C   UNL     1      39.426 -20.055 -37.196  0.00  0.00    +0.092 C 
BRANCH  25  26
ATOM     26  C   UNL     1      39.501 -18.642 -36.627  0.00  0.00    -0.018 C 
BRANCH  26  27
ATOM     27  C   UNL     1      40.732 -18.435 -35.733  0.00  0.00    -0.049 C 
BRANCH  27  28
ATOM     28  C   UNL     1      40.362 -18.292 -34.253  0.00  0.00    -0.040 C 
BRANCH  28  29
ATOM     29  C   UNL     1      40.956 -19.400 -33.368  0.00  0.00    -0.001 C 
BRANCH  29  30
ATOM     30  N   UNL     1      40.396 -20.723 -33.685  0.00  0.00    -0.298 N 
ATOM     31  C   UNL     1      38.931 -20.728 -33.470  0.00  0.00    +0.022 C 
ATOM     32  C   UNL     1      38.332 -22.121 -33.717  0.00  0.00    +0.060 C 
ATOM     33  O   UNL     1      38.931 -23.102 -32.860  0.00  0.00    -0.377 OA
ATOM     34  C   UNL     1      40.345 -23.147 -33.086  0.00  0.00    +0.060 C 
ATOM     35  C   UNL     1      40.992 -21.778 -32.830  0.00  0.00    +0.022 C 
ATOM     36  H   UNL     1      40.612 -20.915 -34.663  0.00  0.00    +0.000 HD
ENDBRANCH  29  30
ENDBRANCH  28  29
ENDBRANCH  27  28
ENDBRANCH  26  27
ENDBRANCH  25  26
ENDBRANCH  24  25
ENDBRANCH  22  24
ENDBRANCH  21  22
ENDBRANCH   2  21
TORSDOF 14
ENDMDL
MODEL 17
REMARK VINA RESULT:    -5.872     16.904     20.495
REMARK INTER + INTRA:         -12.328
REMARK INTER:                 -10.211
REMARK INTRA:                  -2.118
REMARK UNBOUND:                -1.821
REMARK  Name = cpd290.pdb
REMARK  18 active torsions:
REMARK  status: ('A' for Active; 'I' for Inactive)
REMARK    1  A    between atoms: C_1  and  C_2
REMARK    2  A    between atoms: C_2  and  C_3
REMARK    3  A    between atoms: C_2  and  C_20
REMARK    4  A    between atoms: C_3  and  C_4
REMARK    5  A    between atoms: C_4  and  C_5
REMARK    6  A    between atoms: C_6  and  C_7
REMARK    7  A    between atoms: C_7  and  O_8
REMARK    8  A    between atoms: C_12  and  C_13
REMARK    9  A    between atoms: C_12  and  C_14
REMARK   10  A    between atoms: C_18  and  C_19
REMARK   11  A    between atoms: C_20  and  C_21
REMARK   12  A    between atoms: C_21  and  O_23
REMARK   13  A    between atoms: O_23  and  C_24
REMARK   14  A    between atoms: C_24  and  C_25
REMARK   15  A    between atoms: C_25  and  C_26
REMARK   16  A    between atoms: C_26  and  C_27
REMARK   17  A    between atoms: C_27  and  C_28
REMARK   18  A    between atoms: C_28  and  N_29
REMARK                            x       y       z     vdW  Elec       q    Type
REMARK                         _______ _______ _______ _____ _____    ______ ____
ROOT
ATOM      1  C   UNL     1      42.379 -17.204 -39.516  0.00  0.00    -0.062 C 
ATOM      2  C   UNL     1      43.561 -18.182 -39.534  0.00  0.00    -0.034 C 
ENDROOT
BRANCH   2   3
ATOM      3  C   UNL     1      43.138 -19.618 -39.162  0.00  0.00    -0.049 C 
BRANCH   3   4
ATOM      4  C   UNL     1      41.730 -19.762 -38.539  0.00  0.00    -0.046 C 
BRANCH   4   5
ATOM      5  C   UNL     1      41.609 -20.943 -37.473  0.00  0.00    -0.012 C 
ATOM      6  C   UNL     1      40.684 -21.971 -38.135  0.00  0.00    -0.045 C 
ATOM      7  C   UNL     1      39.451 -22.063 -37.639  0.00  0.00    -0.082 C 
ATOM      8  C   UNL     1      39.173 -21.308 -36.396  0.00  0.00    -0.031 C 
ATOM      9  C   UNL     1      40.520 -21.048 -35.559  0.00  0.00    -0.027 C 
ATOM     10  C   UNL     1      40.129 -21.098 -33.904  0.00  0.00    -0.031 C 
ATOM     11  C   UNL     1      41.328 -21.669 -33.088  0.00  0.00    -0.060 C 
ATOM     12  C   UNL     1      38.927 -22.003 -33.547  0.00  0.00    -0.060 C 
ATOM     13  C   UNL     1      39.833 -19.673 -33.380  0.00  0.00    -0.048 C 
ATOM     14  C   UNL     1      39.315 -18.837 -34.524  0.00  0.00    -0.052 C 
ATOM     15  C   UNL     1      40.309 -18.954 -35.693  0.00  0.00    -0.047 C 
ATOM     16  C   UNL     1      41.322 -20.461 -35.672  0.00  0.00    -0.022 C 
ATOM     17  C   UNL     1      42.124 -19.874 -35.786  0.00  0.00    -0.059 C 
BRANCH   6  18
ATOM     18  C   UNL     1      41.193 -22.749 -39.321  0.00  0.00    +0.066 C 
BRANCH  18  19
ATOM     19  O   UNL     1      40.379 -23.883 -39.587  0.00  0.00    -0.391 OA
ATOM     20  H   UNL     1      40.563 -24.574 -38.932  0.00  0.00    +0.000 HD
ENDBRANCH  18  19
ENDBRANCH   6  18
ENDBRANCH   4   5
ENDBRANCH   3   4
ENDBRANCH   2   3
BRANCH   2  21
ATOM     21  C   UNL     1      44.295 -18.149 -40.887  0.00  0.00    +0.048 C 
BRANCH  21  22
ATOM     22  C   UNL     1      45.677 -17.542 -40.825  0.00  0.00    +0.307 C 
ATOM     23  O   UNL     1      45.917 -16.414 -40.423  0.00  0.00    -0.251 OA
BRANCH  22  24
ATOM     24  O   UNL     1      46.591 -18.451 -41.257  0.00  0.00    -0.465 OA
BRANCH  24  25
ATOM     25  C   UNL     1      46.130 -19.779 -41.540  0.00  0.00    +0.092 C 
BRANCH  25  26
ATOM     26  C   UNL     1      47.255 -20.761 -41.230  0.00  0.00    -0.018 C 
BRANCH  26  27
ATOM     27  C   UNL     1      46.887 -21.735 -40.101  0.00  0.00    -0.049 C 
BRANCH  27  28
ATOM     28  C   UNL     1      46.226 -21.031 -38.913  0.00  0.00    -0.040 C 
BRANCH  28  29
ATOM     29  C   UNL     1      47.146 -20.009 -38.223  0.00  0.00    -0.001 C 
BRANCH  29  30
ATOM     30  N   UNL     1      46.448 -19.257 -37.169  0.00  0.00    -0.298 N 
ATOM     31  C   UNL     1      47.173 -18.002 -36.865  0.00  0.00    +0.022 C 
ATOM     32  C   UNL     1      46.509 -17.236 -35.711  0.00  0.00    +0.060 C 
ATOM     33  O   UNL     1      46.448 -18.036 -34.524  0.00  0.00    -0.377 OA
ATOM     34  C   UNL     1      45.708 -19.236 -34.784  0.00  0.00    +0.060 C 
ATOM     35  C   UNL     1      46.350 -20.048 -35.919  0.00  0.00    +0.022 C 
ATOM     36  H   UNL     1      45.512 -19.050 -37.516  0.00  0.00    +0.000 HD
ENDBRANCH  29  30
ENDBRANCH  28  29
ENDBRANCH  27  28
ENDBRANCH  26  27
ENDBRANCH  25  26
ENDBRANCH  24  25
ENDBRANCH  22  24
ENDBRANCH  21  22
ENDBRANCH   2  21
TORSDOF 14
ENDMDL
MODEL 18
REMARK VINA RESULT:    -5.830     17.869     20.626
REMARK INTER + INTRA:         -12.253
REMARK INTER:                 -10.040
REMARK INTRA:                  -2.213
REMARK UNBOUND:                -1.821
REMARK  Name = cpd290.pdb
REMARK  18 active torsions:
REMARK  status: ('A' for Active; 'I' for Inactive)
REMARK    1  A    between atoms: C_1  and  C_2
REMARK    2  A    between atoms: C_2  and  C_3
REMARK    3  A    between atoms: C_2  and  C_20
REMARK    4  A    between atoms: C_3  and  C_4
REMARK    5  A    between atoms: C_4  and  C_5
REMARK    6  A    between atoms: C_6  and  C_7
REMARK    7  A    between atoms: C_7  and  O_8
REMARK    8  A    between atoms: C_12  and  C_13
REMARK    9  A    between atoms: C_12  and  C_14
REMARK   10  A    between atoms: C_18  and  C_19
REMARK   11  A    between atoms: C_20  and  C_21
REMARK   12  A    between atoms: C_21  and  O_23
REMARK   13  A    between atoms: O_23  and  C_24
REMARK   14  A    between atoms: C_24  and  C_25
REMARK   15  A    between atoms: C_25  and  C_26
REMARK   16  A    between atoms: C_26  and  C_27
REMARK   17  A    between atoms: C_27  and  C_28
REMARK   18  A    between atoms: C_28  and  N_29
REMARK                            x       y       z     vdW  Elec       q    Type
REMARK                         _______ _______ _______ _____ _____    ______ ____
ROOT
ATOM      1  C   UNL     1      41.444 -21.482 -41.174  0.00  0.00    -0.062 C 
ATOM      2  C   UNL     1      42.343 -21.998 -40.044  0.00  0.00    -0.034 C 
ENDROOT
BRANCH   2   3
ATOM      3  C   UNL     1      43.840 -21.759 -40.332  0.00  0.00    -0.049 C 
BRANCH   3   4
ATOM      4  C   UNL     1      44.161 -21.059 -41.672  0.00  0.00    -0.046 C 
BRANCH   4   5
ATOM      5  C   UNL     1      45.420 -20.081 -41.609  0.00  0.00    -0.012 C 
ATOM      6  C   UNL     1      46.531 -20.919 -40.964  0.00  0.00    -0.045 C 
ATOM      7  C   UNL     1      46.852 -20.609 -39.709  0.00  0.00    -0.082 C 
ATOM      8  C   UNL     1      46.243 -19.382 -39.146  0.00  0.00    -0.031 C 
ATOM      9  C   UNL     1      45.833 -18.349 -40.309  0.00  0.00    -0.027 C 
ATOM     10  C   UNL     1      46.064 -16.771 -39.715  0.00  0.00    -0.031 C 
ATOM     11  C   UNL     1      46.496 -15.822 -40.874  0.00  0.00    -0.060 C 
ATOM     12  C   UNL     1      47.172 -16.635 -38.644  0.00  0.00    -0.060 C 
ATOM     13  C   UNL     1      44.746 -16.225 -39.119  0.00  0.00    -0.048 C 
ATOM     14  C   UNL     1      43.922 -17.389 -38.625  0.00  0.00    -0.052 C 
ATOM     15  C   UNL     1      43.795 -18.408 -39.771  0.00  0.00    -0.047 C 
ATOM     16  C   UNL     1      45.121 -18.318 -41.009  0.00  0.00    -0.022 C 
ATOM     17  C   UNL     1      44.408 -18.287 -41.710  0.00  0.00    -0.059 C 
BRANCH   6  18
ATOM     18  C   UNL     1      47.131 -22.056 -41.748  0.00  0.00    +0.066 C 
BRANCH  18  19
ATOM     19  O   UNL     1      48.142 -21.599 -42.637  0.00  0.00    -0.391 OA
ATOM     20  H   UNL     1      48.678 -22.352 -42.932  0.00  0.00    +0.000 HD
ENDBRANCH  18  19
ENDBRANCH   6  18
ENDBRANCH   4   5
ENDBRANCH   3   4
ENDBRANCH   2   3
BRANCH   2  21
ATOM     21  C   UNL     1      41.934 -21.399 -38.686  0.00  0.00    +0.048 C 
BRANCH  21  22
ATOM     22  C   UNL     1      40.821 -22.148 -37.992  0.00  0.00    +0.307 C 
ATOM     23  O   UNL     1      39.667 -22.195 -38.392  0.00  0.00    -0.251 OA
BRANCH  22  24
ATOM     24  O   UNL     1      41.312 -22.768 -36.886  0.00  0.00    -0.465 OA
BRANCH  24  25
ATOM     25  C   UNL     1      41.560 -21.963 -35.725  0.00  0.00    +0.092 C 
BRANCH  25  26
ATOM     26  C   UNL     1      40.225 -21.462 -35.185  0.00  0.00    -0.018 C 
BRANCH  26  27
ATOM     27  C   UNL     1      40.118 -19.931 -35.214  0.00  0.00    -0.049 C 
BRANCH  27  28
ATOM     28  C   UNL     1      41.482 -19.253 -35.385  0.00  0.00    -0.040 C 
BRANCH  28  29
ATOM     29  C   UNL     1      41.991 -18.579 -34.100  0.00  0.00    -0.001 C 
BRANCH  29  30
ATOM     30  N   UNL     1      43.316 -17.967 -34.282  0.00  0.00    -0.298 N 
ATOM     31  C   UNL     1      44.206 -18.880 -35.034  0.00  0.00    +0.022 C 
ATOM     32  C   UNL     1      45.623 -18.299 -35.168  0.00  0.00    +0.060 C 
ATOM     33  O   UNL     1      46.201 -18.041 -33.883  0.00  0.00    -0.377 OA
ATOM     34  C   UNL     1      45.378 -17.120 -33.155  0.00  0.00    +0.060 C 
ATOM     35  C   UNL     1      43.955 -17.670 -32.977  0.00  0.00    +0.022 C 
ATOM     36  H   UNL     1      43.179 -17.099 -34.799  0.00  0.00    +0.000 HD
ENDBRANCH  29  30
ENDBRANCH  28  29
ENDBRANCH  27  28
ENDBRANCH  26  27
ENDBRANCH  25  26
ENDBRANCH  24  25
ENDBRANCH  22  24
ENDBRANCH  21  22
ENDBRANCH   2  21
TORSDOF 14
ENDMDL
MODEL 19
REMARK VINA RESULT:    -5.769     17.192     19.993
REMARK INTER + INTRA:         -12.144
REMARK INTER:                 -10.300
REMARK INTRA:                  -1.844
REMARK UNBOUND:                -1.821
REMARK  Name = cpd290.pdb
REMARK  18 active torsions:
REMARK  status: ('A' for Active; 'I' for Inactive)
REMARK    1  A    between atoms: C_1  and  C_2
REMARK    2  A    between atoms: C_2  and  C_3
REMARK    3  A    between atoms: C_2  and  C_20
REMARK    4  A    between atoms: C_3  and  C_4
REMARK    5  A    between atoms: C_4  and  C_5
REMARK    6  A    between atoms: C_6  and  C_7
REMARK    7  A    between atoms: C_7  and  O_8
REMARK    8  A    between atoms: C_12  and  C_13
REMARK    9  A    between atoms: C_12  and  C_14
REMARK   10  A    between atoms: C_18  and  C_19
REMARK   11  A    between atoms: C_20  and  C_21
REMARK   12  A    between atoms: C_21  and  O_23
REMARK   13  A    between atoms: O_23  and  C_24
REMARK   14  A    between atoms: C_24  and  C_25
REMARK   15  A    between atoms: C_25  and  C_26
REMARK   16  A    between atoms: C_26  and  C_27
REMARK   17  A    between atoms: C_27  and  C_28
REMARK   18  A    between atoms: C_28  and  N_29
REMARK                            x       y       z     vdW  Elec       q    Type
REMARK                         _______ _______ _______ _____ _____    ______ ____
ROOT
ATOM      1  C   UNL     1      40.479 -18.104 -37.562  0.00  0.00    -0.062 C 
ATOM      2  C   UNL     1      41.595 -18.902 -38.249  0.00  0.00    -0.034 C 
ENDROOT
BRANCH   2   3
ATOM      3  C   UNL     1      42.877 -18.066 -38.444  0.00  0.00    -0.049 C 
BRANCH   3   4
ATOM      4  C   UNL     1      43.705 -18.393 -39.707  0.00  0.00    -0.046 C 
BRANCH   4   5
ATOM      5  C   UNL     1      45.136 -19.027 -39.400  0.00  0.00    -0.012 C 
ATOM      6  C   UNL     1      46.130 -17.889 -39.659  0.00  0.00    -0.045 C 
ATOM      7  C   UNL     1      46.871 -17.990 -40.761  0.00  0.00    -0.082 C 
ATOM      8  C   UNL     1      46.791 -19.267 -41.506  0.00  0.00    -0.031 C 
ATOM      9  C   UNL     1      46.343 -20.475 -40.544  0.00  0.00    -0.027 C 
ATOM     10  C   UNL     1      47.136 -21.886 -41.069  0.00  0.00    -0.031 C 
ATOM     11  C   UNL     1      47.443 -22.811 -39.851  0.00  0.00    -0.060 C 
ATOM     12  C   UNL     1      48.504 -21.648 -41.752  0.00  0.00    -0.060 C 
ATOM     13  C   UNL     1      46.237 -22.673 -42.049  0.00  0.00    -0.048 C 
ATOM     14  C   UNL     1      45.321 -21.700 -42.749  0.00  0.00    -0.052 C 
ATOM     15  C   UNL     1      44.607 -20.857 -41.679  0.00  0.00    -0.047 C 
ATOM     16  C   UNL     1      45.491 -20.744 -40.096  0.00  0.00    -0.022 C 
ATOM     17  C   UNL     1      44.638 -21.014 -39.648  0.00  0.00    -0.059 C 
BRANCH   6  18
ATOM     18  C   UNL     1      46.161 -16.721 -38.707  0.00  0.00    +0.066 C 
BRANCH  18  19
ATOM     19  O   UNL     1      45.922 -15.493 -39.382  0.00  0.00    -0.391 OA
ATOM     20  H   UNL     1      45.007 -15.475 -39.704  0.00  0.00    +0.000 HD
ENDBRANCH  18  19
ENDBRANCH   6  18
ENDBRANCH   4   5
ENDBRANCH   3   4
ENDBRANCH   2   3
BRANCH   2  21
ATOM     21  C   UNL     1      41.892 -20.211 -37.495  0.00  0.00    +0.048 C 
BRANCH  21  22
ATOM     22  C   UNL     1      40.882 -21.307 -37.740  0.00  0.00    +0.307 C 
ATOM     23  O   UNL     1      40.092 -21.321 -38.673  0.00  0.00    -0.251 OA
BRANCH  22  24
ATOM     24  O   UNL     1      41.011 -22.266 -36.785  0.00  0.00    -0.465 OA
BRANCH  24  25
ATOM     25  C   UNL     1      39.813 -22.780 -36.189  0.00  0.00    +0.092 C 
BRANCH  25  26
ATOM     26  C   UNL     1      39.950 -22.699 -34.672  0.00  0.00    -0.018 C 
BRANCH  26  27
ATOM     27  C   UNL     1      40.064 -21.253 -34.170  0.00  0.00    -0.049 C 
BRANCH  27  28
ATOM     28  C   UNL     1      41.092 -21.104 -33.045  0.00  0.00    -0.040 C 
BRANCH  28  29
ATOM     29  C   UNL     1      41.469 -19.642 -32.754  0.00  0.00    -0.001 C 
BRANCH  29  30
ATOM     30  N   UNL     1      42.919 -19.412 -32.853  0.00  0.00    -0.298 N 
ATOM     31  C   UNL     1      43.219 -17.966 -32.752  0.00  0.00    +0.022 C 
ATOM     32  C   UNL     1      44.720 -17.690 -32.933  0.00  0.00    +0.060 C 
ATOM     33  O   UNL     1      45.188 -18.176 -34.197  0.00  0.00    -0.377 OA
ATOM     34  C   UNL     1      44.950 -19.586 -34.296  0.00  0.00    +0.060 C 
ATOM     35  C   UNL     1      43.455 -19.908 -34.143  0.00  0.00    +0.022 C 
ATOM     36  H   UNL     1      43.357 -19.920 -32.085  0.00  0.00    +0.000 HD
ENDBRANCH  29  30
ENDBRANCH  28  29
ENDBRANCH  27  28
ENDBRANCH  26  27
ENDBRANCH  25  26
ENDBRANCH  24  25
ENDBRANCH  22  24
ENDBRANCH  21  22
ENDBRANCH   2  21
TORSDOF 14
ENDMDL
MODEL 20
REMARK VINA RESULT:    -5.741     17.637     20.251
REMARK INTER + INTRA:         -12.094
REMARK INTER:                 -10.088
REMARK INTRA:                  -2.006
REMARK UNBOUND:                -1.821
REMARK  Name = cpd290.pdb
REMARK  18 active torsions:
REMARK  status: ('A' for Active; 'I' for Inactive)
REMARK    1  A    between atoms: C_1  and  C_2
REMARK    2  A    between atoms: C_2  and  C_3
REMARK    3  A    between atoms: C_2  and  C_20
REMARK    4  A    between atoms: C_3  and  C_4
REMARK    5  A    between atoms: C_4  and  C_5
REMARK    6  A    between atoms: C_6  and  C_7
REMARK    7  A    between atoms: C_7  and  O_8
REMARK    8  A    between atoms: C_12  and  C_13
REMARK    9  A    between atoms: C_12  and  C_14
REMARK   10  A    between atoms: C_18  and  C_19
REMARK   11  A    between atoms: C_20  and  C_21
REMARK   12  A    between atoms: C_21  and  O_23
REMARK   13  A    between atoms: O_23  and  C_24
REMARK   14  A    between atoms: C_24  and  C_25
REMARK   15  A    between atoms: C_25  and  C_26
REMARK   16  A    between atoms: C_26  and  C_27
REMARK   17  A    between atoms: C_27  and  C_28
REMARK   18  A    between atoms: C_28  and  N_29
REMARK                            x       y       z     vdW  Elec       q    Type
REMARK                         _______ _______ _______ _____ _____    ______ ____
ROOT
ATOM      1  C   UNL     1      48.073 -19.101 -34.963  0.00  0.00    -0.062 C 
ATOM      2  C   UNL     1      47.012 -18.004 -35.113  0.00  0.00    -0.034 C 
ENDROOT
BRANCH   2   3
ATOM      3  C   UNL     1      47.152 -17.233 -36.443  0.00  0.00    -0.049 C 
BRANCH   3   4
ATOM      4  C   UNL     1      46.009 -17.442 -37.462  0.00  0.00    -0.046 C 
BRANCH   4   5
ATOM      5  C   UNL     1      46.501 -17.919 -38.902  0.00  0.00    -0.012 C 
ATOM      6  C   UNL     1      46.457 -16.653 -39.767  0.00  0.00    -0.045 C 
ATOM      7  C   UNL     1      45.479 -16.587 -40.669  0.00  0.00    -0.082 C 
ATOM      8  C   UNL     1      44.667 -17.810 -40.866  0.00  0.00    -0.031 C 
ATOM      9  C   UNL     1      45.485 -19.127 -40.442  0.00  0.00    -0.027 C 
ATOM     10  C   UNL     1      45.019 -20.392 -41.481  0.00  0.00    -0.031 C 
ATOM     11  C   UNL     1      46.221 -21.355 -41.722  0.00  0.00    -0.060 C 
ATOM     12  C   UNL     1      44.568 -19.943 -42.891  0.00  0.00    -0.060 C 
ATOM     13  C   UNL     1      43.872 -21.211 -40.845  0.00  0.00    -0.048 C 
ATOM     14  C   UNL     1      43.089 -20.309 -39.923  0.00  0.00    -0.052 C 
ATOM     15  C   UNL     1      44.078 -19.635 -38.956  0.00  0.00    -0.047 C 
ATOM     16  C   UNL     1      45.782 -19.528 -39.575  0.00  0.00    -0.022 C 
ATOM     17  C   UNL     1      46.078 -19.929 -38.709  0.00  0.00    -0.059 C 
BRANCH   6  18
ATOM     18  C   UNL     1      47.460 -15.560 -39.505  0.00  0.00    +0.066 C 
BRANCH  18  19
ATOM     19  O   UNL     1      48.398 -15.449 -40.568  0.00  0.00    -0.391 OA
ATOM     20  H   UNL     1      47.935 -15.528 -41.417  0.00  0.00    +0.000 HD
ENDBRANCH  18  19
ENDBRANCH   6  18
ENDBRANCH   4   5
ENDBRANCH   3   4
ENDBRANCH   2   3
BRANCH   2  21
ATOM     21  C   UNL     1      45.591 -18.572 -34.945  0.00  0.00    +0.048 C 
BRANCH  21  22
ATOM     22  C   UNL     1      44.844 -18.020 -33.754  0.00  0.00    +0.307 C 
ATOM     23  O   UNL     1      45.141 -16.988 -33.170  0.00  0.00    -0.251 OA
BRANCH  22  24
ATOM     24  O   UNL     1      43.793 -18.831 -33.461  0.00  0.00    -0.465 OA
BRANCH  24  25
ATOM     25  C   UNL     1      43.166 -19.527 -34.547  0.00  0.00    +0.092 C 
BRANCH  25  26
ATOM     26  C   UNL     1      42.587 -20.835 -34.017  0.00  0.00    -0.018 C 
BRANCH  26  27
ATOM     27  C   UNL     1      41.517 -20.608 -32.939  0.00  0.00    -0.049 C 
BRANCH  27  28
ATOM     28  C   UNL     1      40.123 -20.391 -33.535  0.00  0.00    -0.040 C 
BRANCH  28  29
ATOM     29  C   UNL     1      39.478 -21.684 -34.060  0.00  0.00    -0.001 C 
BRANCH  29  30
ATOM     30  N   UNL     1      39.226 -21.631 -35.508  0.00  0.00    -0.298 N 
ATOM     31  C   UNL     1      40.108 -22.584 -36.220  0.00  0.00    +0.022 C 
ATOM     32  C   UNL     1      39.922 -22.491 -37.743  0.00  0.00    +0.060 C 
ATOM     33  O   UNL     1      40.190 -21.166 -38.218  0.00  0.00    -0.377 OA
ATOM     34  C   UNL     1      39.312 -20.232 -37.576  0.00  0.00    +0.060 C 
ATOM     35  C   UNL     1      39.480 -20.274 -36.049  0.00  0.00    +0.022 C 
ATOM     36  H   UNL     1      38.248 -21.878 -35.653  0.00  0.00    +0.000 HD
ENDBRANCH  29  30
ENDBRANCH  28  29
ENDBRANCH  27  28
ENDBRANCH  26  27
ENDBRANCH  25  26
ENDBRANCH  24  25
ENDBRANCH  22  24
ENDBRANCH  21  22
ENDBRANCH   2  21
TORSDOF 14
ENDMDL
