REMARK  Name = cpd290.pdb
REMARK  18 active torsions:
REMARK  status: ('A' for Active; 'I' for Inactive)
REMARK    1  A    between atoms: C_1  and  C_2
REMARK    2  A    between atoms: C_2  and  C_3
REMARK    3  A    between atoms: C_2  and  C_20
REMARK    4  A    between atoms: C_3  and  C_4
REMARK    5  A    between atoms: C_4  and  C_5
REMARK    6  A    between atoms: C_6  and  C_7
REMARK    7  A    between atoms: C_7  and  O_8
REMARK    8  A    between atoms: C_12  and  C_13
REMARK    9  A    between atoms: C_12  and  C_14
REMARK   10  A    between atoms: C_18  and  C_19
REMARK   11  A    between atoms: C_20  and  C_21
REMARK   12  A    between atoms: C_21  and  O_23
REMARK   13  A    between atoms: O_23  and  C_24
REMARK   14  A    between atoms: C_24  and  C_25
REMARK   15  A    between atoms: C_25  and  C_26
REMARK   16  A    between atoms: C_26  and  C_27
REMARK   17  A    between atoms: C_27  and  C_28
REMARK   18  A    between atoms: C_28  and  N_29
REMARK                            x       y       z     vdW  Elec       q    Type
REMARK                         _______ _______ _______ _____ _____    ______ ____
ROOT
ATOM      1  C   UNL     1      -5.936   0.683  -1.244  0.00  0.00    -0.062 C 
ATOM      2  C   UNL     1      -6.163  -0.605  -0.443  0.00  0.00    -0.034 C 
ENDROOT
BRANCH   2   3
ATOM      3  C   UNL     1      -6.866  -1.696  -1.277  0.00  0.00    -0.049 C 
BRANCH   3   4
ATOM      4  C   UNL     1      -8.345  -1.420  -1.632  0.00  0.00    -0.046 C 
BRANCH   4   5
ATOM      5  C   UNL     1      -9.341  -1.517  -0.390  0.00  0.00    -0.012 C 
ATOM      6  C   UNL     1     -10.018  -2.885  -0.540  0.00  0.00    -0.045 C 
ATOM      7  C   UNL     1     -11.292  -2.875  -0.928  0.00  0.00    -0.082 C 
ATOM      8  C   UNL     1     -11.963  -1.556  -0.986  0.00  0.00    -0.031 C 
ATOM      9  C   UNL     1     -11.258  -0.500   0.000  0.00  0.00    -0.027 C 
ATOM     10  C   UNL     1     -12.465   0.528   0.618  0.00  0.00    -0.031 C 
ATOM     11  C   UNL     1     -12.102   0.966   2.070  0.00  0.00    -0.060 C 
ATOM     12  C   UNL     1     -13.870  -0.110   0.726  0.00  0.00    -0.060 C 
ATOM     13  C   UNL     1     -12.578   1.803  -0.249  0.00  0.00    -0.048 C 
ATOM     14  C   UNL     1     -12.148   1.468  -1.656  0.00  0.00    -0.052 C 
ATOM     15  C   UNL     1     -10.766   0.796  -1.589  0.00  0.00    -0.047 C 
ATOM     16  C   UNL     1     -10.392   0.000   0.000  0.00  0.00    -0.022 C 
ATOM     17  C   UNL     1      -9.526   0.500   0.000  0.00  0.00    -0.059 C 
BRANCH   6  18
ATOM     18  C   UNL     1      -9.200  -4.129  -0.308  0.00  0.00    +0.066 C 
BRANCH  18  19
ATOM     19  O   UNL     1     -10.027  -5.276  -0.163  0.00  0.00    -0.391 OA
ATOM     20  H   UNL     1     -10.610  -5.159   0.603  0.00  0.00    +0.000 HD
ENDBRANCH  18  19
ENDBRANCH   6  18
ENDBRANCH   4   5
ENDBRANCH   3   4
ENDBRANCH   2   3
BRANCH   2  21
ATOM     21  C   UNL     1      -4.847  -1.127   0.162  0.00  0.00    +0.048 C 
BRANCH  21  22
ATOM     22  C   UNL     1      -3.733  -1.302  -0.843  0.00  0.00    +0.307 C 
ATOM     23  O   UNL     1      -3.521  -2.332  -1.466  0.00  0.00    -0.251 OA
BRANCH  22  24
ATOM     24  O   UNL     1      -3.036  -0.140  -0.955  0.00  0.00    -0.465 OA
BRANCH  24  25
ATOM     25  C   UNL     1      -1.934  -0.109  -1.872  0.00  0.00    +0.092 C 
BRANCH  25  26
ATOM     26  C   UNL     1      -0.660   0.199  -1.092  0.00  0.00    -0.018 C 
BRANCH  26  27
ATOM     27  C   UNL     1      -0.710   1.572  -0.407  0.00  0.00    -0.049 C 
BRANCH  27  28
ATOM     28  C   UNL     1       0.496   1.814   0.506  0.00  0.00    -0.040 C 
BRANCH  28  29
ATOM     29  C   UNL     1       1.812   2.012  -0.264  0.00  0.00    -0.001 C 
BRANCH  29  30
ATOM     30  N   UNL     1       2.933   1.290   0.357  0.00  0.00    -0.298 N 
ATOM     31  C   UNL     1       4.223   1.785  -0.174  0.00  0.00    +0.022 C 
ATOM     32  C   UNL     1       5.408   0.992   0.399  0.00  0.00    +0.060 C 
ATOM     33  O   UNL     1       5.289  -0.405   0.103  0.00  0.00    -0.377 OA
ATOM     34  C   UNL     1       4.067  -0.916   0.651  0.00  0.00    +0.060 C 
ATOM     35  C   UNL     1       2.850  -0.166   0.088  0.00  0.00    +0.022 C 
ATOM     36  H   UNL     1       2.877   1.454   1.362  0.00  0.00    +0.000 HD
ENDBRANCH  29  30
ENDBRANCH  28  29
ENDBRANCH  27  28
ENDBRANCH  26  27
ENDBRANCH  25  26
ENDBRANCH  24  25
ENDBRANCH  22  24
ENDBRANCH  21  22
ENDBRANCH   2  21
TORSDOF 14
