@<TRIPOS>MOLECULE
*****
 28 30 0 0 0
SMALL
GASTEIGER

@<TRIPOS>ATOM
      1 C          -6.0622    7.5000    0.0000 C.3     1  UNL1        0.0728
      2 C          -6.9282    7.0000    0.0000 C.2     1  UNL1        0.1603
      3 O          -7.7942    7.5000    0.0000 O.2     1  UNL1       -0.2955
      4 C          -6.9282    6.0000    0.0000 C.3     1  UNL1        0.1510
      5 C          -6.0622    5.5000    0.0000 C.2     1  UNL1        0.2489
      6 O          -6.0622    4.5000    0.0000 O.2     1  UNL1       -0.2729
      7 N          -5.1962    6.0000    0.0000 N.am    1  UNL1       -0.2051
      8 C          -4.3301    5.5000    0.0000 C.3     1  UNL1        0.1152
      9 C          -4.3301    4.5000    0.0000 C.3     1  UNL1        0.0234
     10 C          -3.4641    4.0000    0.0000 C.3     1  UNL1        0.0019
     11 C          -3.4641    3.0000    0.0000 C.3     1  UNL1        0.0019
     12 C          -2.5981    2.5000    0.0000 C.3     1  UNL1        0.0233
     13 C          -2.5981    1.5000    0.0000 C.3     1  UNL1        0.1122
     14 N          -1.7321    1.0000    0.0000 N.pl3   1  UNL1       -0.2378
     15 C          -1.7321   -0.0000    0.0000 C.ar    1  UNL1        0.0638
     16 C          -0.8660   -0.5000    0.0000 C.ar    1  UNL1        0.0062
     17 C          -0.8660   -1.5000    0.0000 C.ar    1  UNL1        0.0562
     18 N          -1.7321   -2.0000    0.0000 N.ar    1  UNL1       -0.2499
     19 C          -2.5981   -1.5000    0.0000 C.ar    1  UNL1        0.0821
     20 C          -3.4641   -2.0000    0.0000 C.ar    1  UNL1        0.0191
     21 C          -4.3301   -1.5000    0.0000 C.ar    1  UNL1        0.0015
     22 C          -4.3301   -0.5000    0.0000 C.ar    1  UNL1        0.0001
     23 C          -3.4641   -0.0000    0.0000 C.ar    1  UNL1        0.0028
     24 C          -2.5981   -0.5000    0.0000 C.ar    1  UNL1        0.0322
     25 C           0.0000   -2.0000    0.0000 C.3     1  UNL1        0.0455
     26 C           0.8660   -1.5000    0.0000 C.3     1  UNL1        0.0066
     27 C           0.8660   -0.5000    0.0000 C.3     1  UNL1        0.0052
     28 C           0.0000   -0.0000    0.0000 C.3     1  UNL1        0.0289
@<TRIPOS>BOND
     1     1     2    1
     2     2     3    2
     3     2     4    1
     4     4     5    1
     5     5     6    2
     6     5     7   am
     7     7     8    1
     8     8     9    1
     9     9    10    1
    10    10    11    1
    11    11    12    1
    12    12    13    1
    13    13    14    1
    14    14    15    1
    15    15    16   ar
    16    16    17   ar
    17    17    18   ar
    18    18    19   ar
    19    19    20   ar
    20    20    21   ar
    21    21    22   ar
    22    22    23   ar
    23    23    24   ar
    24    15    24   ar
    25    19    24   ar
    26    17    25    1
    27    25    26    1
    28    26    27    1
    29    27    28    1
    30    16    28    1
