REMARK  Name = cpd143.pdb
REMARK  11 active torsions:
REMARK  status: ('A' for Active; 'I' for Inactive)
REMARK    1  A    between atoms: C_1  and  C_2
REMARK    2  A    between atoms: C_2  and  C_4
REMARK    3  A    between atoms: C_4  and  C_5
REMARK    4  A    between atoms: N_7  and  C_8
REMARK    5  A    between atoms: C_8  and  C_9
REMARK    6  A    between atoms: C_9  and  C_10
REMARK    7  A    between atoms: C_10  and  C_11
REMARK    8  A    between atoms: C_11  and  C_12
REMARK    9  A    between atoms: C_12  and  C_13
REMARK   10  A    between atoms: C_13  and  N_14
REMARK   11  A    between atoms: N_14  and  C_15
REMARK                            x       y       z     vdW  Elec       q    Type
REMARK                         _______ _______ _______ _____ _____    ______ ____
ROOT
ATOM      1  N   UNL A   1      -1.563   0.209  -1.117  0.00  0.00    -0.343 N 
ATOM      2  H   UNL A   1      -1.238   0.550  -1.981  0.00  0.00    +0.000 HD
ENDROOT
BRANCH   1   3
ATOM      3  C   UNL A   1      -1.423  -1.145  -0.690  0.00  0.00    +0.041 A 
ATOM      4  C   UNL A   1      -0.231  -1.580  -0.072  0.00  0.00    -0.005 A 
ATOM      5  C   UNL A   1      -0.179  -2.906   0.368  0.00  0.00    +0.047 A 
ATOM      6  N   UNL A   1      -1.226  -3.760   0.281  0.00  0.00    -0.251 NA
ATOM      7  C   UNL A   1      -2.361  -3.342  -0.294  0.00  0.00    +0.073 A 
ATOM      8  C   UNL A   1      -3.419  -4.238  -0.388  0.00  0.00    -0.036 A 
ATOM      9  C   UNL A   1      -4.632  -3.893  -0.989  0.00  0.00    -0.060 A 
ATOM     10  C   UNL A   1      -4.794  -2.622  -1.520  0.00  0.00    -0.061 A 
ATOM     11  C   UNL A   1      -3.746  -1.707  -1.435  0.00  0.00    -0.051 A 
ATOM     12  C   UNL A   1      -2.521  -2.042  -0.809  0.00  0.00    +0.021 A 
ATOM     13  C   UNL A   1       1.047  -3.475   1.035  0.00  0.00    -0.010 C 
ATOM     14  C   UNL A   1       2.315  -2.687   0.735  0.00  0.00    -0.047 C 
ATOM     15  C   UNL A   1       2.067  -1.207   0.981  0.00  0.00    -0.049 C 
ATOM     16  C   UNL A   1       0.978  -0.683   0.045  0.00  0.00    -0.024 C 
ENDBRANCH   1   3
BRANCH   1  17
ATOM     17  C   UNL A   1      -2.250   1.035  -0.115  0.00  0.00    +0.009 C 
BRANCH  17  18
ATOM     18  C   UNL A   1      -2.378   2.461  -0.655  0.00  0.00    -0.037 C 
BRANCH  18  19
ATOM     19  C   UNL A   1      -3.238   3.335   0.258  0.00  0.00    -0.052 C 
BRANCH  19  20
ATOM     20  C   UNL A   1      -3.313   4.771  -0.264  0.00  0.00    -0.052 C 
BRANCH  20  21
ATOM     21  C   UNL A   1      -4.289   5.616   0.554  0.00  0.00    -0.037 C 
BRANCH  21  22
ATOM     22  C   UNL A   1      -4.314   7.062   0.061  0.00  0.00    +0.012 C 
BRANCH  22  25
ATOM     23  C   UNL A   1      -6.628   7.884   0.328  0.00  0.00    +0.220 C 
ATOM     24  O   UNL A   1      -7.025   7.291  -0.668  0.00  0.00    -0.275 OA
ATOM     25  N   UNL A   1      -5.316   7.846   0.756  0.00  0.00    -0.315 N 
ATOM     26  H   UNL A   1      -5.055   8.363   1.552  0.00  0.00    +0.000 HD
BRANCH  23  27
ATOM     27  C   UNL A   1      -7.519   8.718   1.209  0.00  0.00    +0.082 C 
BRANCH  27  29
ATOM     28  C   UNL A   1      -8.838   9.720  -0.780  0.00  0.00    -0.006 C 
ATOM     29  C   UNL A   1      -8.841   9.103   0.595  0.00  0.00    +0.139 C 
ATOM     30  O   UNL A   1      -9.889   8.993   1.236  0.00  0.00    -0.297 OA
ENDBRANCH  27  29
ENDBRANCH  23  27
ENDBRANCH  22  25
ENDBRANCH  21  22
ENDBRANCH  20  21
ENDBRANCH  19  20
ENDBRANCH  18  19
ENDBRANCH  17  18
ENDBRANCH   1  17
TORSDOF 10
