MODEL 1
REMARK VINA RESULT:    -7.531      0.000      0.000
REMARK INTER + INTRA:         -14.073
REMARK INTER:                 -11.934
REMARK INTRA:                  -2.139
REMARK UNBOUND:                -2.139
REMARK  Name = cpd143.pdb
REMARK  11 active torsions:
REMARK  status: ('A' for Active; 'I' for Inactive)
REMARK    1  A    between atoms: C_1  and  C_2
REMARK    2  A    between atoms: C_2  and  C_4
REMARK    3  A    between atoms: C_4  and  C_5
REMARK    4  A    between atoms: N_7  and  C_8
REMARK    5  A    between atoms: C_8  and  C_9
REMARK    6  A    between atoms: C_9  and  C_10
REMARK    7  A    between atoms: C_10  and  C_11
REMARK    8  A    between atoms: C_11  and  C_12
REMARK    9  A    between atoms: C_12  and  C_13
REMARK   10  A    between atoms: C_13  and  N_14
REMARK   11  A    between atoms: N_14  and  C_15
REMARK                            x       y       z     vdW  Elec       q    Type
REMARK                         _______ _______ _______ _____ _____    ______ ____
ROOT
ATOM      1  N   UNL A   1      36.502 -34.995 -31.700  0.00  0.00    -0.343 N 
ATOM      2  H   UNL A   1      36.031 -35.273 -32.518  0.00  0.00    +0.000 HD
ENDROOT
BRANCH   1   3
ATOM      3  C   UNL A   1      37.319 -35.862 -30.916  0.00  0.00    +0.041 A 
ATOM      4  C   UNL A   1      38.660 -36.105 -31.282  0.00  0.00    -0.005 A 
ATOM      5  C   UNL A   1      39.420 -36.925 -30.442  0.00  0.00    +0.047 A 
ATOM      6  N   UNL A   1      38.950 -37.440 -29.281  0.00  0.00    -0.251 NA
ATOM      7  C   UNL A   1      37.681 -37.198 -28.928  0.00  0.00    +0.073 A 
ATOM      8  C   UNL A   1      37.212 -37.748 -27.741  0.00  0.00    -0.036 A 
ATOM      9  C   UNL A   1      35.898 -37.562 -27.306  0.00  0.00    -0.060 A 
ATOM     10  C   UNL A   1      35.021 -36.816 -28.079  0.00  0.00    -0.061 A 
ATOM     11  C   UNL A   1      35.471 -36.253 -29.272  0.00  0.00    -0.051 A 
ATOM     12  C   UNL A   1      36.807 -36.419 -29.710  0.00  0.00    +0.021 A 
ATOM     13  C   UNL A   1      40.860 -37.254 -30.742  0.00  0.00    -0.010 C 
ATOM     14  C   UNL A   1      41.229 -37.057 -32.206  0.00  0.00    -0.047 C 
ATOM     15  C   UNL A   1      40.763 -35.686 -32.670  0.00  0.00    -0.049 C 
ATOM     16  C   UNL A   1      39.242 -35.573 -32.569  0.00  0.00    -0.024 C 
ENDBRANCH   1   3
BRANCH   1  17
ATOM     17  C   UNL A   1      36.444 -33.637 -31.141  0.00  0.00    +0.009 C 
BRANCH  17  18
ATOM     18  C   UNL A   1      35.000 -33.136 -31.211  0.00  0.00    -0.037 C 
BRANCH  18  19
ATOM     19  C   UNL A   1      34.536 -32.562 -29.872  0.00  0.00    -0.052 C 
BRANCH  19  20
ATOM     20  C   UNL A   1      33.202 -31.828 -30.019  0.00  0.00    -0.052 C 
BRANCH  20  21
ATOM     21  C   UNL A   1      32.529 -32.148 -31.353  0.00  0.00    -0.037 C 
BRANCH  21  22
ATOM     22  C   UNL A   1      31.269 -32.988 -31.148  0.00  0.00    +0.012 C 
BRANCH  22  25
ATOM     23  C   UNL A   1      31.846 -35.363 -30.787  0.00  0.00    +0.220 C 
ATOM     24  O   UNL A   1      32.101 -35.190 -29.601  0.00  0.00    -0.275 OA
ATOM     25  N   UNL A   1      31.447 -34.344 -31.629  0.00  0.00    -0.315 N 
ATOM     26  H   UNL A   1      31.279 -34.544 -32.578  0.00  0.00    +0.000 HD
BRANCH  23  27
ATOM     27  C   UNL A   1      31.929 -36.702 -31.468  0.00  0.00    +0.082 C 
BRANCH  27  29
ATOM     28  C   UNL A   1      33.532 -38.299 -32.726  0.00  0.00    -0.006 C 
ATOM     29  C   UNL A   1      33.137 -36.894 -32.350  0.00  0.00    +0.139 C 
ATOM     30  O   UNL A   1      33.832 -35.931 -32.684  0.00  0.00    -0.297 OA
ENDBRANCH  27  29
ENDBRANCH  23  27
ENDBRANCH  22  25
ENDBRANCH  21  22
ENDBRANCH  20  21
ENDBRANCH  19  20
ENDBRANCH  18  19
ENDBRANCH  17  18
ENDBRANCH   1  17
TORSDOF 10
ENDMDL
MODEL 2
REMARK VINA RESULT:    -6.832      2.198      3.236
REMARK INTER + INTRA:         -12.965
REMARK INTER:                 -11.403
REMARK INTRA:                  -1.562
REMARK UNBOUND:                -2.139
REMARK  Name = cpd143.pdb
REMARK  11 active torsions:
REMARK  status: ('A' for Active; 'I' for Inactive)
REMARK    1  A    between atoms: C_1  and  C_2
REMARK    2  A    between atoms: C_2  and  C_4
REMARK    3  A    between atoms: C_4  and  C_5
REMARK    4  A    between atoms: N_7  and  C_8
REMARK    5  A    between atoms: C_8  and  C_9
REMARK    6  A    between atoms: C_9  and  C_10
REMARK    7  A    between atoms: C_10  and  C_11
REMARK    8  A    between atoms: C_11  and  C_12
REMARK    9  A    between atoms: C_12  and  C_13
REMARK   10  A    between atoms: C_13  and  N_14
REMARK   11  A    between atoms: N_14  and  C_15
REMARK                            x       y       z     vdW  Elec       q    Type
REMARK                         _______ _______ _______ _____ _____    ______ ____
ROOT
ATOM      1  N   UNL A   1      36.339 -34.959 -31.492  0.00  0.00    -0.343 N 
ATOM      2  H   UNL A   1      35.878 -35.192 -32.329  0.00  0.00    +0.000 HD
ENDROOT
BRANCH   1   3
ATOM      3  C   UNL A   1      37.209 -35.842 -30.787  0.00  0.00    +0.041 A 
ATOM      4  C   UNL A   1      38.529 -36.057 -31.239  0.00  0.00    -0.005 A 
ATOM      5  C   UNL A   1      39.345 -36.895 -30.474  0.00  0.00    +0.047 A 
ATOM      6  N   UNL A   1      38.950 -37.453 -29.305  0.00  0.00    -0.251 NA
ATOM      7  C   UNL A   1      37.702 -37.238 -28.870  0.00  0.00    +0.073 A 
ATOM      8  C   UNL A   1      37.310 -37.832 -27.677  0.00  0.00    -0.036 A 
ATOM      9  C   UNL A   1      36.022 -37.676 -27.158  0.00  0.00    -0.060 A 
ATOM     10  C   UNL A   1      35.094 -36.915 -27.853  0.00  0.00    -0.061 A 
ATOM     11  C   UNL A   1      35.466 -36.308 -29.051  0.00  0.00    -0.051 A 
ATOM     12  C   UNL A   1      36.776 -36.444 -29.572  0.00  0.00    +0.021 A 
ATOM     13  C   UNL A   1      40.768 -37.198 -30.869  0.00  0.00    -0.010 C 
ATOM     14  C   UNL A   1      41.047 -36.948 -32.345  0.00  0.00    -0.047 C 
ATOM     15  C   UNL A   1      40.542 -35.567 -32.734  0.00  0.00    -0.049 C 
ATOM     16  C   UNL A   1      39.029 -35.476 -32.540  0.00  0.00    -0.024 C 
ENDBRANCH   1   3
BRANCH   1  17
ATOM     17  C   UNL A   1      36.210 -33.659 -30.819  0.00  0.00    +0.009 C 
BRANCH  17  18
ATOM     18  C   UNL A   1      34.918 -32.986 -31.289  0.00  0.00    -0.037 C 
BRANCH  18  19
ATOM     19  C   UNL A   1      33.803 -33.119 -30.252  0.00  0.00    -0.052 C 
BRANCH  19  20
ATOM     20  C   UNL A   1      32.803 -34.204 -30.653  0.00  0.00    -0.052 C 
BRANCH  20  21
ATOM     21  C   UNL A   1      31.619 -34.262 -29.688  0.00  0.00    -0.037 C 
BRANCH  21  22
ATOM     22  C   UNL A   1      32.065 -33.994 -28.251  0.00  0.00    +0.012 C 
BRANCH  22  25
ATOM     23  C   UNL A   1      31.274 -35.830 -26.801  0.00  0.00    +0.220 C 
ATOM     24  O   UNL A   1      30.147 -35.360 -26.706  0.00  0.00    -0.275 OA
ATOM     25  N   UNL A   1      32.285 -35.227 -27.522  0.00  0.00    -0.315 N 
ATOM     26  H   UNL A   1      33.177 -35.644 -27.541  0.00  0.00    +0.000 HD
BRANCH  23  27
ATOM     27  C   UNL A   1      31.693 -37.123 -26.153  0.00  0.00    +0.082 C 
BRANCH  27  29
ATOM     28  C   UNL A   1      33.126 -38.223 -24.300  0.00  0.00    -0.006 C 
ATOM     29  C   UNL A   1      32.653 -36.975 -25.000  0.00  0.00    +0.139 C 
ATOM     30  O   UNL A   1      32.976 -35.858 -24.589  0.00  0.00    -0.297 OA
ENDBRANCH  27  29
ENDBRANCH  23  27
ENDBRANCH  22  25
ENDBRANCH  21  22
ENDBRANCH  20  21
ENDBRANCH  19  20
ENDBRANCH  18  19
ENDBRANCH  17  18
ENDBRANCH   1  17
TORSDOF 10
ENDMDL
MODEL 3
REMARK VINA RESULT:    -6.656      2.195      4.748
REMARK INTER + INTRA:         -12.686
REMARK INTER:                 -10.633
REMARK INTRA:                  -2.053
REMARK UNBOUND:                -2.139
REMARK  Name = cpd143.pdb
REMARK  11 active torsions:
REMARK  status: ('A' for Active; 'I' for Inactive)
REMARK    1  A    between atoms: C_1  and  C_2
REMARK    2  A    between atoms: C_2  and  C_4
REMARK    3  A    between atoms: C_4  and  C_5
REMARK    4  A    between atoms: N_7  and  C_8
REMARK    5  A    between atoms: C_8  and  C_9
REMARK    6  A    between atoms: C_9  and  C_10
REMARK    7  A    between atoms: C_10  and  C_11
REMARK    8  A    between atoms: C_11  and  C_12
REMARK    9  A    between atoms: C_12  and  C_13
REMARK   10  A    between atoms: C_13  and  N_14
REMARK   11  A    between atoms: N_14  and  C_15
REMARK                            x       y       z     vdW  Elec       q    Type
REMARK                         _______ _______ _______ _____ _____    ______ ____
ROOT
ATOM      1  N   UNL A   1      37.391 -37.871 -28.147  0.00  0.00    -0.343 N 
ATOM      2  H   UNL A   1      37.434 -37.653 -27.188  0.00  0.00    +0.000 HD
ENDROOT
BRANCH   1   3
ATOM      3  C   UNL A   1      37.609 -36.924 -29.192  0.00  0.00    +0.041 A 
ATOM      4  C   UNL A   1      38.830 -36.908 -29.899  0.00  0.00    -0.005 A 
ATOM      5  C   UNL A   1      38.959 -35.988 -30.944  0.00  0.00    +0.047 A 
ATOM      6  N   UNL A   1      37.958 -35.166 -31.338  0.00  0.00    -0.251 NA
ATOM      7  C   UNL A   1      36.795 -35.191 -30.674  0.00  0.00    +0.073 A 
ATOM      8  C   UNL A   1      35.785 -34.328 -31.084  0.00  0.00    -0.036 A 
ATOM      9  C   UNL A   1      34.548 -34.274 -30.438  0.00  0.00    -0.060 A 
ATOM     10  C   UNL A   1      34.311 -35.096 -29.346  0.00  0.00    -0.061 A 
ATOM     11  C   UNL A   1      35.310 -35.970 -28.919  0.00  0.00    -0.051 A 
ATOM     12  C   UNL A   1      36.559 -36.046 -29.582  0.00  0.00    +0.021 A 
ATOM     13  C   UNL A   1      40.222 -35.883 -31.759  0.00  0.00    -0.010 C 
ATOM     14  C   UNL A   1      41.442 -36.462 -31.055  0.00  0.00    -0.047 C 
ATOM     15  C   UNL A   1      41.118 -37.852 -30.533  0.00  0.00    -0.049 C 
ATOM     16  C   UNL A   1      39.990 -37.789 -29.502  0.00  0.00    -0.024 C 
ENDBRANCH   1   3
BRANCH   1  17
ATOM     17  C   UNL A   1      37.093 -39.211 -28.671  0.00  0.00    +0.009 C 
BRANCH  17  18
ATOM     18  C   UNL A   1      35.654 -39.576 -28.302  0.00  0.00    -0.037 C 
BRANCH  18  19
ATOM     19  C   UNL A   1      34.748 -39.614 -29.533  0.00  0.00    -0.052 C 
BRANCH  19  20
ATOM     20  C   UNL A   1      35.564 -39.812 -30.812  0.00  0.00    -0.052 C 
BRANCH  20  21
ATOM     21  C   UNL A   1      35.199 -41.120 -31.514  0.00  0.00    -0.037 C 
BRANCH  21  22
ATOM     22  C   UNL A   1      34.690 -40.861 -32.932  0.00  0.00    +0.012 C 
BRANCH  22  25
ATOM     23  C   UNL A   1      32.728 -39.545 -33.653  0.00  0.00    +0.220 C 
ATOM     24  O   UNL A   1      32.205 -40.503 -34.208  0.00  0.00    -0.275 OA
ATOM     25  N   UNL A   1      33.951 -39.617 -33.015  0.00  0.00    -0.315 N 
ATOM     26  H   UNL A   1      34.329 -38.805 -32.607  0.00  0.00    +0.000 HD
BRANCH  23  27
ATOM     27  C   UNL A   1      32.104 -38.177 -33.591  0.00  0.00    +0.082 C 
BRANCH  27  29
ATOM     28  C   UNL A   1      33.505 -36.002 -33.515  0.00  0.00    -0.006 C 
ATOM     29  C   UNL A   1      32.874 -37.161 -32.787  0.00  0.00    +0.139 C 
ATOM     30  O   UNL A   1      33.053 -37.320 -31.577  0.00  0.00    -0.297 OA
ENDBRANCH  27  29
ENDBRANCH  23  27
ENDBRANCH  22  25
ENDBRANCH  21  22
ENDBRANCH  20  21
ENDBRANCH  19  20
ENDBRANCH  18  19
ENDBRANCH  17  18
ENDBRANCH   1  17
TORSDOF 10
ENDMDL
MODEL 4
REMARK VINA RESULT:    -6.607      3.010      5.804
REMARK INTER + INTRA:         -12.610
REMARK INTER:                 -10.769
REMARK INTRA:                  -1.840
REMARK UNBOUND:                -2.139
REMARK  Name = cpd143.pdb
REMARK  11 active torsions:
REMARK  status: ('A' for Active; 'I' for Inactive)
REMARK    1  A    between atoms: C_1  and  C_2
REMARK    2  A    between atoms: C_2  and  C_4
REMARK    3  A    between atoms: C_4  and  C_5
REMARK    4  A    between atoms: N_7  and  C_8
REMARK    5  A    between atoms: C_8  and  C_9
REMARK    6  A    between atoms: C_9  and  C_10
REMARK    7  A    between atoms: C_10  and  C_11
REMARK    8  A    between atoms: C_11  and  C_12
REMARK    9  A    between atoms: C_12  and  C_13
REMARK   10  A    between atoms: C_13  and  N_14
REMARK   11  A    between atoms: N_14  and  C_15
REMARK                            x       y       z     vdW  Elec       q    Type
REMARK                         _______ _______ _______ _____ _____    ______ ____
ROOT
ATOM      1  N   UNL A   1      37.456 -38.146 -28.742  0.00  0.00    -0.343 N 
ATOM      2  H   UNL A   1      37.672 -38.157 -27.782  0.00  0.00    +0.000 HD
ENDROOT
BRANCH   1   3
ATOM      3  C   UNL A   1      37.649 -37.015 -29.590  0.00  0.00    +0.041 A 
ATOM      4  C   UNL A   1      38.881 -36.818 -30.248  0.00  0.00    -0.005 A 
ATOM      5  C   UNL A   1      38.987 -35.717 -31.105  0.00  0.00    +0.047 A 
ATOM      6  N   UNL A   1      37.956 -34.881 -31.371  0.00  0.00    -0.251 NA
ATOM      7  C   UNL A   1      36.783 -35.077 -30.755  0.00  0.00    +0.073 A 
ATOM      8  C   UNL A   1      35.741 -34.199 -31.029  0.00  0.00    -0.036 A 
ATOM      9  C   UNL A   1      34.491 -34.317 -30.419  0.00  0.00    -0.060 A 
ATOM     10  C   UNL A   1      34.272 -35.335 -29.502  0.00  0.00    -0.061 A 
ATOM     11  C   UNL A   1      35.302 -36.228 -29.213  0.00  0.00    -0.051 A 
ATOM     12  C   UNL A   1      36.566 -36.127 -29.843  0.00  0.00    +0.021 A 
ATOM     13  C   UNL A   1      40.259 -35.410 -31.852  0.00  0.00    -0.010 C 
ATOM     14  C   UNL A   1      41.491 -36.055 -31.232  0.00  0.00    -0.047 C 
ATOM     15  C   UNL A   1      41.224 -37.530 -30.980  0.00  0.00    -0.049 C 
ATOM     16  C   UNL A   1      40.075 -37.705 -29.987  0.00  0.00    -0.024 C 
ENDBRANCH   1   3
BRANCH   1  17
ATOM     17  C   UNL A   1      36.895 -39.292 -29.470  0.00  0.00    +0.009 C 
BRANCH  17  18
ATOM     18  C   UNL A   1      37.178 -40.568 -28.674  0.00  0.00    -0.037 C 
BRANCH  18  19
ATOM     19  C   UNL A   1      35.929 -41.439 -28.541  0.00  0.00    -0.052 C 
BRANCH  19  20
ATOM     20  C   UNL A   1      34.746 -40.824 -29.291  0.00  0.00    -0.052 C 
BRANCH  20  21
ATOM     21  C   UNL A   1      33.480 -40.818 -28.435  0.00  0.00    -0.037 C 
BRANCH  21  22
ATOM     22  C   UNL A   1      33.814 -40.613 -26.958  0.00  0.00    +0.012 C 
BRANCH  22  25
ATOM     23  C   UNL A   1      34.210 -38.261 -26.316  0.00  0.00    +0.220 C 
ATOM     24  O   UNL A   1      35.413 -38.333 -26.537  0.00  0.00    -0.275 OA
ATOM     25  N   UNL A   1      33.348 -39.327 -26.478  0.00  0.00    -0.315 N 
ATOM     26  H   UNL A   1      32.394 -39.211 -26.262  0.00  0.00    +0.000 HD
BRANCH  23  27
ATOM     27  C   UNL A   1      33.524 -37.004 -25.852  0.00  0.00    +0.082 C 
BRANCH  27  29
ATOM     28  C   UNL A   1      33.545 -36.467 -23.320  0.00  0.00    -0.006 C 
ATOM     29  C   UNL A   1      32.860 -37.103 -24.502  0.00  0.00    +0.139 C 
ATOM     30  O   UNL A   1      31.826 -37.760 -24.355  0.00  0.00    -0.297 OA
ENDBRANCH  27  29
ENDBRANCH  23  27
ENDBRANCH  22  25
ENDBRANCH  21  22
ENDBRANCH  20  21
ENDBRANCH  19  20
ENDBRANCH  18  19
ENDBRANCH  17  18
ENDBRANCH   1  17
TORSDOF 10
ENDMDL
MODEL 5
REMARK VINA RESULT:    -6.450      1.285      2.671
REMARK INTER + INTRA:         -12.360
REMARK INTER:                 -10.750
REMARK INTRA:                  -1.610
REMARK UNBOUND:                -2.139
REMARK  Name = cpd143.pdb
REMARK  11 active torsions:
REMARK  status: ('A' for Active; 'I' for Inactive)
REMARK    1  A    between atoms: C_1  and  C_2
REMARK    2  A    between atoms: C_2  and  C_4
REMARK    3  A    between atoms: C_4  and  C_5
REMARK    4  A    between atoms: N_7  and  C_8
REMARK    5  A    between atoms: C_8  and  C_9
REMARK    6  A    between atoms: C_9  and  C_10
REMARK    7  A    between atoms: C_10  and  C_11
REMARK    8  A    between atoms: C_11  and  C_12
REMARK    9  A    between atoms: C_12  and  C_13
REMARK   10  A    between atoms: C_13  and  N_14
REMARK   11  A    between atoms: N_14  and  C_15
REMARK                            x       y       z     vdW  Elec       q    Type
REMARK                         _______ _______ _______ _____ _____    ______ ____
ROOT
ATOM      1  N   UNL A   1      36.337 -35.030 -31.522  0.00  0.00    -0.343 N 
ATOM      2  H   UNL A   1      36.296 -34.056 -31.389  0.00  0.00    +0.000 HD
ENDROOT
BRANCH   1   3
ATOM      3  C   UNL A   1      37.211 -35.898 -30.801  0.00  0.00    +0.041 A 
ATOM      4  C   UNL A   1      38.536 -36.105 -31.242  0.00  0.00    -0.005 A 
ATOM      5  C   UNL A   1      39.354 -36.926 -30.462  0.00  0.00    +0.047 A 
ATOM      6  N   UNL A   1      38.956 -37.476 -29.290  0.00  0.00    -0.251 NA
ATOM      7  C   UNL A   1      37.702 -37.269 -28.867  0.00  0.00    +0.073 A 
ATOM      8  C   UNL A   1      37.307 -37.854 -27.670  0.00  0.00    -0.036 A 
ATOM      9  C   UNL A   1      36.014 -37.706 -27.163  0.00  0.00    -0.060 A 
ATOM     10  C   UNL A   1      35.084 -36.961 -27.872  0.00  0.00    -0.061 A 
ATOM     11  C   UNL A   1      35.459 -36.363 -29.074  0.00  0.00    -0.051 A 
ATOM     12  C   UNL A   1      36.774 -36.491 -29.584  0.00  0.00    +0.021 A 
ATOM     13  C   UNL A   1      40.783 -37.219 -30.844  0.00  0.00    -0.010 C 
ATOM     14  C   UNL A   1      41.071 -36.982 -32.320  0.00  0.00    -0.047 C 
ATOM     15  C   UNL A   1      40.555 -35.610 -32.727  0.00  0.00    -0.049 C 
ATOM     16  C   UNL A   1      39.039 -35.532 -32.545  0.00  0.00    -0.024 C 
ENDBRANCH   1   3
BRANCH   1  17
ATOM     17  C   UNL A   1      35.505 -35.763 -32.486  0.00  0.00    +0.009 C 
BRANCH  17  18
ATOM     18  C   UNL A   1      34.049 -35.715 -32.018  0.00  0.00    -0.037 C 
BRANCH  18  19
ATOM     19  C   UNL A   1      33.075 -35.850 -33.189  0.00  0.00    -0.052 C 
BRANCH  19  20
ATOM     20  C   UNL A   1      31.693 -36.294 -32.707  0.00  0.00    -0.052 C 
BRANCH  20  21
ATOM     21  C   UNL A   1      30.670 -35.164 -32.817  0.00  0.00    -0.037 C 
BRANCH  21  22
ATOM     22  C   UNL A   1      30.189 -34.719 -31.436  0.00  0.00    +0.012 C 
BRANCH  22  25
ATOM     23  C   UNL A   1      31.878 -33.887 -29.836  0.00  0.00    +0.220 C 
ATOM     24  O   UNL A   1      31.972 -34.969 -29.270  0.00  0.00    -0.275 OA
ATOM     25  N   UNL A   1      31.022 -33.662 -30.896  0.00  0.00    -0.315 N 
ATOM     26  H   UNL A   1      30.976 -32.763 -31.294  0.00  0.00    +0.000 HD
BRANCH  23  27
ATOM     27  C   UNL A   1      32.685 -32.676 -29.454  0.00  0.00    +0.082 C 
BRANCH  27  29
ATOM     28  C   UNL A   1      34.158 -31.898 -31.435  0.00  0.00    -0.006 C 
ATOM     29  C   UNL A   1      34.045 -32.587 -30.100  0.00  0.00    +0.139 C 
ATOM     30  O   UNL A   1      35.022 -33.138 -29.588  0.00  0.00    -0.297 OA
ENDBRANCH  27  29
ENDBRANCH  23  27
ENDBRANCH  22  25
ENDBRANCH  21  22
ENDBRANCH  20  21
ENDBRANCH  19  20
ENDBRANCH  18  19
ENDBRANCH  17  18
ENDBRANCH   1  17
TORSDOF 10
ENDMDL
MODEL 6
REMARK VINA RESULT:    -6.226     16.607     18.937
REMARK INTER + INTRA:         -12.004
REMARK INTER:                 -10.323
REMARK INTRA:                  -1.681
REMARK UNBOUND:                -2.139
REMARK  Name = cpd143.pdb
REMARK  11 active torsions:
REMARK  status: ('A' for Active; 'I' for Inactive)
REMARK    1  A    between atoms: C_1  and  C_2
REMARK    2  A    between atoms: C_2  and  C_4
REMARK    3  A    between atoms: C_4  and  C_5
REMARK    4  A    between atoms: N_7  and  C_8
REMARK    5  A    between atoms: C_8  and  C_9
REMARK    6  A    between atoms: C_9  and  C_10
REMARK    7  A    between atoms: C_10  and  C_11
REMARK    8  A    between atoms: C_11  and  C_12
REMARK    9  A    between atoms: C_12  and  C_13
REMARK   10  A    between atoms: C_13  and  N_14
REMARK   11  A    between atoms: N_14  and  C_15
REMARK                            x       y       z     vdW  Elec       q    Type
REMARK                         _______ _______ _______ _____ _____    ______ ____
ROOT
ATOM      1  N   UNL A   1      46.883 -20.549 -37.882  0.00  0.00    -0.343 N 
ATOM      2  H   UNL A   1      47.164 -21.156 -37.161  0.00  0.00    +0.000 HD
ENDROOT
BRANCH   1   3
ATOM      3  C   UNL A   1      46.097 -20.950 -39.003  0.00  0.00    +0.041 A 
ATOM      4  C   UNL A   1      46.673 -21.705 -40.047  0.00  0.00    -0.005 A 
ATOM      5  C   UNL A   1      45.834 -22.109 -41.090  0.00  0.00    +0.047 A 
ATOM      6  N   UNL A   1      44.503 -21.861 -41.113  0.00  0.00    -0.251 NA
ATOM      7  C   UNL A   1      43.956 -21.155 -40.115  0.00  0.00    +0.073 A 
ATOM      8  C   UNL A   1      42.591 -20.898 -40.164  0.00  0.00    -0.036 A 
ATOM      9  C   UNL A   1      41.940 -20.154 -39.177  0.00  0.00    -0.060 A 
ATOM     10  C   UNL A   1      42.671 -19.644 -38.114  0.00  0.00    -0.061 A 
ATOM     11  C   UNL A   1      44.040 -19.892 -38.044  0.00  0.00    -0.051 A 
ATOM     12  C   UNL A   1      44.704 -20.662 -39.029  0.00  0.00    +0.021 A 
ATOM     13  C   UNL A   1      46.347 -22.914 -42.257  0.00  0.00    -0.010 C 
ATOM     14  C   UNL A   1      47.854 -22.805 -42.445  0.00  0.00    -0.047 C 
ATOM     15  C   UNL A   1      48.555 -23.060 -41.120  0.00  0.00    -0.049 C 
ATOM     16  C   UNL A   1      48.152 -22.006 -40.089  0.00  0.00    -0.024 C 
ENDBRANCH   1   3
BRANCH   1  17
ATOM     17  C   UNL A   1      47.225 -19.121 -37.932  0.00  0.00    +0.009 C 
BRANCH  17  18
ATOM     18  C   UNL A   1      47.420 -18.610 -36.503  0.00  0.00    -0.037 C 
BRANCH  18  19
ATOM     19  C   UNL A   1      47.102 -19.690 -35.469  0.00  0.00    -0.052 C 
BRANCH  19  20
ATOM     20  C   UNL A   1      45.872 -19.315 -34.640  0.00  0.00    -0.052 C 
BRANCH  20  21
ATOM     21  C   UNL A   1      44.920 -20.500 -34.479  0.00  0.00    -0.037 C 
BRANCH  21  22
ATOM     22  C   UNL A   1      43.558 -20.047 -33.958  0.00  0.00    +0.012 C 
BRANCH  22  25
ATOM     23  C   UNL A   1      41.250 -20.091 -34.837  0.00  0.00    +0.220 C 
ATOM     24  O   UNL A   1      40.992 -18.974 -34.407  0.00  0.00    -0.275 OA
ATOM     25  N   UNL A   1      42.472 -20.708 -34.654  0.00  0.00    -0.315 N 
ATOM     26  H   UNL A   1      42.609 -21.617 -35.005  0.00  0.00    +0.000 HD
BRANCH  23  27
ATOM     27  C   UNL A   1      40.273 -20.925 -35.622  0.00  0.00    +0.082 C 
BRANCH  27  29
ATOM     28  C   UNL A   1      39.691 -23.011 -34.204  0.00  0.00    -0.006 C 
ATOM     29  C   UNL A   1      40.384 -22.413 -35.401  0.00  0.00    +0.139 C 
ATOM     30  O   UNL A   1      41.093 -23.107 -36.133  0.00  0.00    -0.297 OA
ENDBRANCH  27  29
ENDBRANCH  23  27
ENDBRANCH  22  25
ENDBRANCH  21  22
ENDBRANCH  20  21
ENDBRANCH  19  20
ENDBRANCH  18  19
ENDBRANCH  17  18
ENDBRANCH   1  17
TORSDOF 10
ENDMDL
MODEL 7
REMARK VINA RESULT:    -6.223     16.656     19.224
REMARK INTER + INTRA:         -12.000
REMARK INTER:                 -10.345
REMARK INTRA:                  -1.655
REMARK UNBOUND:                -2.139
REMARK  Name = cpd143.pdb
REMARK  11 active torsions:
REMARK  status: ('A' for Active; 'I' for Inactive)
REMARK    1  A    between atoms: C_1  and  C_2
REMARK    2  A    between atoms: C_2  and  C_4
REMARK    3  A    between atoms: C_4  and  C_5
REMARK    4  A    between atoms: N_7  and  C_8
REMARK    5  A    between atoms: C_8  and  C_9
REMARK    6  A    between atoms: C_9  and  C_10
REMARK    7  A    between atoms: C_10  and  C_11
REMARK    8  A    between atoms: C_11  and  C_12
REMARK    9  A    between atoms: C_12  and  C_13
REMARK   10  A    between atoms: C_13  and  N_14
REMARK   11  A    between atoms: N_14  and  C_15
REMARK                            x       y       z     vdW  Elec       q    Type
REMARK                         _______ _______ _______ _____ _____    ______ ____
ROOT
ATOM      1  N   UNL A   1      46.913 -20.486 -37.931  0.00  0.00    -0.343 N 
ATOM      2  H   UNL A   1      47.216 -21.032 -37.170  0.00  0.00    +0.000 HD
ENDROOT
BRANCH   1   3
ATOM      3  C   UNL A   1      46.165 -20.999 -39.033  0.00  0.00    +0.041 A 
ATOM      4  C   UNL A   1      44.796 -20.688 -39.173  0.00  0.00    -0.005 A 
ATOM      5  C   UNL A   1      44.135 -21.181 -40.302  0.00  0.00    +0.047 A 
ATOM      6  N   UNL A   1      44.755 -21.882 -41.280  0.00  0.00    -0.251 NA
ATOM      7  C   UNL A   1      46.058 -22.165 -41.152  0.00  0.00    +0.073 A 
ATOM      8  C   UNL A   1      46.674 -22.899 -42.159  0.00  0.00    -0.036 A 
ATOM      9  C   UNL A   1      48.023 -23.255 -42.098  0.00  0.00    -0.060 A 
ATOM     10  C   UNL A   1      48.780 -22.877 -40.999  0.00  0.00    -0.061 A 
ATOM     11  C   UNL A   1      48.183 -22.139 -39.979  0.00  0.00    -0.051 A 
ATOM     12  C   UNL A   1      46.822 -21.756 -40.043  0.00  0.00    +0.021 A 
ATOM     13  C   UNL A   1      42.672 -20.914 -40.547  0.00  0.00    -0.010 C 
ATOM     14  C   UNL A   1      41.911 -20.533 -39.284  0.00  0.00    -0.047 C 
ATOM     15  C   UNL A   1      42.660 -19.432 -38.550  0.00  0.00    -0.049 C 
ATOM     16  C   UNL A   1      44.041 -19.922 -38.114  0.00  0.00    -0.024 C 
ENDBRANCH   1   3
BRANCH   1  17
ATOM     17  C   UNL A   1      47.179 -19.048 -38.066  0.00  0.00    +0.009 C 
BRANCH  17  18
ATOM     18  C   UNL A   1      47.302 -18.435 -36.670  0.00  0.00    -0.037 C 
BRANCH  18  19
ATOM     19  C   UNL A   1      46.958 -19.448 -35.577  0.00  0.00    -0.052 C 
BRANCH  19  20
ATOM     20  C   UNL A   1      45.662 -19.065 -34.859  0.00  0.00    -0.052 C 
BRANCH  20  21
ATOM     21  C   UNL A   1      44.743 -20.272 -34.677  0.00  0.00    -0.037 C 
BRANCH  21  22
ATOM     22  C   UNL A   1      43.310 -19.834 -34.376  0.00  0.00    +0.012 C 
BRANCH  22  25
ATOM     23  C   UNL A   1      41.088 -20.167 -35.402  0.00  0.00    +0.220 C 
ATOM     24  O   UNL A   1      40.701 -19.048 -35.087  0.00  0.00    -0.275 OA
ATOM     25  N   UNL A   1      42.343 -20.648 -35.085  0.00  0.00    -0.315 N 
ATOM     26  H   UNL A   1      42.586 -21.565 -35.347  0.00  0.00    +0.000 HD
BRANCH  23  27
ATOM     27  C   UNL A   1      40.250 -21.149 -36.176  0.00  0.00    +0.082 C 
BRANCH  27  29
ATOM     28  C   UNL A   1      39.703 -23.095 -34.559  0.00  0.00    -0.006 C 
ATOM     29  C   UNL A   1      40.432 -22.592 -35.779  0.00  0.00    +0.139 C 
ATOM     30  O   UNL A   1      41.221 -23.319 -36.388  0.00  0.00    -0.297 OA
ENDBRANCH  27  29
ENDBRANCH  23  27
ENDBRANCH  22  25
ENDBRANCH  21  22
ENDBRANCH  20  21
ENDBRANCH  19  20
ENDBRANCH  18  19
ENDBRANCH  17  18
ENDBRANCH   1  17
TORSDOF 10
ENDMDL
MODEL 8
REMARK VINA RESULT:    -6.214      2.052      4.233
REMARK INTER + INTRA:         -11.985
REMARK INTER:                 -10.757
REMARK INTRA:                  -1.229
REMARK UNBOUND:                -2.139
REMARK  Name = cpd143.pdb
REMARK  11 active torsions:
REMARK  status: ('A' for Active; 'I' for Inactive)
REMARK    1  A    between atoms: C_1  and  C_2
REMARK    2  A    between atoms: C_2  and  C_4
REMARK    3  A    between atoms: C_4  and  C_5
REMARK    4  A    between atoms: N_7  and  C_8
REMARK    5  A    between atoms: C_8  and  C_9
REMARK    6  A    between atoms: C_9  and  C_10
REMARK    7  A    between atoms: C_10  and  C_11
REMARK    8  A    between atoms: C_11  and  C_12
REMARK    9  A    between atoms: C_12  and  C_13
REMARK   10  A    between atoms: C_13  and  N_14
REMARK   11  A    between atoms: N_14  and  C_15
REMARK                            x       y       z     vdW  Elec       q    Type
REMARK                         _______ _______ _______ _____ _____    ______ ____
ROOT
ATOM      1  N   UNL A   1      36.435 -35.130 -31.658  0.00  0.00    -0.343 N 
ATOM      2  H   UNL A   1      36.046 -35.356 -32.534  0.00  0.00    +0.000 HD
ENDROOT
BRANCH   1   3
ATOM      3  C   UNL A   1      37.301 -35.993 -30.923  0.00  0.00    +0.041 A 
ATOM      4  C   UNL A   1      36.772 -37.058 -30.163  0.00  0.00    -0.005 A 
ATOM      5  C   UNL A   1      37.678 -37.897 -29.508  0.00  0.00    +0.047 A 
ATOM      6  N   UNL A   1      39.022 -37.768 -29.616  0.00  0.00    -0.251 NA
ATOM      7  C   UNL A   1      39.523 -36.765 -30.349  0.00  0.00    +0.073 A 
ATOM      8  C   UNL A   1      40.904 -36.641 -30.435  0.00  0.00    -0.036 A 
ATOM      9  C   UNL A   1      41.512 -35.613 -31.161  0.00  0.00    -0.060 A 
ATOM     10  C   UNL A   1      40.723 -34.677 -31.812  0.00  0.00    -0.061 A 
ATOM     11  C   UNL A   1      39.335 -34.785 -31.740  0.00  0.00    -0.051 A 
ATOM     12  C   UNL A   1      38.711 -35.834 -31.024  0.00  0.00    +0.021 A 
ATOM     13  C   UNL A   1      37.221 -39.059 -28.665  0.00  0.00    -0.010 C 
ATOM     14  C   UNL A   1      35.776 -38.932 -28.199  0.00  0.00    -0.047 C 
ATOM     15  C   UNL A   1      34.885 -38.596 -29.384  0.00  0.00    -0.049 C 
ATOM     16  C   UNL A   1      35.284 -37.250 -29.990  0.00  0.00    -0.024 C 
ENDBRANCH   1   3
BRANCH   1  17
ATOM     17  C   UNL A   1      36.192 -33.863 -30.955  0.00  0.00    +0.009 C 
BRANCH  17  18
ATOM     18  C   UNL A   1      34.703 -33.763 -30.620  0.00  0.00    -0.037 C 
BRANCH  18  19
ATOM     19  C   UNL A   1      34.372 -32.451 -29.908  0.00  0.00    -0.052 C 
BRANCH  19  20
ATOM     20  C   UNL A   1      33.038 -31.881 -30.394  0.00  0.00    -0.052 C 
BRANCH  20  21
ATOM     21  C   UNL A   1      32.160 -32.963 -31.023  0.00  0.00    -0.037 C 
BRANCH  21  22
ATOM     22  C   UNL A   1      30.804 -33.048 -30.325  0.00  0.00    +0.012 C 
BRANCH  22  25
ATOM     23  C   UNL A   1      31.076 -34.091 -28.103  0.00  0.00    +0.220 C 
ATOM     24  O   UNL A   1      31.488 -33.056 -27.593  0.00  0.00    -0.275 OA
ATOM     25  N   UNL A   1      30.731 -34.190 -29.436  0.00  0.00    -0.315 N 
ATOM     26  H   UNL A   1      30.428 -35.057 -29.790  0.00  0.00    +0.000 HD
BRANCH  23  27
ATOM     27  C   UNL A   1      30.889 -35.375 -27.341  0.00  0.00    +0.082 C 
BRANCH  27  29
ATOM     28  C   UNL A   1      33.268 -36.299 -26.905  0.00  0.00    -0.006 C 
ATOM     29  C   UNL A   1      31.992 -35.704 -26.367  0.00  0.00    +0.139 C 
ATOM     30  O   UNL A   1      31.821 -35.567 -25.153  0.00  0.00    -0.297 OA
ENDBRANCH  27  29
ENDBRANCH  23  27
ENDBRANCH  22  25
ENDBRANCH  21  22
ENDBRANCH  20  21
ENDBRANCH  19  20
ENDBRANCH  18  19
ENDBRANCH  17  18
ENDBRANCH   1  17
TORSDOF 10
ENDMDL
MODEL 9
REMARK VINA RESULT:    -6.145      2.099      5.683
REMARK INTER + INTRA:         -11.876
REMARK INTER:                 -10.056
REMARK INTRA:                  -1.820
REMARK UNBOUND:                -2.139
REMARK  Name = cpd143.pdb
REMARK  11 active torsions:
REMARK  status: ('A' for Active; 'I' for Inactive)
REMARK    1  A    between atoms: C_1  and  C_2
REMARK    2  A    between atoms: C_2  and  C_4
REMARK    3  A    between atoms: C_4  and  C_5
REMARK    4  A    between atoms: N_7  and  C_8
REMARK    5  A    between atoms: C_8  and  C_9
REMARK    6  A    between atoms: C_9  and  C_10
REMARK    7  A    between atoms: C_10  and  C_11
REMARK    8  A    between atoms: C_11  and  C_12
REMARK    9  A    between atoms: C_12  and  C_13
REMARK   10  A    between atoms: C_13  and  N_14
REMARK   11  A    between atoms: N_14  and  C_15
REMARK                            x       y       z     vdW  Elec       q    Type
REMARK                         _______ _______ _______ _____ _____    ______ ____
ROOT
ATOM      1  N   UNL A   1      37.300 -37.965 -28.006  0.00  0.00    -0.343 N 
ATOM      2  H   UNL A   1      37.379 -37.744 -27.050  0.00  0.00    +0.000 HD
ENDROOT
BRANCH   1   3
ATOM      3  C   UNL A   1      36.934 -37.025 -29.014  0.00  0.00    +0.041 A 
ATOM      4  C   UNL A   1      35.660 -36.418 -28.997  0.00  0.00    -0.005 A 
ATOM      5  C   UNL A   1      35.385 -35.468 -29.985  0.00  0.00    +0.047 A 
ATOM      6  N   UNL A   1      36.292 -35.069 -30.908  0.00  0.00    -0.251 NA
ATOM      7  C   UNL A   1      37.505 -35.637 -30.915  0.00  0.00    +0.073 A 
ATOM      8  C   UNL A   1      38.418 -35.226 -31.879  0.00  0.00    -0.036 A 
ATOM      9  C   UNL A   1      39.698 -35.778 -31.971  0.00  0.00    -0.060 A 
ATOM     10  C   UNL A   1      40.078 -36.774 -31.084  0.00  0.00    -0.061 A 
ATOM     11  C   UNL A   1      39.179 -37.200 -30.109  0.00  0.00    -0.051 A 
ATOM     12  C   UNL A   1      37.887 -36.631 -29.995  0.00  0.00    +0.021 A 
ATOM     13  C   UNL A   1      34.054 -34.764 -30.063  0.00  0.00    -0.010 C 
ATOM     14  C   UNL A   1      32.938 -35.507 -29.342  0.00  0.00    -0.047 C 
ATOM     15  C   UNL A   1      33.396 -35.883 -27.941  0.00  0.00    -0.049 C 
ATOM     16  C   UNL A   1      34.597 -36.825 -28.005  0.00  0.00    -0.024 C 
ENDBRANCH   1   3
BRANCH   1  17
ATOM     17  C   UNL A   1      37.544 -39.303 -28.561  0.00  0.00    +0.009 C 
BRANCH  17  18
ATOM     18  C   UNL A   1      36.200 -40.002 -28.775  0.00  0.00    -0.037 C 
BRANCH  18  19
ATOM     19  C   UNL A   1      36.287 -41.071 -29.864  0.00  0.00    -0.052 C 
BRANCH  19  20
ATOM     20  C   UNL A   1      35.304 -40.782 -31.000  0.00  0.00    -0.052 C 
BRANCH  20  21
ATOM     21  C   UNL A   1      34.764 -39.354 -30.927  0.00  0.00    -0.037 C 
BRANCH  21  22
ATOM     22  C   UNL A   1      33.237 -39.340 -30.969  0.00  0.00    +0.012 C 
BRANCH  22  25
ATOM     23  C   UNL A   1      32.612 -38.582 -33.235  0.00  0.00    +0.220 C 
ATOM     24  O   UNL A   1      32.935 -39.644 -33.753  0.00  0.00    -0.275 OA
ATOM     25  N   UNL A   1      32.737 -38.332 -31.883  0.00  0.00    -0.315 N 
ATOM     26  H   UNL A   1      32.481 -37.449 -31.532  0.00  0.00    +0.000 HD
BRANCH  23  27
ATOM     27  C   UNL A   1      32.035 -37.424 -34.005  0.00  0.00    +0.082 C 
BRANCH  27  29
ATOM     28  C   UNL A   1      33.719 -35.470 -33.802  0.00  0.00    -0.006 C 
ATOM     29  C   UNL A   1      32.377 -36.062 -33.458  0.00  0.00    +0.139 C 
ATOM     30  O   UNL A   1      31.612 -35.485 -32.681  0.00  0.00    -0.297 OA
ENDBRANCH  27  29
ENDBRANCH  23  27
ENDBRANCH  22  25
ENDBRANCH  21  22
ENDBRANCH  20  21
ENDBRANCH  19  20
ENDBRANCH  18  19
ENDBRANCH  17  18
ENDBRANCH   1  17
TORSDOF 10
ENDMDL
MODEL 10
REMARK VINA RESULT:    -6.084      2.175      3.472
REMARK INTER + INTRA:         -11.780
REMARK INTER:                 -10.577
REMARK INTRA:                  -1.202
REMARK UNBOUND:                -2.139
REMARK  Name = cpd143.pdb
REMARK  11 active torsions:
REMARK  status: ('A' for Active; 'I' for Inactive)
REMARK    1  A    between atoms: C_1  and  C_2
REMARK    2  A    between atoms: C_2  and  C_4
REMARK    3  A    between atoms: C_4  and  C_5
REMARK    4  A    between atoms: N_7  and  C_8
REMARK    5  A    between atoms: C_8  and  C_9
REMARK    6  A    between atoms: C_9  and  C_10
REMARK    7  A    between atoms: C_10  and  C_11
REMARK    8  A    between atoms: C_11  and  C_12
REMARK    9  A    between atoms: C_12  and  C_13
REMARK   10  A    between atoms: C_13  and  N_14
REMARK   11  A    between atoms: N_14  and  C_15
REMARK                            x       y       z     vdW  Elec       q    Type
REMARK                         _______ _______ _______ _____ _____    ______ ____
ROOT
ATOM      1  N   UNL A   1      36.435 -34.898 -31.634  0.00  0.00    -0.343 N 
ATOM      2  H   UNL A   1      35.998 -35.053 -32.502  0.00  0.00    +0.000 HD
ENDROOT
BRANCH   1   3
ATOM      3  C   UNL A   1      37.252 -35.861 -30.970  0.00  0.00    +0.041 A 
ATOM      4  C   UNL A   1      38.649 -35.873 -31.171  0.00  0.00    -0.005 A 
ATOM      5  C   UNL A   1      39.397 -36.809 -30.451  0.00  0.00    +0.047 A 
ATOM      6  N   UNL A   1      38.855 -37.651 -29.540  0.00  0.00    -0.251 NA
ATOM      7  C   UNL A   1      37.531 -37.629 -29.340  0.00  0.00    +0.073 A 
ATOM      8  C   UNL A   1      36.992 -38.512 -28.412  0.00  0.00    -0.036 A 
ATOM      9  C   UNL A   1      35.620 -38.571 -28.154  0.00  0.00    -0.060 A 
ATOM     10  C   UNL A   1      34.758 -37.733 -28.846  0.00  0.00    -0.061 A 
ATOM     11  C   UNL A   1      35.279 -36.839 -29.781  0.00  0.00    -0.051 A 
ATOM     12  C   UNL A   1      36.670 -36.758 -30.033  0.00  0.00    +0.021 A 
ATOM     13  C   UNL A   1      40.894 -36.912 -30.595  0.00  0.00    -0.010 C 
ATOM     14  C   UNL A   1      41.416 -36.305 -31.890  0.00  0.00    -0.047 C 
ATOM     15  C   UNL A   1      40.839 -34.910 -32.070  0.00  0.00    -0.049 C 
ATOM     16  C   UNL A   1      39.316 -34.970 -32.182  0.00  0.00    -0.024 C 
ENDBRANCH   1   3
BRANCH   1  17
ATOM     17  C   UNL A   1      36.323 -33.649 -30.870  0.00  0.00    +0.009 C 
BRANCH  17  18
ATOM     18  C   UNL A   1      34.945 -33.034 -31.129  0.00  0.00    -0.037 C 
BRANCH  18  19
ATOM     19  C   UNL A   1      34.181 -32.794 -29.828  0.00  0.00    -0.052 C 
BRANCH  19  20
ATOM     20  C   UNL A   1      33.112 -33.866 -29.609  0.00  0.00    -0.052 C 
BRANCH  20  21
ATOM     21  C   UNL A   1      32.450 -33.729 -28.239  0.00  0.00    -0.037 C 
BRANCH  21  22
ATOM     22  C   UNL A   1      30.927 -33.745 -28.358  0.00  0.00    +0.012 C 
BRANCH  22  25
ATOM     23  C   UNL A   1      29.487 -32.248 -29.696  0.00  0.00    +0.220 C 
ATOM     24  O   UNL A   1      29.083 -33.161 -30.406  0.00  0.00    -0.275 OA
ATOM     25  N   UNL A   1      30.402 -32.432 -28.678  0.00  0.00    -0.315 N 
ATOM     26  H   UNL A   1      30.705 -31.653 -28.158  0.00  0.00    +0.000 HD
BRANCH  23  27
ATOM     27  C   UNL A   1      29.033 -30.820 -29.839  0.00  0.00    +0.082 C 
BRANCH  27  29
ATOM     28  C   UNL A   1      29.342 -28.812 -31.442  0.00  0.00    -0.006 C 
ATOM     29  C   UNL A   1      29.950 -29.939 -30.649  0.00  0.00    +0.139 C 
ATOM     30  O   UNL A   1      31.156 -30.187 -30.726  0.00  0.00    -0.297 OA
ENDBRANCH  27  29
ENDBRANCH  23  27
ENDBRANCH  22  25
ENDBRANCH  21  22
ENDBRANCH  20  21
ENDBRANCH  19  20
ENDBRANCH  18  19
ENDBRANCH  17  18
ENDBRANCH   1  17
TORSDOF 10
ENDMDL
MODEL 11
REMARK VINA RESULT:    -6.066      2.680      5.141
REMARK INTER + INTRA:         -11.751
REMARK INTER:                  -9.371
REMARK INTRA:                  -2.380
REMARK UNBOUND:                -2.139
REMARK  Name = cpd143.pdb
REMARK  11 active torsions:
REMARK  status: ('A' for Active; 'I' for Inactive)
REMARK    1  A    between atoms: C_1  and  C_2
REMARK    2  A    between atoms: C_2  and  C_4
REMARK    3  A    between atoms: C_4  and  C_5
REMARK    4  A    between atoms: N_7  and  C_8
REMARK    5  A    between atoms: C_8  and  C_9
REMARK    6  A    between atoms: C_9  and  C_10
REMARK    7  A    between atoms: C_10  and  C_11
REMARK    8  A    between atoms: C_11  and  C_12
REMARK    9  A    between atoms: C_12  and  C_13
REMARK   10  A    between atoms: C_13  and  N_14
REMARK   11  A    between atoms: N_14  and  C_15
REMARK                            x       y       z     vdW  Elec       q    Type
REMARK                         _______ _______ _______ _____ _____    ______ ____
ROOT
ATOM      1  N   UNL A   1      33.947 -36.313 -27.594  0.00  0.00    -0.343 N 
ATOM      2  H   UNL A   1      33.858 -35.936 -26.689  0.00  0.00    +0.000 HD
ENDROOT
BRANCH   1   3
ATOM      3  C   UNL A   1      34.845 -35.812 -28.582  0.00  0.00    +0.041 A 
ATOM      4  C   UNL A   1      36.028 -36.515 -28.895  0.00  0.00    -0.005 A 
ATOM      5  C   UNL A   1      36.839 -35.996 -29.908  0.00  0.00    +0.047 A 
ATOM      6  N   UNL A   1      36.515 -34.897 -30.630  0.00  0.00    -0.251 NA
ATOM      7  C   UNL A   1      35.386 -34.238 -30.341  0.00  0.00    +0.073 A 
ATOM      8  C   UNL A   1      35.078 -33.104 -31.083  0.00  0.00    -0.036 A 
ATOM      9  C   UNL A   1      33.932 -32.345 -30.837  0.00  0.00    -0.060 A 
ATOM     10  C   UNL A   1      33.070 -32.720 -29.817  0.00  0.00    -0.061 A 
ATOM     11  C   UNL A   1      33.359 -33.855 -29.061  0.00  0.00    -0.051 A 
ATOM     12  C   UNL A   1      34.508 -34.642 -29.318  0.00  0.00    +0.021 A 
ATOM     13  C   UNL A   1      38.126 -36.664 -30.318  0.00  0.00    -0.010 C 
ATOM     14  C   UNL A   1      38.686 -37.595 -29.251  0.00  0.00    -0.047 C 
ATOM     15  C   UNL A   1      37.592 -38.532 -28.765  0.00  0.00    -0.049 C 
ATOM     16  C   UNL A   1      36.455 -37.739 -28.120  0.00  0.00    -0.024 C 
ENDBRANCH   1   3
BRANCH   1  17
ATOM     17  C   UNL A   1      33.168 -37.457 -28.086  0.00  0.00    +0.009 C 
BRANCH  17  18
ATOM     18  C   UNL A   1      31.713 -37.021 -28.270  0.00  0.00    -0.037 C 
BRANCH  18  19
ATOM     19  C   UNL A   1      31.164 -37.447 -29.632  0.00  0.00    -0.052 C 
BRANCH  19  20
ATOM     20  C   UNL A   1      31.959 -36.807 -30.771  0.00  0.00    -0.052 C 
BRANCH  20  21
ATOM     21  C   UNL A   1      32.511 -37.859 -31.732  0.00  0.00    -0.037 C 
BRANCH  21  22
ATOM     22  C   UNL A   1      34.032 -37.759 -31.846  0.00  0.00    +0.012 C 
BRANCH  22  25
ATOM     23  C   UNL A   1      34.925 -40.060 -31.742  0.00  0.00    +0.220 C 
ATOM     24  O   UNL A   1      34.571 -40.321 -32.886  0.00  0.00    -0.275 OA
ATOM     25  N   UNL A   1      34.692 -38.840 -31.140  0.00  0.00    -0.315 N 
ATOM     26  H   UNL A   1      34.982 -38.700 -30.209  0.00  0.00    +0.000 HD
BRANCH  23  27
ATOM     27  C   UNL A   1      35.661 -41.031 -30.858  0.00  0.00    +0.082 C 
BRANCH  27  29
ATOM     28  C   UNL A   1      35.919 -41.760 -28.388  0.00  0.00    -0.006 C 
ATOM     29  C   UNL A   1      35.040 -41.255 -29.503  0.00  0.00    +0.139 C 
ATOM     30  O   UNL A   1      33.827 -41.108 -29.334  0.00  0.00    -0.297 OA
ENDBRANCH  27  29
ENDBRANCH  23  27
ENDBRANCH  22  25
ENDBRANCH  21  22
ENDBRANCH  20  21
ENDBRANCH  19  20
ENDBRANCH  18  19
ENDBRANCH  17  18
ENDBRANCH   1  17
TORSDOF 10
ENDMDL
MODEL 12
REMARK VINA RESULT:    -6.003      2.507      5.065
REMARK INTER + INTRA:         -11.652
REMARK INTER:                 -10.736
REMARK INTRA:                  -0.916
REMARK UNBOUND:                -2.139
REMARK  Name = cpd143.pdb
REMARK  11 active torsions:
REMARK  status: ('A' for Active; 'I' for Inactive)
REMARK    1  A    between atoms: C_1  and  C_2
REMARK    2  A    between atoms: C_2  and  C_4
REMARK    3  A    between atoms: C_4  and  C_5
REMARK    4  A    between atoms: N_7  and  C_8
REMARK    5  A    between atoms: C_8  and  C_9
REMARK    6  A    between atoms: C_9  and  C_10
REMARK    7  A    between atoms: C_10  and  C_11
REMARK    8  A    between atoms: C_11  and  C_12
REMARK    9  A    between atoms: C_12  and  C_13
REMARK   10  A    between atoms: C_13  and  N_14
REMARK   11  A    between atoms: N_14  and  C_15
REMARK                            x       y       z     vdW  Elec       q    Type
REMARK                         _______ _______ _______ _____ _____    ______ ____
ROOT
ATOM      1  N   UNL A   1      36.859 -35.069 -31.690  0.00  0.00    -0.343 N 
ATOM      2  H   UNL A   1      36.676 -35.203 -32.648  0.00  0.00    +0.000 HD
ENDROOT
BRANCH   1   3
ATOM      3  C   UNL A   1      37.702 -35.917 -30.912  0.00  0.00    +0.041 A 
ATOM      4  C   UNL A   1      37.143 -36.898 -30.065  0.00  0.00    -0.005 A 
ATOM      5  C   UNL A   1      38.026 -37.729 -29.369  0.00  0.00    +0.047 A 
ATOM      6  N   UNL A   1      39.371 -37.673 -29.515  0.00  0.00    -0.251 NA
ATOM      7  C   UNL A   1      39.899 -36.750 -30.329  0.00  0.00    +0.073 A 
ATOM      8  C   UNL A   1      41.282 -36.699 -30.454  0.00  0.00    -0.036 A 
ATOM      9  C   UNL A   1      41.919 -35.757 -31.265  0.00  0.00    -0.060 A 
ATOM     10  C   UNL A   1      41.158 -34.834 -31.967  0.00  0.00    -0.061 A 
ATOM     11  C   UNL A   1      39.769 -34.869 -31.858  0.00  0.00    -0.051 A 
ATOM     12  C   UNL A   1      39.115 -35.833 -31.054  0.00  0.00    +0.021 A 
ATOM     13  C   UNL A   1      37.536 -38.804 -28.434  0.00  0.00    -0.010 C 
ATOM     14  C   UNL A   1      36.111 -38.575 -27.948  0.00  0.00    -0.047 C 
ATOM     15  C   UNL A   1      35.207 -38.283 -29.136  0.00  0.00    -0.049 C 
ATOM     16  C   UNL A   1      35.652 -37.006 -29.847  0.00  0.00    -0.024 C 
ENDBRANCH   1   3
BRANCH   1  17
ATOM     17  C   UNL A   1      36.294 -33.971 -30.894  0.00  0.00    +0.009 C 
BRANCH  17  18
ATOM     18  C   UNL A   1      34.846 -33.739 -31.330  0.00  0.00    -0.037 C 
BRANCH  18  19
ATOM     19  C   UNL A   1      33.941 -33.427 -30.139  0.00  0.00    -0.052 C 
BRANCH  19  20
ATOM     20  C   UNL A   1      33.783 -31.917 -29.947  0.00  0.00    -0.052 C 
BRANCH  20  21
ATOM     21  C   UNL A   1      32.675 -31.351 -30.835  0.00  0.00    -0.037 C 
BRANCH  21  22
ATOM     22  C   UNL A   1      31.375 -32.136 -30.663  0.00  0.00    +0.012 C 
BRANCH  22  25
ATOM     23  C   UNL A   1      30.305 -31.608 -28.500  0.00  0.00    +0.220 C 
ATOM     24  O   UNL A   1      30.984 -32.425 -27.888  0.00  0.00    -0.275 OA
ATOM     25  N   UNL A   1      30.413 -31.405 -29.861  0.00  0.00    -0.315 N 
ATOM     26  H   UNL A   1      29.823 -30.750 -30.298  0.00  0.00    +0.000 HD
BRANCH  23  27
ATOM     27  C   UNL A   1      29.279 -30.723 -27.844  0.00  0.00    +0.082 C 
BRANCH  27  29
ATOM     28  C   UNL A   1      27.070 -30.269 -29.114  0.00  0.00    -0.006 C 
ATOM     29  C   UNL A   1      28.485 -29.860 -28.792  0.00  0.00    +0.139 C 
ATOM     30  O   UNL A   1      29.007 -28.893 -29.352  0.00  0.00    -0.297 OA
ENDBRANCH  27  29
ENDBRANCH  23  27
ENDBRANCH  22  25
ENDBRANCH  21  22
ENDBRANCH  20  21
ENDBRANCH  19  20
ENDBRANCH  18  19
ENDBRANCH  17  18
ENDBRANCH   1  17
TORSDOF 10
ENDMDL
MODEL 13
REMARK VINA RESULT:    -5.914      3.086      6.339
REMARK INTER + INTRA:         -11.510
REMARK INTER:                  -9.449
REMARK INTRA:                  -2.061
REMARK UNBOUND:                -2.139
REMARK  Name = cpd143.pdb
REMARK  11 active torsions:
REMARK  status: ('A' for Active; 'I' for Inactive)
REMARK    1  A    between atoms: C_1  and  C_2
REMARK    2  A    between atoms: C_2  and  C_4
REMARK    3  A    between atoms: C_4  and  C_5
REMARK    4  A    between atoms: N_7  and  C_8
REMARK    5  A    between atoms: C_8  and  C_9
REMARK    6  A    between atoms: C_9  and  C_10
REMARK    7  A    between atoms: C_10  and  C_11
REMARK    8  A    between atoms: C_11  and  C_12
REMARK    9  A    between atoms: C_12  and  C_13
REMARK   10  A    between atoms: C_13  and  N_14
REMARK   11  A    between atoms: N_14  and  C_15
REMARK                            x       y       z     vdW  Elec       q    Type
REMARK                         _______ _______ _______ _____ _____    ______ ____
ROOT
ATOM      1  N   UNL A   1      34.744 -36.426 -27.693  0.00  0.00    -0.343 N 
ATOM      2  H   UNL A   1      34.852 -36.004 -26.810  0.00  0.00    +0.000 HD
ENDROOT
BRANCH   1   3
ATOM      3  C   UNL A   1      35.203 -35.848 -28.914  0.00  0.00    +0.041 A 
ATOM      4  C   UNL A   1      34.443 -34.851 -29.563  0.00  0.00    -0.005 A 
ATOM      5  C   UNL A   1      34.974 -34.292 -30.728  0.00  0.00    +0.047 A 
ATOM      6  N   UNL A   1      36.192 -34.617 -31.222  0.00  0.00    -0.251 NA
ATOM      7  C   UNL A   1      36.918 -35.554 -30.598  0.00  0.00    +0.073 A 
ATOM      8  C   UNL A   1      38.159 -35.886 -31.128  0.00  0.00    -0.036 A 
ATOM      9  C   UNL A   1      38.973 -36.865 -30.553  0.00  0.00    -0.060 A 
ATOM     10  C   UNL A   1      38.536 -37.539 -29.423  0.00  0.00    -0.061 A 
ATOM     11  C   UNL A   1      37.296 -37.221 -28.874  0.00  0.00    -0.051 A 
ATOM     12  C   UNL A   1      36.473 -36.216 -29.438  0.00  0.00    +0.021 A 
ATOM     13  C   UNL A   1      34.243 -33.225 -31.503  0.00  0.00    -0.010 C 
ATOM     14  C   UNL A   1      32.749 -33.190 -31.214  0.00  0.00    -0.047 C 
ATOM     15  C   UNL A   1      32.519 -33.177 -29.711  0.00  0.00    -0.049 C 
ATOM     16  C   UNL A   1      33.072 -34.451 -29.073  0.00  0.00    -0.024 C 
ENDBRANCH   1   3
BRANCH   1  17
ATOM     17  C   UNL A   1      34.092 -37.724 -27.907  0.00  0.00    +0.009 C 
BRANCH  17  18
ATOM     18  C   UNL A   1      34.210 -38.553 -26.627  0.00  0.00    -0.037 C 
BRANCH  18  19
ATOM     19  C   UNL A   1      33.000 -39.468 -26.433  0.00  0.00    -0.052 C 
BRANCH  19  20
ATOM     20  C   UNL A   1      33.418 -40.940 -26.421  0.00  0.00    -0.052 C 
BRANCH  20  21
ATOM     21  C   UNL A   1      33.074 -41.633 -27.739  0.00  0.00    -0.037 C 
BRANCH  21  22
ATOM     22  C   UNL A   1      34.298 -42.330 -28.331  0.00  0.00    +0.012 C 
BRANCH  22  25
ATOM     23  C   UNL A   1      35.841 -40.778 -29.477  0.00  0.00    +0.220 C 
ATOM     24  O   UNL A   1      36.433 -40.495 -28.441  0.00  0.00    -0.275 OA
ATOM     25  N   UNL A   1      34.774 -41.653 -29.521  0.00  0.00    -0.315 N 
ATOM     26  H   UNL A   1      34.327 -41.821 -30.382  0.00  0.00    +0.000 HD
BRANCH  23  27
ATOM     27  C   UNL A   1      36.208 -40.214 -30.823  0.00  0.00    +0.082 C 
BRANCH  27  29
ATOM     28  C   UNL A   1      34.371 -38.500 -31.445  0.00  0.00    -0.006 C 
ATOM     29  C   UNL A   1      35.037 -39.829 -31.692  0.00  0.00    +0.139 C 
ATOM     30  O   UNL A   1      34.585 -40.617 -32.526  0.00  0.00    -0.297 OA
ENDBRANCH  27  29
ENDBRANCH  23  27
ENDBRANCH  22  25
ENDBRANCH  21  22
ENDBRANCH  20  21
ENDBRANCH  19  20
ENDBRANCH  18  19
ENDBRANCH  17  18
ENDBRANCH   1  17
TORSDOF 10
ENDMDL
MODEL 14
REMARK VINA RESULT:    -5.868      1.112      3.482
REMARK INTER + INTRA:         -11.438
REMARK INTER:                  -9.826
REMARK INTRA:                  -1.612
REMARK UNBOUND:                -2.139
REMARK  Name = cpd143.pdb
REMARK  11 active torsions:
REMARK  status: ('A' for Active; 'I' for Inactive)
REMARK    1  A    between atoms: C_1  and  C_2
REMARK    2  A    between atoms: C_2  and  C_4
REMARK    3  A    between atoms: C_4  and  C_5
REMARK    4  A    between atoms: N_7  and  C_8
REMARK    5  A    between atoms: C_8  and  C_9
REMARK    6  A    between atoms: C_9  and  C_10
REMARK    7  A    between atoms: C_10  and  C_11
REMARK    8  A    between atoms: C_11  and  C_12
REMARK    9  A    between atoms: C_12  and  C_13
REMARK   10  A    between atoms: C_13  and  N_14
REMARK   11  A    between atoms: N_14  and  C_15
REMARK                            x       y       z     vdW  Elec       q    Type
REMARK                         _______ _______ _______ _____ _____    ______ ____
ROOT
ATOM      1  N   UNL A   1      36.707 -35.036 -31.623  0.00  0.00    -0.343 N 
ATOM      2  H   UNL A   1      36.466 -35.109 -32.575  0.00  0.00    +0.000 HD
ENDROOT
BRANCH   1   3
ATOM      3  C   UNL A   1      37.509 -35.989 -30.928  0.00  0.00    +0.041 A 
ATOM      4  C   UNL A   1      36.903 -37.027 -30.187  0.00  0.00    -0.005 A 
ATOM      5  C   UNL A   1      37.747 -37.957 -29.572  0.00  0.00    +0.047 A 
ATOM      6  N   UNL A   1      39.094 -37.940 -29.702  0.00  0.00    -0.251 NA
ATOM      7  C   UNL A   1      39.666 -36.962 -30.417  0.00  0.00    +0.073 A 
ATOM      8  C   UNL A   1      41.052 -36.953 -30.527  0.00  0.00    -0.036 A 
ATOM      9  C   UNL A   1      41.733 -35.961 -31.236  0.00  0.00    -0.060 A 
ATOM     10  C   UNL A   1      41.015 -34.943 -31.847  0.00  0.00    -0.061 A 
ATOM     11  C   UNL A   1      39.624 -34.934 -31.751  0.00  0.00    -0.051 A 
ATOM     12  C   UNL A   1      38.925 -35.948 -31.051  0.00  0.00    +0.021 A 
ATOM     13  C   UNL A   1      37.206 -39.100 -28.751  0.00  0.00    -0.010 C 
ATOM     14  C   UNL A   1      35.786 -38.865 -28.255  0.00  0.00    -0.047 C 
ATOM     15  C   UNL A   1      34.906 -38.421 -29.413  0.00  0.00    -0.049 C 
ATOM     16  C   UNL A   1      35.408 -37.097 -29.991  0.00  0.00    -0.024 C 
ENDBRANCH   1   3
BRANCH   1  17
ATOM     17  C   UNL A   1      36.284 -33.931 -30.752  0.00  0.00    +0.009 C 
BRANCH  17  18
ATOM     18  C   UNL A   1      34.774 -33.733 -30.905  0.00  0.00    -0.037 C 
BRANCH  18  19
ATOM     19  C   UNL A   1      34.227 -32.749 -29.871  0.00  0.00    -0.052 C 
BRANCH  19  20
ATOM     20  C   UNL A   1      33.031 -31.974 -30.427  0.00  0.00    -0.052 C 
BRANCH  20  21
ATOM     21  C   UNL A   1      32.517 -32.589 -31.728  0.00  0.00    -0.037 C 
BRANCH  21  22
ATOM     22  C   UNL A   1      31.208 -33.343 -31.503  0.00  0.00    +0.012 C 
BRANCH  22  25
ATOM     23  C   UNL A   1      31.548 -35.546 -30.438  0.00  0.00    +0.220 C 
ATOM     24  O   UNL A   1      31.557 -35.073 -29.308  0.00  0.00    -0.275 OA
ATOM     25  N   UNL A   1      31.398 -34.779 -31.576  0.00  0.00    -0.315 N 
ATOM     26  H   UNL A   1      31.422 -35.216 -32.457  0.00  0.00    +0.000 HD
BRANCH  23  27
ATOM     27  C   UNL A   1      31.689 -37.017 -30.725  0.00  0.00    +0.082 C 
BRANCH  27  29
ATOM     28  C   UNL A   1      33.215 -37.528 -32.751  0.00  0.00    -0.006 C 
ATOM     29  C   UNL A   1      31.828 -37.371 -32.183  0.00  0.00    +0.139 C 
ATOM     30  O   UNL A   1      30.835 -37.446 -32.911  0.00  0.00    -0.297 OA
ENDBRANCH  27  29
ENDBRANCH  23  27
ENDBRANCH  22  25
ENDBRANCH  21  22
ENDBRANCH  20  21
ENDBRANCH  19  20
ENDBRANCH  18  19
ENDBRANCH  17  18
ENDBRANCH   1  17
TORSDOF 10
ENDMDL
MODEL 15
REMARK VINA RESULT:    -5.868     17.586     19.992
REMARK INTER + INTRA:         -11.438
REMARK INTER:                  -9.681
REMARK INTRA:                  -1.756
REMARK UNBOUND:                -2.139
REMARK  Name = cpd143.pdb
REMARK  11 active torsions:
REMARK  status: ('A' for Active; 'I' for Inactive)
REMARK    1  A    between atoms: C_1  and  C_2
REMARK    2  A    between atoms: C_2  and  C_4
REMARK    3  A    between atoms: C_4  and  C_5
REMARK    4  A    between atoms: N_7  and  C_8
REMARK    5  A    between atoms: C_8  and  C_9
REMARK    6  A    between atoms: C_9  and  C_10
REMARK    7  A    between atoms: C_10  and  C_11
REMARK    8  A    between atoms: C_11  and  C_12
REMARK    9  A    between atoms: C_12  and  C_13
REMARK   10  A    between atoms: C_13  and  N_14
REMARK   11  A    between atoms: N_14  and  C_15
REMARK                            x       y       z     vdW  Elec       q    Type
REMARK                         _______ _______ _______ _____ _____    ______ ____
ROOT
ATOM      1  N   UNL A   1      47.373 -19.324 -39.013  0.00  0.00    -0.343 N 
ATOM      2  H   UNL A   1      48.167 -18.743 -39.010  0.00  0.00    +0.000 HD
ENDROOT
BRANCH   1   3
ATOM      3  C   UNL A   1      46.531 -19.519 -40.148  0.00  0.00    +0.041 A 
ATOM      4  C   UNL A   1      46.511 -20.762 -40.817  0.00  0.00    -0.005 A 
ATOM      5  C   UNL A   1      45.626 -20.902 -41.891  0.00  0.00    +0.047 A 
ATOM      6  N   UNL A   1      44.761 -19.933 -42.273  0.00  0.00    -0.251 NA
ATOM      7  C   UNL A   1      44.772 -18.759 -41.628  0.00  0.00    +0.073 A 
ATOM      8  C   UNL A   1      43.888 -17.772 -42.045  0.00  0.00    -0.036 A 
ATOM      9  C   UNL A   1      43.845 -16.512 -41.443  0.00  0.00    -0.060 A 
ATOM     10  C   UNL A   1      44.713 -16.223 -40.401  0.00  0.00    -0.061 A 
ATOM     11  C   UNL A   1      45.608 -17.200 -39.966  0.00  0.00    -0.051 A 
ATOM     12  C   UNL A   1      45.643 -18.486 -40.557  0.00  0.00    +0.021 A 
ATOM     13  C   UNL A   1      45.528 -22.183 -42.678  0.00  0.00    -0.010 C 
ATOM     14  C   UNL A   1      46.760 -23.068 -42.544  0.00  0.00    -0.047 C 
ATOM     15  C   UNL A   1      47.113 -23.232 -41.074  0.00  0.00    -0.049 C 
ATOM     16  C   UNL A   1      47.458 -21.879 -40.451  0.00  0.00    -0.024 C 
ENDBRANCH   1   3
BRANCH   1  17
ATOM     17  C   UNL A   1      46.914 -20.093 -37.847  0.00  0.00    +0.009 C 
BRANCH  17  18
ATOM     18  C   UNL A   1      45.639 -19.447 -37.302  0.00  0.00    -0.037 C 
BRANCH  18  19
ATOM     19  C   UNL A   1      44.493 -20.454 -37.203  0.00  0.00    -0.052 C 
BRANCH  19  20
ATOM     20  C   UNL A   1      43.400 -20.149 -38.229  0.00  0.00    -0.052 C 
BRANCH  20  21
ATOM     21  C   UNL A   1      43.169 -21.329 -39.172  0.00  0.00    -0.037 C 
BRANCH  21  22
ATOM     22  C   UNL A   1      41.807 -21.975 -38.923  0.00  0.00    +0.012 C 
BRANCH  22  25
ATOM     23  C   UNL A   1      40.428 -22.061 -36.876  0.00  0.00    +0.220 C 
ATOM     24  O   UNL A   1      40.358 -23.284 -36.893  0.00  0.00    -0.275 OA
ATOM     25  N   UNL A   1      41.101 -21.330 -37.834  0.00  0.00    -0.315 N 
ATOM     26  H   UNL A   1      41.101 -20.347 -37.776  0.00  0.00    +0.000 HD
BRANCH  23  27
ATOM     27  C   UNL A   1      39.798 -21.208 -35.808  0.00  0.00    +0.082 C 
BRANCH  27  29
ATOM     28  C   UNL A   1      40.133 -20.144 -33.472  0.00  0.00    -0.006 C 
ATOM     29  C   UNL A   1      40.728 -20.788 -34.697  0.00  0.00    +0.139 C 
ATOM     30  O   UNL A   1      41.950 -20.894 -34.826  0.00  0.00    -0.297 OA
ENDBRANCH  27  29
ENDBRANCH  23  27
ENDBRANCH  22  25
ENDBRANCH  21  22
ENDBRANCH  20  21
ENDBRANCH  19  20
ENDBRANCH  18  19
ENDBRANCH  17  18
ENDBRANCH   1  17
TORSDOF 10
ENDMDL
MODEL 16
REMARK VINA RESULT:    -5.827     15.781     18.169
REMARK INTER + INTRA:         -11.373
REMARK INTER:                 -10.195
REMARK INTRA:                  -1.178
REMARK UNBOUND:                -2.139
REMARK  Name = cpd143.pdb
REMARK  11 active torsions:
REMARK  status: ('A' for Active; 'I' for Inactive)
REMARK    1  A    between atoms: C_1  and  C_2
REMARK    2  A    between atoms: C_2  and  C_4
REMARK    3  A    between atoms: C_4  and  C_5
REMARK    4  A    between atoms: N_7  and  C_8
REMARK    5  A    between atoms: C_8  and  C_9
REMARK    6  A    between atoms: C_9  and  C_10
REMARK    7  A    between atoms: C_10  and  C_11
REMARK    8  A    between atoms: C_11  and  C_12
REMARK    9  A    between atoms: C_12  and  C_13
REMARK   10  A    between atoms: C_13  and  N_14
REMARK   11  A    between atoms: N_14  and  C_15
REMARK                            x       y       z     vdW  Elec       q    Type
REMARK                         _______ _______ _______ _____ _____    ______ ____
ROOT
ATOM      1  N   UNL A   1      43.172 -20.548 -40.534  0.00  0.00    -0.343 N 
ATOM      2  H   UNL A   1      42.875 -19.661 -40.840  0.00  0.00    +0.000 HD
ENDROOT
BRANCH   1   3
ATOM      3  C   UNL A   1      44.440 -20.801 -39.932  0.00  0.00    +0.041 A 
ATOM      4  C   UNL A   1      44.704 -20.373 -38.614  0.00  0.00    -0.005 A 
ATOM      5  C   UNL A   1      45.948 -20.698 -38.066  0.00  0.00    +0.047 A 
ATOM      6  N   UNL A   1      46.874 -21.444 -38.714  0.00  0.00    -0.251 NA
ATOM      7  C   UNL A   1      46.617 -21.861 -39.961  0.00  0.00    +0.073 A 
ATOM      8  C   UNL A   1      47.586 -22.612 -40.616  0.00  0.00    -0.036 A 
ATOM      9  C   UNL A   1      47.410 -23.071 -41.923  0.00  0.00    -0.060 A 
ATOM     10  C   UNL A   1      46.240 -22.767 -42.602  0.00  0.00    -0.061 A 
ATOM     11  C   UNL A   1      45.254 -22.016 -41.964  0.00  0.00    -0.051 A 
ATOM     12  C   UNL A   1      45.416 -21.565 -40.632  0.00  0.00    +0.021 A 
ATOM     13  C   UNL A   1      46.335 -20.285 -36.669  0.00  0.00    -0.010 C 
ATOM     14  C   UNL A   1      45.514 -19.117 -36.139  0.00  0.00    -0.047 C 
ATOM     15  C   UNL A   1      44.034 -19.395 -36.350  0.00  0.00    -0.049 C 
ATOM     16  C   UNL A   1      43.721 -19.527 -37.840  0.00  0.00    -0.024 C 
ENDBRANCH   1   3
BRANCH   1  17
ATOM     17  C   UNL A   1      42.360 -21.768 -40.646  0.00  0.00    +0.009 C 
BRANCH  17  18
ATOM     18  C   UNL A   1      41.512 -21.913 -39.381  0.00  0.00    -0.037 C 
BRANCH  18  19
ATOM     19  C   UNL A   1      40.607 -20.700 -39.166  0.00  0.00    -0.052 C 
BRANCH  19  20
ATOM     20  C   UNL A   1      40.107 -20.633 -37.721  0.00  0.00    -0.052 C 
BRANCH  20  21
ATOM     21  C   UNL A   1      39.220 -21.829 -37.378  0.00  0.00    -0.037 C 
BRANCH  21  22
ATOM     22  C   UNL A   1      39.876 -22.718 -36.323  0.00  0.00    +0.012 C 
BRANCH  22  25
ATOM     23  C   UNL A   1      40.031 -21.667 -34.093  0.00  0.00    +0.220 C 
ATOM     24  O   UNL A   1      41.124 -21.167 -34.331  0.00  0.00    -0.275 OA
ATOM     25  N   UNL A   1      39.349 -22.455 -34.999  0.00  0.00    -0.315 N 
ATOM     26  H   UNL A   1      38.484 -22.846 -34.740  0.00  0.00    +0.000 HD
BRANCH  23  27
ATOM     27  C   UNL A   1      39.295 -21.479 -32.793  0.00  0.00    +0.082 C 
BRANCH  27  29
ATOM     28  C   UNL A   1      36.979 -20.341 -32.991  0.00  0.00    -0.006 C 
ATOM     29  C   UNL A   1      37.796 -21.604 -32.887  0.00  0.00    +0.139 C 
ATOM     30  O   UNL A   1      37.248 -22.705 -32.796  0.00  0.00    -0.297 OA
ENDBRANCH  27  29
ENDBRANCH  23  27
ENDBRANCH  22  25
ENDBRANCH  21  22
ENDBRANCH  20  21
ENDBRANCH  19  20
ENDBRANCH  18  19
ENDBRANCH  17  18
ENDBRANCH   1  17
TORSDOF 10
ENDMDL
MODEL 17
REMARK VINA RESULT:    -5.810     16.256     18.755
REMARK INTER + INTRA:         -11.345
REMARK INTER:                 -10.099
REMARK INTRA:                  -1.247
REMARK UNBOUND:                -2.139
REMARK  Name = cpd143.pdb
REMARK  11 active torsions:
REMARK  status: ('A' for Active; 'I' for Inactive)
REMARK    1  A    between atoms: C_1  and  C_2
REMARK    2  A    between atoms: C_2  and  C_4
REMARK    3  A    between atoms: C_4  and  C_5
REMARK    4  A    between atoms: N_7  and  C_8
REMARK    5  A    between atoms: C_8  and  C_9
REMARK    6  A    between atoms: C_9  and  C_10
REMARK    7  A    between atoms: C_10  and  C_11
REMARK    8  A    between atoms: C_11  and  C_12
REMARK    9  A    between atoms: C_12  and  C_13
REMARK   10  A    between atoms: C_13  and  N_14
REMARK   11  A    between atoms: N_14  and  C_15
REMARK                            x       y       z     vdW  Elec       q    Type
REMARK                         _______ _______ _______ _____ _____    ______ ____
ROOT
ATOM      1  N   UNL A   1      42.496 -19.570 -34.896  0.00  0.00    -0.343 N 
ATOM      2  H   UNL A   1      42.322 -18.608 -35.009  0.00  0.00    +0.000 HD
ENDROOT
BRANCH   1   3
ATOM      3  C   UNL A   1      41.765 -20.597 -35.563  0.00  0.00    +0.041 A 
ATOM      4  C   UNL A   1      42.082 -20.952 -36.892  0.00  0.00    -0.005 A 
ATOM      5  C   UNL A   1      41.361 -22.001 -37.469  0.00  0.00    +0.047 A 
ATOM      6  N   UNL A   1      40.427 -22.718 -36.800  0.00  0.00    -0.251 NA
ATOM      7  C   UNL A   1      40.137 -22.389 -35.535  0.00  0.00    +0.073 A 
ATOM      8  C   UNL A   1      39.165 -23.127 -34.870  0.00  0.00    -0.036 A 
ATOM      9  C   UNL A   1      38.786 -22.841 -33.556  0.00  0.00    -0.060 A 
ATOM     10  C   UNL A   1      39.385 -21.784 -32.887  0.00  0.00    -0.061 A 
ATOM     11  C   UNL A   1      40.364 -21.032 -33.535  0.00  0.00    -0.051 A 
ATOM     12  C   UNL A   1      40.768 -21.328 -34.859  0.00  0.00    +0.021 A 
ATOM     13  C   UNL A   1      41.614 -22.457 -38.884  0.00  0.00    -0.010 C 
ATOM     14  C   UNL A   1      42.309 -21.405 -39.738  0.00  0.00    -0.047 C 
ATOM     15  C   UNL A   1      43.524 -20.868 -39.000  0.00  0.00    -0.049 C 
ATOM     16  C   UNL A   1      43.103 -20.185 -37.699  0.00  0.00    -0.024 C 
ENDBRANCH   1   3
BRANCH   1  17
ATOM     17  C   UNL A   1      43.541 -20.116 -34.019  0.00  0.00    +0.009 C 
BRANCH  17  18
ATOM     18  C   UNL A   1      44.909 -19.810 -34.631  0.00  0.00    -0.037 C 
BRANCH  18  19
ATOM     19  C   UNL A   1      45.165 -18.305 -34.716  0.00  0.00    -0.052 C 
BRANCH  19  20
ATOM     20  C   UNL A   1      46.051 -17.963 -35.916  0.00  0.00    -0.052 C 
BRANCH  20  21
ATOM     21  C   UNL A   1      47.020 -19.099 -36.240  0.00  0.00    -0.037 C 
BRANCH  21  22
ATOM     22  C   UNL A   1      47.326 -19.152 -37.736  0.00  0.00    +0.012 C 
BRANCH  22  25
ATOM     23  C   UNL A   1      47.047 -20.702 -39.639  0.00  0.00    +0.220 C 
ATOM     24  O   UNL A   1      47.138 -19.806 -40.470  0.00  0.00    -0.275 OA
ATOM     25  N   UNL A   1      47.111 -20.480 -38.278  0.00  0.00    -0.315 N 
ATOM     26  H   UNL A   1      47.009 -21.240 -37.661  0.00  0.00    +0.000 HD
BRANCH  23  27
ATOM     27  C   UNL A   1      46.863 -22.153 -39.998  0.00  0.00    +0.082 C 
BRANCH  27  29
ATOM     28  C   UNL A   1      47.671 -23.358 -42.142  0.00  0.00    -0.006 C 
ATOM     29  C   UNL A   1      47.990 -22.758 -40.796  0.00  0.00    +0.139 C 
ATOM     30  O   UNL A   1      49.126 -22.836 -40.323  0.00  0.00    -0.297 OA
ENDBRANCH  27  29
ENDBRANCH  23  27
ENDBRANCH  22  25
ENDBRANCH  21  22
ENDBRANCH  20  21
ENDBRANCH  19  20
ENDBRANCH  18  19
ENDBRANCH  17  18
ENDBRANCH   1  17
TORSDOF 10
ENDMDL
MODEL 18
REMARK VINA RESULT:    -5.736     16.750     19.382
REMARK INTER + INTRA:         -11.229
REMARK INTER:                  -9.667
REMARK INTRA:                  -1.562
REMARK UNBOUND:                -2.139
REMARK  Name = cpd143.pdb
REMARK  11 active torsions:
REMARK  status: ('A' for Active; 'I' for Inactive)
REMARK    1  A    between atoms: C_1  and  C_2
REMARK    2  A    between atoms: C_2  and  C_4
REMARK    3  A    between atoms: C_4  and  C_5
REMARK    4  A    between atoms: N_7  and  C_8
REMARK    5  A    between atoms: C_8  and  C_9
REMARK    6  A    between atoms: C_9  and  C_10
REMARK    7  A    between atoms: C_10  and  C_11
REMARK    8  A    between atoms: C_11  and  C_12
REMARK    9  A    between atoms: C_12  and  C_13
REMARK   10  A    between atoms: C_13  and  N_14
REMARK   11  A    between atoms: N_14  and  C_15
REMARK                            x       y       z     vdW  Elec       q    Type
REMARK                         _______ _______ _______ _____ _____    ______ ____
ROOT
ATOM      1  N   UNL A   1      43.266 -19.579 -35.898  0.00  0.00    -0.343 N 
ATOM      2  H   UNL A   1      43.001 -18.634 -35.972  0.00  0.00    +0.000 HD
ENDROOT
BRANCH   1   3
ATOM      3  C   UNL A   1      42.383 -20.676 -36.126  0.00  0.00    +0.041 A 
ATOM      4  C   UNL A   1      41.674 -21.258 -35.053  0.00  0.00    -0.005 A 
ATOM      5  C   UNL A   1      40.787 -22.296 -35.354  0.00  0.00    +0.047 A 
ATOM      6  N   UNL A   1      40.540 -22.721 -36.615  0.00  0.00    -0.251 NA
ATOM      7  C   UNL A   1      41.204 -22.159 -37.634  0.00  0.00    +0.073 A 
ATOM      8  C   UNL A   1      40.948 -22.620 -38.919  0.00  0.00    -0.036 A 
ATOM      9  C   UNL A   1      41.609 -22.105 -40.037  0.00  0.00    -0.060 A 
ATOM     10  C   UNL A   1      42.558 -21.108 -39.870  0.00  0.00    -0.061 A 
ATOM     11  C   UNL A   1      42.829 -20.630 -38.589  0.00  0.00    -0.051 A 
ATOM     12  C   UNL A   1      42.149 -21.132 -37.453  0.00  0.00    +0.021 A 
ATOM     13  C   UNL A   1      39.985 -22.991 -34.284  0.00  0.00    -0.010 C 
ATOM     14  C   UNL A   1      40.574 -22.827 -32.889  0.00  0.00    -0.047 C 
ATOM     15  C   UNL A   1      40.872 -21.359 -32.630  0.00  0.00    -0.049 C 
ATOM     16  C   UNL A   1      41.912 -20.840 -33.622  0.00  0.00    -0.024 C 
ENDBRANCH   1   3
BRANCH   1  17
ATOM     17  C   UNL A   1      44.619 -20.025 -35.539  0.00  0.00    +0.009 C 
BRANCH  17  18
ATOM     18  C   UNL A   1      45.626 -18.970 -36.002  0.00  0.00    -0.037 C 
BRANCH  18  19
ATOM     19  C   UNL A   1      45.068 -18.121 -37.145  0.00  0.00    -0.052 C 
BRANCH  19  20
ATOM     20  C   UNL A   1      45.951 -18.225 -38.390  0.00  0.00    -0.052 C 
BRANCH  20  21
ATOM     21  C   UNL A   1      45.148 -17.986 -39.669  0.00  0.00    -0.037 C 
BRANCH  21  22
ATOM     22  C   UNL A   1      45.966 -18.347 -40.909  0.00  0.00    +0.012 C 
BRANCH  22  25
ATOM     23  C   UNL A   1      45.729 -20.537 -42.026  0.00  0.00    +0.220 C 
ATOM     24  O   UNL A   1      45.036 -20.078 -42.926  0.00  0.00    -0.275 OA
ATOM     25  N   UNL A   1      46.218 -19.772 -40.986  0.00  0.00    -0.315 N 
ATOM     26  H   UNL A   1      46.751 -20.205 -40.281  0.00  0.00    +0.000 HD
BRANCH  23  27
ATOM     27  C   UNL A   1      46.138 -21.983 -41.947  0.00  0.00    +0.082 C 
BRANCH  27  29
ATOM     28  C   UNL A   1      48.097 -23.664 -42.141  0.00  0.00    -0.006 C 
ATOM     29  C   UNL A   1      47.617 -22.236 -42.095  0.00  0.00    +0.139 C 
ATOM     30  O   UNL A   1      48.419 -21.299 -42.093  0.00  0.00    -0.297 OA
ENDBRANCH  27  29
ENDBRANCH  23  27
ENDBRANCH  22  25
ENDBRANCH  21  22
ENDBRANCH  20  21
ENDBRANCH  19  20
ENDBRANCH  18  19
ENDBRANCH  17  18
ENDBRANCH   1  17
TORSDOF 10
ENDMDL
MODEL 19
REMARK VINA RESULT:    -5.602     15.925     18.078
REMARK INTER + INTRA:         -11.017
REMARK INTER:                  -9.613
REMARK INTRA:                  -1.404
REMARK UNBOUND:                -2.139
REMARK  Name = cpd143.pdb
REMARK  11 active torsions:
REMARK  status: ('A' for Active; 'I' for Inactive)
REMARK    1  A    between atoms: C_1  and  C_2
REMARK    2  A    between atoms: C_2  and  C_4
REMARK    3  A    between atoms: C_4  and  C_5
REMARK    4  A    between atoms: N_7  and  C_8
REMARK    5  A    between atoms: C_8  and  C_9
REMARK    6  A    between atoms: C_9  and  C_10
REMARK    7  A    between atoms: C_10  and  C_11
REMARK    8  A    between atoms: C_11  and  C_12
REMARK    9  A    between atoms: C_12  and  C_13
REMARK   10  A    between atoms: C_13  and  N_14
REMARK   11  A    between atoms: N_14  and  C_15
REMARK                            x       y       z     vdW  Elec       q    Type
REMARK                         _______ _______ _______ _____ _____    ______ ____
ROOT
ATOM      1  N   UNL A   1      42.412 -20.454 -39.690  0.00  0.00    -0.343 N 
ATOM      2  H   UNL A   1      42.051 -19.541 -39.756  0.00  0.00    +0.000 HD
ENDROOT
BRANCH   1   3
ATOM      3  C   UNL A   1      43.790 -20.752 -39.471  0.00  0.00    +0.041 A 
ATOM      4  C   UNL A   1      44.591 -21.246 -40.524  0.00  0.00    -0.005 A 
ATOM      5  C   UNL A   1      45.944 -21.469 -40.255  0.00  0.00    +0.047 A 
ATOM      6  N   UNL A   1      46.524 -21.181 -39.065  0.00  0.00    -0.251 NA
ATOM      7  C   UNL A   1      45.766 -20.700 -38.072  0.00  0.00    +0.073 A 
ATOM      8  C   UNL A   1      46.376 -20.426 -36.853  0.00  0.00    -0.036 A 
ATOM      9  C   UNL A   1      45.658 -19.940 -35.757  0.00  0.00    -0.060 A 
ATOM     10  C   UNL A   1      44.292 -19.730 -35.874  0.00  0.00    -0.061 A 
ATOM     11  C   UNL A   1      43.661 -19.997 -37.088  0.00  0.00    -0.051 A 
ATOM     12  C   UNL A   1      44.384 -20.470 -38.209  0.00  0.00    +0.021 A 
ATOM     13  C   UNL A   1      46.886 -22.001 -41.305  0.00  0.00    -0.010 C 
ATOM     14  C   UNL A   1      46.174 -22.716 -42.445  0.00  0.00    -0.047 C 
ATOM     15  C   UNL A   1      45.042 -21.845 -42.966  0.00  0.00    -0.049 C 
ATOM     16  C   UNL A   1      44.005 -21.600 -41.870  0.00  0.00    -0.024 C 
ENDBRANCH   1   3
BRANCH   1  17
ATOM     17  C   UNL A   1      41.597 -21.670 -39.805  0.00  0.00    +0.009 C 
BRANCH  17  18
ATOM     18  C   UNL A   1      40.993 -21.991 -38.437  0.00  0.00    -0.037 C 
BRANCH  18  19
ATOM     19  C   UNL A   1      40.168 -20.822 -37.896  0.00  0.00    -0.052 C 
BRANCH  19  20
ATOM     20  C   UNL A   1      39.297 -21.261 -36.717  0.00  0.00    -0.052 C 
BRANCH  20  21
ATOM     21  C   UNL A   1      39.419 -22.762 -36.457  0.00  0.00    -0.037 C 
BRANCH  21  22
ATOM     22  C   UNL A   1      39.791 -23.041 -35.001  0.00  0.00    +0.012 C 
BRANCH  22  25
ATOM     23  C   UNL A   1      39.487 -21.437 -33.147  0.00  0.00    +0.220 C 
ATOM     24  O   UNL A   1      38.556 -22.069 -32.663  0.00  0.00    -0.275 OA
ATOM     25  N   UNL A   1      40.145 -21.823 -34.298  0.00  0.00    -0.315 N 
ATOM     26  H   UNL A   1      40.871 -21.259 -34.649  0.00  0.00    +0.000 HD
BRANCH  23  27
ATOM     27  C   UNL A   1      40.032 -20.169 -32.546  0.00  0.00    +0.082 C 
BRANCH  27  29
ATOM     28  C   UNL A   1      42.392 -19.138 -32.812  0.00  0.00    -0.006 C 
ATOM     29  C   UNL A   1      41.038 -19.440 -33.401  0.00  0.00    +0.139 C 
ATOM     30  O   UNL A   1      40.730 -19.028 -34.522  0.00  0.00    -0.297 OA
ENDBRANCH  27  29
ENDBRANCH  23  27
ENDBRANCH  22  25
ENDBRANCH  21  22
ENDBRANCH  20  21
ENDBRANCH  19  20
ENDBRANCH  18  19
ENDBRANCH  17  18
ENDBRANCH   1  17
TORSDOF 10
ENDMDL
MODEL 20
REMARK VINA RESULT:    -5.185     17.275     19.805
REMARK INTER + INTRA:         -10.356
REMARK INTER:                  -8.342
REMARK INTRA:                  -2.013
REMARK UNBOUND:                -2.139
REMARK  Name = cpd143.pdb
REMARK  11 active torsions:
REMARK  status: ('A' for Active; 'I' for Inactive)
REMARK    1  A    between atoms: C_1  and  C_2
REMARK    2  A    between atoms: C_2  and  C_4
REMARK    3  A    between atoms: C_4  and  C_5
REMARK    4  A    between atoms: N_7  and  C_8
REMARK    5  A    between atoms: C_8  and  C_9
REMARK    6  A    between atoms: C_9  and  C_10
REMARK    7  A    between atoms: C_10  and  C_11
REMARK    8  A    between atoms: C_11  and  C_12
REMARK    9  A    between atoms: C_12  and  C_13
REMARK   10  A    between atoms: C_13  and  N_14
REMARK   11  A    between atoms: N_14  and  C_15
REMARK                            x       y       z     vdW  Elec       q    Type
REMARK                         _______ _______ _______ _____ _____    ______ ____
ROOT
ATOM      1  N   UNL A   1      43.268 -20.437 -37.130  0.00  0.00    -0.343 N 
ATOM      2  H   UNL A   1      43.948 -21.076 -37.442  0.00  0.00    +0.000 HD
ENDROOT
BRANCH   1   3
ATOM      3  C   UNL A   1      42.969 -20.197 -35.756  0.00  0.00    +0.041 A 
ATOM      4  C   UNL A   1      41.942 -20.920 -35.112  0.00  0.00    -0.005 A 
ATOM      5  C   UNL A   1      41.734 -20.672 -33.752  0.00  0.00    +0.047 A 
ATOM      6  N   UNL A   1      42.500 -19.826 -33.025  0.00  0.00    -0.251 NA
ATOM      7  C   UNL A   1      43.483 -19.150 -33.634  0.00  0.00    +0.073 A 
ATOM      8  C   UNL A   1      44.248 -18.275 -32.874  0.00  0.00    -0.036 A 
ATOM      9  C   UNL A   1      45.280 -17.516 -33.432  0.00  0.00    -0.060 A 
ATOM     10  C   UNL A   1      45.553 -17.625 -34.787  0.00  0.00    -0.061 A 
ATOM     11  C   UNL A   1      44.798 -18.498 -35.568  0.00  0.00    -0.051 A 
ATOM     12  C   UNL A   1      43.764 -19.287 -35.007  0.00  0.00    +0.021 A 
ATOM     13  C   UNL A   1      40.660 -21.384 -32.969  0.00  0.00    -0.010 C 
ATOM     14  C   UNL A   1      39.562 -21.967 -33.848  0.00  0.00    -0.047 C 
ATOM     15  C   UNL A   1      40.184 -22.770 -34.979  0.00  0.00    -0.049 C 
ATOM     16  C   UNL A   1      41.042 -21.869 -35.867  0.00  0.00    -0.024 C 
ENDBRANCH   1   3
BRANCH   1  17
ATOM     17  C   UNL A   1      42.442 -19.617 -38.026  0.00  0.00    +0.009 C 
BRANCH  17  18
ATOM     18  C   UNL A   1      43.254 -19.285 -39.280  0.00  0.00    -0.037 C 
BRANCH  18  19
ATOM     19  C   UNL A   1      43.809 -17.861 -39.233  0.00  0.00    -0.052 C 
BRANCH  19  20
ATOM     20  C   UNL A   1      45.215 -17.797 -39.830  0.00  0.00    -0.052 C 
BRANCH  20  21
ATOM     21  C   UNL A   1      46.228 -17.249 -38.826  0.00  0.00    -0.037 C 
BRANCH  21  22
ATOM     22  C   UNL A   1      47.135 -18.358 -38.296  0.00  0.00    +0.012 C 
BRANCH  22  25
ATOM     23  C   UNL A   1      46.613 -20.739 -38.696  0.00  0.00    +0.220 C 
ATOM     24  O   UNL A   1      46.209 -20.912 -37.553  0.00  0.00    -0.275 OA
ATOM     25  N   UNL A   1      47.101 -19.530 -39.150  0.00  0.00    -0.315 N 
ATOM     26  H   UNL A   1      47.432 -19.461 -40.074  0.00  0.00    +0.000 HD
BRANCH  23  27
ATOM     27  C   UNL A   1      46.622 -21.817 -39.747  0.00  0.00    +0.082 C 
BRANCH  27  29
ATOM     28  C   UNL A   1      48.300 -21.807 -41.717  0.00  0.00    -0.006 C 
ATOM     29  C   UNL A   1      46.988 -21.352 -41.133  0.00  0.00    +0.139 C 
ATOM     30  O   UNL A   1      46.270 -20.552 -41.739  0.00  0.00    -0.297 OA
ENDBRANCH  27  29
ENDBRANCH  23  27
ENDBRANCH  22  25
ENDBRANCH  21  22
ENDBRANCH  20  21
ENDBRANCH  19  20
ENDBRANCH  18  19
ENDBRANCH  17  18
ENDBRANCH   1  17
TORSDOF 10
ENDMDL
