REMARK  Name = cpd18.pdb
REMARK  20 active torsions:
REMARK  status: ('A' for Active; 'I' for Inactive)
REMARK    1  A    between atoms: C_1  and  C_2
REMARK    2  A    between atoms: C_6  and  N_7
REMARK    3  A    between atoms: N_7  and  C_8
REMARK    4  A    between atoms: C_13  and  C_14
REMARK    5  A    between atoms: N_16  and  C_17
REMARK    6  A    between atoms: C_17  and  C_18
REMARK    7  A    between atoms: C_18  and  C_19
REMARK    8  A    between atoms: C_19  and  C_20
REMARK    9  A    between atoms: C_20  and  C_21
REMARK   10  A    between atoms: C_21  and  C_22
REMARK   11  A    between atoms: N_24  and  C_25
REMARK   12  A    between atoms: C_25  and  C_26
REMARK   13  A    between atoms: C_26  and  C_27
REMARK   14  A    between atoms: C_27  and  C_28
REMARK   15  A    between atoms: C_28  and  C_29
REMARK   16  A    between atoms: C_29  and  C_30
REMARK   17  A    between atoms: C_30  and  C_31
REMARK   18  A    between atoms: C_31  and  N_32
REMARK   19  A    between atoms: N_32  and  C_33
REMARK   20  A    between atoms: C_48  and  C_49
REMARK                            x       y       z     vdW  Elec       q    Type
REMARK                         _______ _______ _______ _____ _____    ______ ____
ROOT
ATOM      1  C   UNL A   1      -3.453  -6.406   0.997  0.00  0.00    +0.213 C 
ATOM      2  O   UNL A   1      -3.658  -6.686  -0.180  0.00  0.00    -0.276 OA
ATOM      3  N   UNL A   1      -4.021  -7.084   2.051  0.00  0.00    -0.315 N 
ATOM      4  H   UNL A   1      -3.771  -6.832   2.969  0.00  0.00    +0.000 HD
ENDROOT
BRANCH   1   5
ATOM      5  C   UNL A   1      -2.552  -5.259   1.409  0.00  0.00    +0.024 C 
BRANCH   5   6
ATOM      6  C   UNL A   1      -3.301  -4.132   2.116  0.00  0.00    -0.045 C 
BRANCH   6   7
ATOM      7  C   UNL A   1      -4.402  -3.452   1.292  0.00  0.00    -0.051 C 
BRANCH   7   8
ATOM      8  C   UNL A   1      -3.890  -2.635   0.102  0.00  0.00    -0.037 C 
BRANCH   8   9
ATOM      9  C   UNL A   1      -3.992  -3.374  -1.233  0.00  0.00    +0.012 C 
BRANCH   9  12
ATOM     10  C   UNL A   1      -2.214  -2.229  -2.616  0.00  0.00    +0.246 C 
ATOM     11  O   UNL A   1      -1.940  -1.192  -3.216  0.00  0.00    -0.270 OA
ATOM     12  N   UNL A   1      -3.523  -2.539  -2.330  0.00  0.00    -0.311 N 
ATOM     13  H   UNL A   1      -4.210  -2.160  -2.925  0.00  0.00    +0.000 HD
BRANCH  10  19
ATOM     14  C   UNL A   1      -0.038  -2.581  -1.433  0.00  0.00    +0.044 A 
ATOM     15  C   UNL A   1       0.931  -3.479  -0.956  0.00  0.00    -0.040 A 
ATOM     16  C   UNL A   1       0.881  -4.839  -1.279  0.00  0.00    -0.060 A 
ATOM     17  C   UNL A   1      -0.155  -5.335  -2.065  0.00  0.00    -0.061 A 
ATOM     18  C   UNL A   1      -1.159  -4.476  -2.506  0.00  0.00    -0.048 A 
ATOM     19  C   UNL A   1      -1.122  -3.117  -2.159  0.00  0.00    +0.058 A 
BRANCH  14  20
ATOM     20  N   UNL A   1      -0.020  -1.211  -1.048  0.00  0.00    -0.314 N 
ATOM     21  H   UNL A   1      -0.892  -0.755  -1.010  0.00  0.00    +0.000 HD
BRANCH  20  27
ATOM     22  C   UNL A   1       2.039   2.530   1.555  0.00  0.00    -0.039 C 
ATOM     23  C   UNL A   1       2.099   1.445   0.513  0.00  0.00    -0.046 A 
ATOM     24  C   UNL A   1       3.275   1.300  -0.239  0.00  0.00    -0.058 A 
ATOM     25  C   UNL A   1       3.368   0.330  -1.233  0.00  0.00    -0.060 A 
ATOM     26  C   UNL A   1       2.289  -0.514  -1.481  0.00  0.00    -0.040 A 
ATOM     27  C   UNL A   1       1.119  -0.429  -0.712  0.00  0.00    +0.035 A 
ATOM     28  C   UNL A   1       1.013   0.568   0.286  0.00  0.00    -0.026 A 
ATOM     29  C   UNL A   1      -0.274   0.717   1.061  0.00  0.00    -0.038 C 
ENDBRANCH  20  27
ENDBRANCH  14  20
ENDBRANCH  10  19
ENDBRANCH   9  12
ENDBRANCH   8   9
ENDBRANCH   7   8
ENDBRANCH   6   7
ENDBRANCH   5   6
ENDBRANCH   1   5
BRANCH   3  30
ATOM     30  C   UNL A   1      -4.974  -8.156   1.853  0.00  0.00    +0.012 C 
BRANCH  30  31
ATOM     31  C   UNL A   1      -6.357  -7.617   1.490  0.00  0.00    -0.037 C 
BRANCH  31  32
ATOM     32  C   UNL A   1      -7.397  -8.738   1.444  0.00  0.00    -0.052 C 
BRANCH  32  33
ATOM     33  C   UNL A   1      -8.785  -8.240   1.027  0.00  0.00    -0.053 C 
BRANCH  33  34
ATOM     34  C   UNL A   1      -8.902  -8.011  -0.482  0.00  0.00    -0.052 C 
BRANCH  34  35
ATOM     35  C   UNL A   1     -10.220  -7.358  -0.908  0.00  0.00    -0.037 C 
BRANCH  35  36
ATOM     36  C   UNL A   1     -11.463  -8.147  -0.493  0.00  0.00    +0.009 C 
BRANCH  36  37
ATOM     37  N   UNL A   1     -12.641  -7.543  -1.134  0.00  0.00    -0.343 N 
ATOM     38  H   UNL A   1     -12.595  -6.933  -1.905  0.00  0.00    +0.000 HD
BRANCH  37  39
ATOM     39  C   UNL A   1     -13.857  -7.945  -0.508  0.00  0.00    +0.041 A 
ATOM     40  C   UNL A   1     -14.543  -9.103  -0.925  0.00  0.00    -0.005 A 
ATOM     41  C   UNL A   1     -15.654  -9.498  -0.172  0.00  0.00    +0.047 A 
ATOM     42  N   UNL A   1     -16.108  -8.812   0.904  0.00  0.00    -0.251 NA
ATOM     43  C   UNL A   1     -15.463  -7.705   1.290  0.00  0.00    +0.074 A 
ATOM     44  C   UNL A   1     -15.946  -7.017   2.394  0.00  0.00    -0.017 A 
ATOM     45  C   UNL A   1     -15.327  -5.856   2.852  0.00  0.00    +0.043 A 
ATOM     46 CL   UNL A   1     -15.958  -5.032   4.225  0.00  0.00    -0.083 Cl
ATOM     47  C   UNL A   1     -14.206  -5.358   2.206  0.00  0.00    -0.043 A 
ATOM     48  C   UNL A   1     -13.707  -6.036   1.096  0.00  0.00    -0.049 A 
ATOM     49  C   UNL A   1     -14.321  -7.221   0.624  0.00  0.00    +0.022 A 
ATOM     50  C   UNL A   1     -16.472 -10.711  -0.537  0.00  0.00    -0.010 C 
ATOM     51  C   UNL A   1     -15.723 -11.699  -1.422  0.00  0.00    -0.047 C 
ATOM     52  C   UNL A   1     -15.091 -10.960  -2.591  0.00  0.00    -0.049 C 
ATOM     53  C   UNL A   1     -14.069  -9.939  -2.090  0.00  0.00    -0.024 C 
ENDBRANCH  37  39
ENDBRANCH  36  37
ENDBRANCH  35  36
ENDBRANCH  34  35
ENDBRANCH  33  34
ENDBRANCH  32  33
ENDBRANCH  31  32
ENDBRANCH  30  31
ENDBRANCH   3  30
TORSDOF 18
