REMARK  Name = cpd200.pdb
REMARK  18 active torsions:
REMARK  status: ('A' for Active; 'I' for Inactive)
REMARK    1  A    between atoms: C_1  and  N_2
REMARK    2  A    between atoms: N_2  and  C_3
REMARK    3  A    between atoms: N_2  and  C_4
REMARK    4  A    between atoms: C_7  and  C_8
REMARK    5  A    between atoms: C_8  and  C_9
REMARK    6  A    between atoms: N_11  and  C_12
REMARK    7  A    between atoms: C_12  and  C_13
REMARK    8  A    between atoms: C_13  and  C_14
REMARK    9  A    between atoms: C_14  and  C_15
REMARK   10  A    between atoms: C_15  and  C_16
REMARK   11  A    between atoms: C_16  and  C_17
REMARK   12  A    between atoms: C_17  and  C_18
REMARK   13  A    between atoms: C_18  and  C_19
REMARK   14  A    between atoms: C_19  and  C_20
REMARK   15  A    between atoms: C_20  and  C_21
REMARK   16  A    between atoms: C_21  and  C_22
REMARK   17  A    between atoms: C_22  and  N_23
REMARK   18  A    between atoms: N_23  and  C_24
REMARK                            x       y       z     vdW  Elec       q    Type
REMARK                         _______ _______ _______ _____ _____    ______ ____
ROOT
ATOM      1  C   UNL     1       3.189  -0.526  -3.475  0.00  0.00    -0.053 C 
ENDROOT
BRANCH   1   2
ATOM      2  C   UNL     1       1.766  -0.017  -3.209  0.00  0.00    -0.053 C 
BRANCH   2   3
ATOM      3  C   UNL     1       0.679  -0.895  -3.835  0.00  0.00    -0.052 C 
BRANCH   3   4
ATOM      4  C   UNL     1       0.016  -1.857  -2.845  0.00  0.00    -0.037 C 
BRANCH   4   5
ATOM      5  C   UNL     1       0.913  -3.008  -2.399  0.00  0.00    +0.012 C 
BRANCH   5   8
ATOM      6  C   UNL     1       0.234  -3.700  -0.129  0.00  0.00    +0.217 C 
ATOM      7  O   UNL     1       0.964  -2.882   0.425  0.00  0.00    -0.275 OA
ATOM      8  N   UNL     1       0.198  -3.889  -1.497  0.00  0.00    -0.315 N 
ATOM      9  H   UNL     1      -0.324  -4.637  -1.867  0.00  0.00    +0.000 HD
BRANCH   6  10
ATOM     10  C   UNL     1      -0.737  -4.578   0.642  0.00  0.00    +0.049 C 
BRANCH  10  14
ATOM     11  C   UNL     1      -4.651  -2.656   0.998  0.00  0.00    +0.029 A 
ATOM     12  C   UNL     1      -4.470  -3.850   0.278  0.00  0.00    -0.040 A 
ATOM     13  C   UNL     1      -3.220  -4.479   0.161  0.00  0.00    -0.056 A 
ATOM     14  C   UNL     1      -2.093  -3.935   0.776  0.00  0.00    -0.039 A 
ATOM     15  C   UNL     1      -2.249  -2.765   1.521  0.00  0.00    -0.056 A 
ATOM     16  C   UNL     1      -3.503  -2.147   1.629  0.00  0.00    -0.040 A 
BRANCH  11  18
ATOM     17  C   UNL     1      -7.000  -2.471   0.262  0.00  0.00    +0.000 C 
ATOM     18  N   UNL     1      -5.900  -2.035   1.119  0.00  0.00    -0.336 N 
ATOM     19  C   UNL     1      -5.948  -0.636   1.544  0.00  0.00    +0.000 C 
ENDBRANCH  11  18
ENDBRANCH  10  14
ENDBRANCH   6  10
ENDBRANCH   5   8
ENDBRANCH   4   5
ENDBRANCH   3   4
ENDBRANCH   2   3
ENDBRANCH   1   2
BRANCH   1  20
ATOM     20  C   UNL     1       4.243   0.338  -2.775  0.00  0.00    -0.053 C 
BRANCH  20  21
ATOM     21  C   UNL     1       4.348   0.039  -1.275  0.00  0.00    -0.053 C 
BRANCH  21  22
ATOM     22  C   UNL     1       5.073   1.166  -0.538  0.00  0.00    -0.053 C 
BRANCH  22  23
ATOM     23  C   UNL     1       5.244   0.921   0.965  0.00  0.00    -0.052 C 
BRANCH  23  24
ATOM     24  C   UNL     1       3.964   0.607   1.751  0.00  0.00    -0.040 C 
BRANCH  24  25
ATOM     25  C   UNL     1       2.798   1.581   1.546  0.00  0.00    -0.004 C 
BRANCH  25  26
ATOM     26  N   UNL     1       3.166   2.939   1.946  0.00  0.00    -0.311 N 
ATOM     27  H   UNL     1       4.068   3.157   1.523  0.00  0.00    +0.000 HD
ATOM     28  H   UNL     1       3.179   2.936   2.966  0.00  0.00    +0.000 HD
BRANCH  26  29
ATOM     29  C   UNL     1       2.215   3.995   1.557  0.00  0.00    +0.020 C 
ATOM     30  C   UNL     1       2.644   5.294   2.296  0.00  0.00    -0.032 C 
ATOM     31  C   UNL     1       1.725   6.469   1.920  0.00  0.00    -0.039 C 
ATOM     32  C   UNL     1       1.804   6.708   0.405  0.00  0.00    -0.047 C 
ATOM     33  C   UNL     1       1.362   5.444  -0.349  0.00  0.00    -0.039 C 
ATOM     34  C   UNL     1      -0.084   5.097   0.046  0.00  0.00    -0.047 C 
ATOM     35  C   UNL     1      -0.175   4.857   1.562  0.00  0.00    -0.039 C 
ATOM     36  C   UNL     1       0.278   6.124   2.305  0.00  0.00    -0.047 C 
ATOM     37  C   UNL     1       0.746   3.685   1.946  0.00  0.00    -0.032 C 
ATOM     38  C   UNL     1       2.287   4.274   0.033  0.00  0.00    -0.032 C 
ENDBRANCH  26  29
ENDBRANCH  25  26
ENDBRANCH  24  25
ENDBRANCH  23  24
ENDBRANCH  22  23
ENDBRANCH  21  22
ENDBRANCH  20  21
ENDBRANCH   1  20
TORSDOF 16
