@<TRIPOS>MOLECULE
*****
 35 38 0 0 0
SMALL
GASTEIGER

@<TRIPOS>ATOM
      1 C          -4.2118   -1.3900    0.0000 C.3     1  UNL1        0.1122
      2 N          -3.2118   -1.3900    0.0000 N.pl3   1  UNL1       -0.3041
      3 C          -2.7118   -0.5240    0.0000 C.3     1  UNL1        0.1122
      4 C          -2.7118   -2.2560    0.0000 C.ar    1  UNL1        0.0479
      5 C          -3.2118   -3.1220    0.0000 C.ar    1  UNL1        0.0142
      6 C          -2.7118   -3.9881    0.0000 C.ar    1  UNL1       -0.0025
      7 C          -1.7118   -3.9881    0.0000 C.ar    1  UNL1       -0.0129
      8 C          -1.2118   -4.8541    0.0000 C.3     1  UNL1        0.1131
      9 C          -0.2118   -4.8541    0.0000 C.2     1  UNL1        0.2458
     10 O           0.2882   -3.9881    0.0000 O.2     1  UNL1       -0.2730
     11 N          -1.7352   -1.0018    0.0000 N.am    1  UNL1       -0.2051
     12 C          -0.8676   -1.5027    0.0000 C.3     1  UNL1        0.1152
     13 C          -0.0000   -1.0018    0.0000 C.3     1  UNL1        0.0234
     14 C          -0.0000   -0.0000    0.0000 C.3     1  UNL1        0.0018
     15 C           0.8676    0.5009    0.0000 C.3     1  UNL1        0.0001
     16 C           1.7352   -0.0000    0.0000 C.3     1  UNL1        0.0000
     17 C           2.6028    0.5009    0.0000 C.3     1  UNL1        0.0000
     18 C           3.4704   -0.0000    0.0000 C.3     1  UNL1        0.0000
     19 C           4.3380    0.5009    0.0000 C.3     1  UNL1        0.0000
     20 C           5.2056   -0.0000    0.0000 C.3     1  UNL1        0.0015
     21 C           5.2056   -1.0018    0.0000 C.3     1  UNL1        0.0188
     22 C           4.3380   -1.5027    0.0000 C.3     1  UNL1        0.0886
     23 N           3.4704   -1.0018    0.0000 N.3     1  UNL1       -0.2208
     24 C           1.2882    4.6722    0.0000 C.3     1  UNL1        0.0594
     25 C           1.0294    5.6381    0.0000 C.3     1  UNL1        0.0161
     26 C           0.0635    5.8969    0.0000 C.3     1  UNL1        0.0013
     27 C           0.7162    6.3070    0.0000 C.3     1  UNL1        0.0001
     28 C           1.4438    6.0524    0.0000 C.3     1  UNL1        0.0013
     29 C           0.0016    5.6660    0.0000 C.3     1  UNL1        0.0001
     30 C          -0.3848    4.2239    0.0000 C.3     1  UNL1        0.0013
     31 C          -0.6436    5.1898    0.0000 C.3     1  UNL1        0.0001
     32 C           0.5811    3.9651    0.0000 C.3     1  UNL1        0.0161
     33 C           1.6984    5.3249    0.0000 C.3     1  UNL1        0.0161
     34 C          -1.2118   -3.1220    0.0000 C.ar    1  UNL1       -0.0025
     35 C          -1.7118   -2.2560    0.0000 C.ar    1  UNL1        0.0142
@<TRIPOS>BOND
     1     1     2    1
     2     2     3    1
     3     2     4    1
     4     4     5   ar
     5     5     6   ar
     6     6     7   ar
     7     7     8    1
     8     8     9    1
     9     9    10    2
    10     9    11   am
    11    11    12    1
    12    12    13    1
    13    13    14    1
    14    14    15    1
    15    15    16    1
    16    16    17    1
    17    17    18    1
    18    18    19    1
    19    19    20    1
    20    20    21    1
    21    21    22    1
    22    22    23    1
    23    23    24    1
    24    24    25    1
    25    25    26    1
    26    26    27    1
    27    27    28    1
    28    28    29    1
    29    29    30    1
    30    30    31    1
    31    26    31    1
    32    30    32    1
    33    24    32    1
    34    28    33    1
    35    24    33    1
    36     7    34   ar
    37    34    35   ar
    38     4    35   ar
