REMARK  Name = cpd10.pdb
REMARK  8 active torsions:
REMARK  status: ('A' for Active; 'I' for Inactive)
REMARK    1  A    between atoms: C_1  and  C_2
REMARK    2  A    between atoms: C_11  and  N_12
REMARK    3  A    between atoms: C_13  and  C_14
REMARK    4  A    between atoms: C_14  and  S_15
REMARK    5  A    between atoms: S_15  and  C_16
REMARK    6  A    between atoms: C_16  and  C_17
REMARK    7  A    between atoms: C_21  and  C_22
REMARK    8  A    between atoms: C_22  and  C_24
REMARK                            x       y       z     vdW  Elec       q    Type
REMARK                         _______ _______ _______ _____ _____    ______ ____
ROOT
ATOM      1  C   UNL A   1      -5.098  -1.620   0.863  0.00  0.00    -0.022 C 
ATOM      2  C   UNL A   1      -4.818  -0.191   0.486  0.00  0.00    +0.045 A 
ATOM      3  N   UNL A   1      -5.921   0.526   0.162  0.00  0.00    -0.251 NA
ATOM      4  C   UNL A   1      -5.784   1.798  -0.226  0.00  0.00    +0.076 A 
ATOM      5  C   UNL A   1      -6.937   2.488  -0.586  0.00  0.00    -0.035 A 
ATOM      6  C   UNL A   1      -6.906   3.818  -1.007  0.00  0.00    -0.057 A 
ATOM      7  C   UNL A   1      -5.691   4.478  -1.065  0.00  0.00    -0.026 A 
ATOM      8  C   UNL A   1      -4.530   3.798  -0.705  0.00  0.00    +0.134 A 
ATOM      9  F   UNL A   1      -3.376   4.486  -0.746  0.00  0.00    -0.205 F 
ATOM     10  C   UNL A   1      -4.539   2.447  -0.282  0.00  0.00    +0.056 A 
ATOM     11  C   UNL A   1      -3.385   1.705   0.114  0.00  0.00    +0.042 A 
ATOM     12  C   UNL A   1      -3.522   0.345   0.472  0.00  0.00    +0.005 A 
ENDROOT
BRANCH  11  13
ATOM     13  N   UNL A   1      -2.102   2.275  -0.058  0.00  0.00    -0.357 N 
ATOM     14  H   UNL A   1      -2.014   3.223  -0.307  0.00  0.00    +0.000 HD
ATOM     15  H   UNL A   1      -1.297   1.723   0.072  0.00  0.00    +0.000 HD
ENDBRANCH  11  13
BRANCH  12  16
ATOM     16  C   UNL A   1      -2.331  -0.519   0.815  0.00  0.00    +0.023 C 
BRANCH  16  17
ATOM     17  S   UNL A   1      -1.711  -1.458  -0.616  0.00  0.00    -0.151 S 
BRANCH  17  18
ATOM     18  C   UNL A   1      -0.243  -2.214   0.143  0.00  0.00    +0.019 C 
BRANCH  18  19
ATOM     19  C   UNL A   1       1.020  -1.467  -0.205  0.00  0.00    -0.037 A 
ATOM     20  C   UNL A   1       1.776  -1.835  -1.325  0.00  0.00    -0.058 A 
ATOM     21  C   UNL A   1       2.934  -1.134  -1.662  0.00  0.00    -0.061 A 
ATOM     22  C   UNL A   1       3.347  -0.043  -0.893  0.00  0.00    -0.051 A 
ATOM     23  C   UNL A   1       2.600   0.351   0.223  0.00  0.00    +0.027 A 
ATOM     24  C   UNL A   1       1.444  -0.372   0.564  0.00  0.00    -0.047 A 
BRANCH  23  25
ATOM     25  C   UNL A   1       2.967   1.526   1.071  0.00  0.00    +0.265 C 
ATOM     26  O   UNL A   1       2.192   1.865   1.970  0.00  0.00    -0.283 OA
BRANCH  25  27
ATOM     27  C   UNL A   1       4.271   2.248   0.775  0.00  0.00    +0.455 C 
ATOM     28  F   UNL A   1       4.285   2.806  -0.468  0.00  0.00    -0.163 F 
ATOM     29  F   UNL A   1       5.348   1.414   0.828  0.00  0.00    -0.163 F 
ATOM     30  F   UNL A   1       4.534   3.259   1.647  0.00  0.00    -0.163 F 
ENDBRANCH  25  27
ENDBRANCH  23  25
ENDBRANCH  18  19
ENDBRANCH  17  18
ENDBRANCH  16  17
ENDBRANCH  12  16
TORSDOF 7
