@<TRIPOS>MOLECULE
*****
 28 30 0 0 0
SMALL
GASTEIGER

@<TRIPOS>ATOM
      1 C          -3.4641   -1.0000    0.0000 C.3     1  UNL1        0.0518
      2 C          -3.4641   -0.0000    0.0000 C.ar    1  UNL1        0.0575
      3 N          -4.3301    0.5000    0.0000 N.ar    1  UNL1       -0.2498
      4 C          -4.3301    1.5000    0.0000 C.ar    1  UNL1        0.0843
      5 C          -5.1962    2.0000    0.0000 C.ar    1  UNL1        0.0193
      6 C          -5.1962    3.0000    0.0000 C.ar    1  UNL1        0.0039
      7 C          -4.3301    3.5000    0.0000 C.ar    1  UNL1        0.0298
      8 C          -3.4641    3.0000    0.0000 C.ar    1  UNL1        0.1428
      9 F          -2.5981    3.5000    0.0000 F       1  UNL1       -0.2041
     10 C          -3.4641    2.0000    0.0000 C.ar    1  UNL1        0.0616
     11 C          -2.5981    1.5000    0.0000 C.ar    1  UNL1        0.0906
     12 N          -1.7321    2.0000    0.0000 N.pl3   1  UNL1       -0.1282
     13 C          -2.5981    0.5000    0.0000 C.ar    1  UNL1        0.0191
     14 C          -1.7321   -0.0000    0.0000 C.3     1  UNL1        0.0866
     15 S          -1.7321   -1.0000    0.0000 S.3     1  UNL1       -0.1306
     16 C          -0.8660   -1.5000    0.0000 C.3     1  UNL1        0.0841
     17 C           0.0000   -1.0000    0.0000 C.ar    1  UNL1       -0.0112
     18 C           0.8660   -1.5000    0.0000 C.ar    1  UNL1       -0.0034
     19 C           1.7321   -1.0000    0.0000 C.ar    1  UNL1       -0.0002
     20 C           1.7321    0.0000    0.0000 C.ar    1  UNL1        0.0031
     21 C           0.8660    0.5000    0.0000 C.ar    1  UNL1        0.0428
     22 C           0.8660    1.5000    0.0000 C.2     1  UNL1        0.2666
     23 O          -0.0000    2.0000    0.0000 O.2     1  UNL1       -0.2825
     24 C           1.7321    2.0000    0.0000 C.3     1  UNL1        0.4554
     25 F           2.7321    2.0000    0.0000 F       1  UNL1       -0.1631
     26 F           2.2321    1.1340    0.0000 F       1  UNL1       -0.1631
     27 F           1.7321    3.0000    0.0000 F       1  UNL1       -0.1631
     28 C           0.0000    0.0000    0.0000 C.ar    1  UNL1       -0.0003
@<TRIPOS>BOND
     1     1     2    1
     2     2     3   ar
     3     3     4   ar
     4     4     5   ar
     5     5     6   ar
     6     6     7   ar
     7     7     8   ar
     8     8     9    1
     9     8    10   ar
    10     4    10   ar
    11    10    11   ar
    12    11    12    1
    13    11    13   ar
    14     2    13   ar
    15    13    14    1
    16    14    15    1
    17    15    16    1
    18    16    17    1
    19    17    18   ar
    20    18    19   ar
    21    19    20   ar
    22    20    21   ar
    23    21    22    1
    24    22    23    2
    25    22    24    1
    26    24    25    1
    27    24    26    1
    28    24    27    1
    29    21    28   ar
    30    17    28   ar
