MODEL 1
REMARK VINA RESULT:    -9.011      0.000      0.000
REMARK INTER + INTRA:         -11.306
REMARK INTER:                 -11.118
REMARK INTRA:                  -0.188
REMARK UNBOUND:                -0.188
REMARK  Name = cpd259.pdb
REMARK  8 active torsions:
REMARK  status: ('A' for Active; 'I' for Inactive)
REMARK    1  A    between atoms: C_1  and  C_2
REMARK    2  A    between atoms: C_2  and  C_3
REMARK    3  A    between atoms: C_8  and  N_9
REMARK    4  A    between atoms: C_10  and  O_12
REMARK    5  A    between atoms: O_12  and  C_13
REMARK    6  A    between atoms: C_19  and  C_20
REMARK    7  A    between atoms: N_23  and  C_24
REMARK    8  A    between atoms: N_27  and  C_28
REMARK                            x       y       z     vdW  Elec       q    Type
REMARK                         _______ _______ _______ _____ _____    ______ ____
ROOT
ATOM      1  C   UNL A   1      36.799 -37.640 -29.353  0.00  0.00    +0.134 A 
ATOM      2  C   UNL A   1      36.260 -38.529 -30.303  0.00  0.00    -0.017 A 
ATOM      3  C   UNL A   1      35.230 -38.108 -31.148  0.00  0.00    -0.037 A 
ATOM      4  C   UNL A   1      34.737 -36.827 -30.989  0.00  0.00    +0.032 A 
ATOM      5  C   UNL A   1      35.296 -35.958 -30.024  0.00  0.00    -0.017 A 
ATOM      6  C   UNL A   1      36.324 -36.343 -29.188  0.00  0.00    -0.014 A 
ATOM      7  C   UNL A   1      34.587 -34.650 -30.200  0.00  0.00    +0.002 C 
ATOM      8  C   UNL A   1      35.357 -33.847 -31.284  0.00  0.00    -0.055 C 
ATOM      9  C   UNL A   1      34.201 -33.771 -29.043  0.00  0.00    -0.054 C 
ATOM     10  C   UNL A   1      33.033 -33.008 -29.656  0.00  0.00    -0.048 C 
ATOM     11  N   UNL A   1      32.395 -33.927 -30.718  0.00  0.00    +0.433 N 
ATOM     12  C   UNL A   1      30.920 -34.038 -30.399  0.00  0.00    -0.060 C 
ATOM     13  O   UNL A   1      32.494 -33.388 -31.973  0.00  0.00    -0.289 OA
ATOM     14  C   UNL A   1      33.139 -35.315 -30.535  0.00  0.00    +0.039 C 
ATOM     15  N   UNL A   1      33.694 -36.165 -31.685  0.00  0.00    -0.341 N 
ATOM     16  C   UNL A   1      32.817 -36.929 -32.554  0.00  0.00    -0.001 C 
ENDROOT
BRANCH   1  17
ATOM     17  O   UNL A   1      37.833 -38.072 -28.494  0.00  0.00    -0.411 OA
BRANCH  17  19
ATOM     18  N   UNL A   1      39.439 -37.239 -29.980  0.00  0.00    -0.251 N 
ATOM     19  C   UNL A   1      39.201 -37.905 -28.795  0.00  0.00    +0.410 C 
ATOM     20  O   UNL A   1      40.032 -38.359 -28.021  0.00  0.00    -0.226 OA
ATOM     21  H   UNL A   1      38.646 -36.889 -30.445  0.00  0.00    +0.000 HD
BRANCH  18  27
ATOM     22  C   UNL A   1      41.080 -35.811 -31.257  0.00  0.00    -0.026 A 
ATOM     23  C   UNL A   1      42.416 -35.719 -31.706  0.00  0.00    -0.057 A 
ATOM     24  C   UNL A   1      43.302 -36.793 -31.606  0.00  0.00    -0.061 A 
ATOM     25  C   UNL A   1      42.872 -37.989 -31.055  0.00  0.00    -0.060 A 
ATOM     26  C   UNL A   1      41.572 -38.090 -30.564  0.00  0.00    -0.040 A 
ATOM     27  C   UNL A   1      40.683 -36.998 -30.606  0.00  0.00    +0.040 A 
BRANCH  22  29
ATOM     28  C   UNL A   1      38.734 -35.046 -32.009  0.00  0.00    -0.061 C 
ATOM     29  C   UNL A   1      40.138 -34.658 -31.545  0.00  0.00    -0.029 C 
ENDBRANCH  22  29
ENDBRANCH  18  27
ENDBRANCH  17  19
ENDBRANCH   1  17
TORSDOF 4
ENDMDL
MODEL 2
REMARK VINA RESULT:    -8.663      1.999      2.892
REMARK INTER + INTRA:         -10.878
REMARK INTER:                 -10.084
REMARK INTRA:                  -0.793
REMARK UNBOUND:                -0.188
REMARK  Name = cpd259.pdb
REMARK  8 active torsions:
REMARK  status: ('A' for Active; 'I' for Inactive)
REMARK    1  A    between atoms: C_1  and  C_2
REMARK    2  A    between atoms: C_2  and  C_3
REMARK    3  A    between atoms: C_8  and  N_9
REMARK    4  A    between atoms: C_10  and  O_12
REMARK    5  A    between atoms: O_12  and  C_13
REMARK    6  A    between atoms: C_19  and  C_20
REMARK    7  A    between atoms: N_23  and  C_24
REMARK    8  A    between atoms: N_27  and  C_28
REMARK                            x       y       z     vdW  Elec       q    Type
REMARK                         _______ _______ _______ _____ _____    ______ ____
ROOT
ATOM      1  C   UNL A   1      34.092 -37.093 -28.365  0.00  0.00    +0.134 A 
ATOM      2  C   UNL A   1      32.734 -37.400 -28.158  0.00  0.00    -0.017 A 
ATOM      3  C   UNL A   1      31.742 -36.558 -28.668  0.00  0.00    -0.037 A 
ATOM      4  C   UNL A   1      32.137 -35.411 -29.330  0.00  0.00    +0.032 A 
ATOM      5  C   UNL A   1      33.509 -35.127 -29.519  0.00  0.00    -0.017 A 
ATOM      6  C   UNL A   1      34.508 -35.949 -29.040  0.00  0.00    -0.014 A 
ATOM      7  C   UNL A   1      33.552 -33.877 -30.343  0.00  0.00    +0.002 C 
ATOM      8  C   UNL A   1      33.495 -34.303 -31.836  0.00  0.00    -0.055 C 
ATOM      9  C   UNL A   1      34.572 -32.794 -30.125  0.00  0.00    -0.054 C 
ATOM     10  C   UNL A   1      33.822 -31.594 -30.691  0.00  0.00    -0.048 C 
ATOM     11  N   UNL A   1      32.317 -31.866 -30.502  0.00  0.00    +0.433 N 
ATOM     12  C   UNL A   1      31.727 -30.685 -29.764  0.00  0.00    -0.060 C 
ATOM     13  O   UNL A   1      31.667 -31.952 -31.706  0.00  0.00    -0.289 OA
ATOM     14  C   UNL A   1      32.263 -33.188 -29.628  0.00  0.00    +0.039 C 
ATOM     15  N   UNL A   1      31.349 -34.387 -29.915  0.00  0.00    -0.341 N 
ATOM     16  C   UNL A   1      29.925 -34.336 -29.641  0.00  0.00    -0.001 C 
ENDROOT
BRANCH   1  17
ATOM     17  O   UNL A   1      35.093 -37.941 -27.839  0.00  0.00    -0.411 OA
BRANCH  17  19
ATOM     18  N   UNL A   1      37.289 -37.450 -28.483  0.00  0.00    -0.251 N 
ATOM     19  C   UNL A   1      36.231 -38.332 -28.574  0.00  0.00    +0.410 C 
ATOM     20  O   UNL A   1      36.187 -39.371 -29.217  0.00  0.00    -0.226 OA
ATOM     21  H   UNL A   1      37.168 -36.693 -27.866  0.00  0.00    +0.000 HD
BRANCH  18  27
ATOM     22  C   UNL A   1      38.840 -36.858 -30.382  0.00  0.00    -0.026 A 
ATOM     23  C   UNL A   1      40.174 -36.925 -30.838  0.00  0.00    -0.057 A 
ATOM     24  C   UNL A   1      41.142 -37.680 -30.175  0.00  0.00    -0.061 A 
ATOM     25  C   UNL A   1      40.797 -38.391 -29.036  0.00  0.00    -0.060 A 
ATOM     26  C   UNL A   1      39.498 -38.304 -28.541  0.00  0.00    -0.040 A 
ATOM     27  C   UNL A   1      38.525 -37.502 -29.167  0.00  0.00    +0.040 A 
BRANCH  22  29
ATOM     28  C   UNL A   1      38.198 -34.746 -31.717  0.00  0.00    -0.061 C 
ATOM     29  C   UNL A   1      37.815 -36.148 -31.245  0.00  0.00    -0.029 C 
ENDBRANCH  22  29
ENDBRANCH  18  27
ENDBRANCH  17  19
ENDBRANCH   1  17
TORSDOF 4
ENDMDL
MODEL 3
REMARK VINA RESULT:    -8.153      2.539      4.594
REMARK INTER + INTRA:         -10.248
REMARK INTER:                  -9.610
REMARK INTRA:                  -0.638
REMARK UNBOUND:                -0.188
REMARK  Name = cpd259.pdb
REMARK  8 active torsions:
REMARK  status: ('A' for Active; 'I' for Inactive)
REMARK    1  A    between atoms: C_1  and  C_2
REMARK    2  A    between atoms: C_2  and  C_3
REMARK    3  A    between atoms: C_8  and  N_9
REMARK    4  A    between atoms: C_10  and  O_12
REMARK    5  A    between atoms: O_12  and  C_13
REMARK    6  A    between atoms: C_19  and  C_20
REMARK    7  A    between atoms: N_23  and  C_24
REMARK    8  A    between atoms: N_27  and  C_28
REMARK                            x       y       z     vdW  Elec       q    Type
REMARK                         _______ _______ _______ _____ _____    ______ ____
ROOT
ATOM      1  C   UNL A   1      33.545 -34.825 -31.334  0.00  0.00    +0.134 A 
ATOM      2  C   UNL A   1      33.109 -35.753 -30.370  0.00  0.00    -0.017 A 
ATOM      3  C   UNL A   1      31.936 -35.513 -29.649  0.00  0.00    -0.037 A 
ATOM      4  C   UNL A   1      31.258 -34.331 -29.881  0.00  0.00    +0.032 A 
ATOM      5  C   UNL A   1      31.723 -33.415 -30.854  0.00  0.00    -0.017 A 
ATOM      6  C   UNL A   1      32.869 -33.636 -31.589  0.00  0.00    -0.014 A 
ATOM      7  C   UNL A   1      30.703 -32.318 -30.894  0.00  0.00    +0.002 C 
ATOM      8  C   UNL A   1      29.603 -32.744 -31.905  0.00  0.00    -0.055 C 
ATOM      9  C   UNL A   1      31.072 -30.871 -31.068  0.00  0.00    -0.054 C 
ATOM     10  C   UNL A   1      29.870 -30.202 -30.414  0.00  0.00    -0.048 C 
ATOM     11  N   UNL A   1      29.333 -31.173 -29.343  0.00  0.00    +0.433 N 
ATOM     12  C   UNL A   1      29.266 -30.418 -28.034  0.00  0.00    -0.060 C 
ATOM     13  O   UNL A   1      28.059 -31.586 -29.634  0.00  0.00    -0.289 OA
ATOM     14  C   UNL A   1      30.409 -32.336 -29.294  0.00  0.00    +0.039 C 
ATOM     15  N   UNL A   1      30.074 -33.834 -29.280  0.00  0.00    -0.341 N 
ATOM     16  C   UNL A   1      29.549 -34.481 -28.091  0.00  0.00    -0.001 C 
ENDROOT
BRANCH   1  17
ATOM     17  O   UNL A   1      34.737 -35.065 -32.054  0.00  0.00    -0.411 OA
BRANCH  17  19
ATOM     18  N   UNL A   1      36.786 -36.141 -31.697  0.00  0.00    -0.251 N 
ATOM     19  C   UNL A   1      36.015 -35.022 -31.459  0.00  0.00    +0.410 C 
ATOM     20  O   UNL A   1      36.320 -34.041 -30.794  0.00  0.00    -0.226 OA
ATOM     21  H   UNL A   1      36.400 -36.808 -32.310  0.00  0.00    +0.000 HD
BRANCH  18  27
ATOM     22  C   UNL A   1      38.333 -37.070 -29.935  0.00  0.00    -0.026 A 
ATOM     23  C   UNL A   1      39.673 -37.409 -29.647  0.00  0.00    -0.057 A 
ATOM     24  C   UNL A   1      40.721 -37.059 -30.499  0.00  0.00    -0.061 A 
ATOM     25  C   UNL A   1      40.453 -36.357 -31.664  0.00  0.00    -0.060 A 
ATOM     26  C   UNL A   1      39.134 -36.051 -31.992  0.00  0.00    -0.040 A 
ATOM     27  C   UNL A   1      38.061 -36.447 -31.170  0.00  0.00    +0.040 A 
BRANCH  22  29
ATOM     28  C   UNL A   1      37.347 -38.713 -28.208  0.00  0.00    -0.061 C 
ATOM     29  C   UNL A   1      37.274 -37.345 -28.885  0.00  0.00    -0.029 C 
ENDBRANCH  22  29
ENDBRANCH  18  27
ENDBRANCH  17  19
ENDBRANCH   1  17
TORSDOF 4
ENDMDL
MODEL 4
REMARK VINA RESULT:    -8.063      2.536      4.495
REMARK INTER + INTRA:         -10.137
REMARK INTER:                  -9.445
REMARK INTRA:                  -0.692
REMARK UNBOUND:                -0.188
REMARK  Name = cpd259.pdb
REMARK  8 active torsions:
REMARK  status: ('A' for Active; 'I' for Inactive)
REMARK    1  A    between atoms: C_1  and  C_2
REMARK    2  A    between atoms: C_2  and  C_3
REMARK    3  A    between atoms: C_8  and  N_9
REMARK    4  A    between atoms: C_10  and  O_12
REMARK    5  A    between atoms: O_12  and  C_13
REMARK    6  A    between atoms: C_19  and  C_20
REMARK    7  A    between atoms: N_23  and  C_24
REMARK    8  A    between atoms: N_27  and  C_28
REMARK                            x       y       z     vdW  Elec       q    Type
REMARK                         _______ _______ _______ _____ _____    ______ ____
ROOT
ATOM      1  C   UNL A   1      33.323 -35.026 -31.232  0.00  0.00    +0.134 A 
ATOM      2  C   UNL A   1      32.699 -35.964 -30.388  0.00  0.00    -0.017 A 
ATOM      3  C   UNL A   1      31.487 -35.649 -29.768  0.00  0.00    -0.037 A 
ATOM      4  C   UNL A   1      30.957 -34.389 -29.973  0.00  0.00    +0.032 A 
ATOM      5  C   UNL A   1      31.608 -33.466 -30.824  0.00  0.00    -0.017 A 
ATOM      6  C   UNL A   1      32.797 -33.757 -31.460  0.00  0.00    -0.014 A 
ATOM      7  C   UNL A   1      30.712 -32.267 -30.879  0.00  0.00    +0.002 C 
ATOM      8  C   UNL A   1      29.686 -32.506 -32.021  0.00  0.00    -0.055 C 
ATOM      9  C   UNL A   1      31.238 -30.859 -30.906  0.00  0.00    -0.054 C 
ATOM     10  C   UNL A   1      30.046 -30.110 -30.322  0.00  0.00    -0.048 C 
ATOM     11  N   UNL A   1      29.307 -31.087 -29.385  0.00  0.00    +0.433 N 
ATOM     12  C   UNL A   1      29.179 -30.417 -28.035  0.00  0.00    -0.060 C 
ATOM     13  O   UNL A   1      28.036 -31.344 -29.828  0.00  0.00    -0.289 OA
ATOM     14  C   UNL A   1      30.252 -32.359 -29.320  0.00  0.00    +0.039 C 
ATOM     15  N   UNL A   1      29.772 -33.810 -29.453  0.00  0.00    -0.341 N 
ATOM     16  C   UNL A   1      29.065 -34.475 -28.374  0.00  0.00    -0.001 C 
ENDROOT
BRANCH   1  17
ATOM     17  O   UNL A   1      34.553 -35.343 -31.849  0.00  0.00    -0.411 OA
BRANCH  17  19
ATOM     18  N   UNL A   1      36.452 -36.614 -31.338  0.00  0.00    -0.251 N 
ATOM     19  C   UNL A   1      35.768 -35.432 -31.138  0.00  0.00    +0.410 C 
ATOM     20  O   UNL A   1      36.097 -34.498 -30.420  0.00  0.00    -0.226 OA
ATOM     21  H   UNL A   1      36.066 -37.229 -32.002  0.00  0.00    +0.000 HD
BRANCH  18  27
ATOM     22  C   UNL A   1      38.955 -36.655 -31.027  0.00  0.00    -0.026 A 
ATOM     23  C   UNL A   1      40.001 -37.100 -30.190  0.00  0.00    -0.057 A 
ATOM     24  C   UNL A   1      39.772 -37.981 -29.131  0.00  0.00    -0.061 A 
ATOM     25  C   UNL A   1      38.489 -38.440 -28.885  0.00  0.00    -0.060 A 
ATOM     26  C   UNL A   1      37.433 -37.980 -29.670  0.00  0.00    -0.040 A 
ATOM     27  C   UNL A   1      37.639 -37.048 -30.706  0.00  0.00    +0.040 A 
BRANCH  22  29
ATOM     28  C   UNL A   1      39.276 -34.312 -32.058  0.00  0.00    -0.061 C 
ATOM     29  C   UNL A   1      39.307 -35.829 -32.249  0.00  0.00    -0.029 C 
ENDBRANCH  22  29
ENDBRANCH  18  27
ENDBRANCH  17  19
ENDBRANCH   1  17
TORSDOF 4
ENDMDL
MODEL 5
REMARK VINA RESULT:    -7.931      2.615      4.983
REMARK INTER + INTRA:          -9.973
REMARK INTER:                  -9.914
REMARK INTRA:                  -0.059
REMARK UNBOUND:                -0.188
REMARK  Name = cpd259.pdb
REMARK  8 active torsions:
REMARK  status: ('A' for Active; 'I' for Inactive)
REMARK    1  A    between atoms: C_1  and  C_2
REMARK    2  A    between atoms: C_2  and  C_3
REMARK    3  A    between atoms: C_8  and  N_9
REMARK    4  A    between atoms: C_10  and  O_12
REMARK    5  A    between atoms: O_12  and  C_13
REMARK    6  A    between atoms: C_19  and  C_20
REMARK    7  A    between atoms: N_23  and  C_24
REMARK    8  A    between atoms: N_27  and  C_28
REMARK                            x       y       z     vdW  Elec       q    Type
REMARK                         _______ _______ _______ _____ _____    ______ ____
ROOT
ATOM      1  C   UNL A   1      33.795 -34.054 -31.540  0.00  0.00    +0.134 A 
ATOM      2  C   UNL A   1      34.213 -32.774 -31.131  0.00  0.00    -0.017 A 
ATOM      3  C   UNL A   1      33.264 -31.801 -30.803  0.00  0.00    -0.037 A 
ATOM      4  C   UNL A   1      31.927 -32.123 -30.937  0.00  0.00    +0.032 A 
ATOM      5  C   UNL A   1      31.537 -33.417 -31.354  0.00  0.00    -0.017 A 
ATOM      6  C   UNL A   1      32.453 -34.399 -31.669  0.00  0.00    -0.014 A 
ATOM      7  C   UNL A   1      30.041 -33.427 -31.294  0.00  0.00    +0.002 C 
ATOM      8  C   UNL A   1      29.638 -33.835 -29.850  0.00  0.00    -0.055 C 
ATOM      9  C   UNL A   1      29.190 -34.129 -32.315  0.00  0.00    -0.054 C 
ATOM     10  C   UNL A   1      27.898 -33.331 -32.190  0.00  0.00    -0.048 C 
ATOM     11  N   UNL A   1      28.281 -31.909 -31.735  0.00  0.00    +0.433 N 
ATOM     12  C   UNL A   1      27.671 -30.934 -32.719  0.00  0.00    -0.060 C 
ATOM     13  O   UNL A   1      27.757 -31.616 -30.504  0.00  0.00    -0.289 OA
ATOM     14  C   UNL A   1      29.866 -31.890 -31.799  0.00  0.00    +0.039 C 
ATOM     15  N   UNL A   1      30.777 -31.328 -30.699  0.00  0.00    -0.341 N 
ATOM     16  C   UNL A   1      30.924 -29.899 -30.495  0.00  0.00    -0.001 C 
ENDROOT
BRANCH   1  17
ATOM     17  O   UNL A   1      34.757 -35.031 -31.881  0.00  0.00    -0.411 OA
BRANCH  17  19
ATOM     18  N   UNL A   1      37.076 -35.316 -32.022  0.00  0.00    -0.251 N 
ATOM     19  C   UNL A   1      35.980 -35.176 -31.195  0.00  0.00    +0.410 C 
ATOM     20  O   UNL A   1      35.970 -35.180 -29.972  0.00  0.00    -0.226 OA
ATOM     21  H   UNL A   1      36.904 -35.226 -32.987  0.00  0.00    +0.000 HD
BRANCH  18  27
ATOM     22  C   UNL A   1      38.883 -36.659 -30.883  0.00  0.00    -0.026 A 
ATOM     23  C   UNL A   1      40.278 -36.812 -30.734  0.00  0.00    -0.057 A 
ATOM     24  C   UNL A   1      41.180 -35.874 -31.239  0.00  0.00    -0.061 A 
ATOM     25  C   UNL A   1      40.706 -34.756 -31.908  0.00  0.00    -0.060 A 
ATOM     26  C   UNL A   1      39.335 -34.607 -32.108  0.00  0.00    -0.040 A 
ATOM     27  C   UNL A   1      38.417 -35.573 -31.652  0.00  0.00    +0.040 A 
BRANCH  22  29
ATOM     28  C   UNL A   1      38.028 -37.608 -28.643  0.00  0.00    -0.061 C 
ATOM     29  C   UNL A   1      37.967 -37.634 -30.170  0.00  0.00    -0.029 C 
ENDBRANCH  22  29
ENDBRANCH  18  27
ENDBRANCH  17  19
ENDBRANCH   1  17
TORSDOF 4
ENDMDL
MODEL 6
REMARK VINA RESULT:    -7.860     16.520     18.523
REMARK INTER + INTRA:          -9.886
REMARK INTER:                  -9.362
REMARK INTRA:                  -0.524
REMARK UNBOUND:                -0.188
REMARK  Name = cpd259.pdb
REMARK  8 active torsions:
REMARK  status: ('A' for Active; 'I' for Inactive)
REMARK    1  A    between atoms: C_1  and  C_2
REMARK    2  A    between atoms: C_2  and  C_3
REMARK    3  A    between atoms: C_8  and  N_9
REMARK    4  A    between atoms: C_10  and  O_12
REMARK    5  A    between atoms: O_12  and  C_13
REMARK    6  A    between atoms: C_19  and  C_20
REMARK    7  A    between atoms: N_23  and  C_24
REMARK    8  A    between atoms: N_27  and  C_28
REMARK                            x       y       z     vdW  Elec       q    Type
REMARK                         _______ _______ _______ _____ _____    ______ ____
ROOT
ATOM      1  C   UNL A   1      43.843 -19.517 -37.917  0.00  0.00    +0.134 A 
ATOM      2  C   UNL A   1      42.899 -19.932 -38.875  0.00  0.00    -0.017 A 
ATOM      3  C   UNL A   1      41.629 -20.350 -38.469  0.00  0.00    -0.037 A 
ATOM      4  C   UNL A   1      41.355 -20.384 -37.115  0.00  0.00    +0.032 A 
ATOM      5  C   UNL A   1      42.325 -19.964 -36.175  0.00  0.00    -0.017 A 
ATOM      6  C   UNL A   1      43.580 -19.532 -36.550  0.00  0.00    -0.014 A 
ATOM      7  C   UNL A   1      41.654 -20.048 -34.838  0.00  0.00    +0.002 C 
ATOM      8  C   UNL A   1      40.924 -18.697 -34.600  0.00  0.00    -0.055 C 
ATOM      9  C   UNL A   1      42.368 -20.507 -33.597  0.00  0.00    -0.054 C 
ATOM     10  C   UNL A   1      41.189 -21.011 -32.774  0.00  0.00    -0.048 C 
ATOM     11  N   UNL A   1      40.106 -21.479 -33.766  0.00  0.00    +0.433 N 
ATOM     12  C   UNL A   1      39.742 -22.903 -33.407  0.00  0.00    -0.060 C 
ATOM     13  O   UNL A   1      38.963 -20.732 -33.653  0.00  0.00    -0.289 OA
ATOM     14  C   UNL A   1      40.810 -21.395 -35.184  0.00  0.00    +0.039 C 
ATOM     15  N   UNL A   1      40.174 -20.784 -36.440  0.00  0.00    -0.341 N 
ATOM     16  C   UNL A   1      39.130 -21.476 -37.174  0.00  0.00    -0.001 C 
ENDROOT
BRANCH   1  17
ATOM     17  O   UNL A   1      45.130 -19.105 -38.330  0.00  0.00    -0.411 OA
BRANCH  17  19
ATOM     18  N   UNL A   1      45.686 -21.013 -39.567  0.00  0.00    -0.251 N 
ATOM     19  C   UNL A   1      45.780 -19.640 -39.461  0.00  0.00    +0.410 C 
ATOM     20  O   UNL A   1      46.364 -18.877 -40.218  0.00  0.00    -0.226 OA
ATOM     21  H   UNL A   1      45.121 -21.460 -38.897  0.00  0.00    +0.000 HD
BRANCH  18  27
ATOM     22  C   UNL A   1      45.841 -22.123 -41.827  0.00  0.00    -0.026 A 
ATOM     23  C   UNL A   1      46.670 -22.889 -42.675  0.00  0.00    -0.057 A 
ATOM     24  C   UNL A   1      47.863 -23.455 -42.224  0.00  0.00    -0.061 A 
ATOM     25  C   UNL A   1      48.257 -23.269 -40.909  0.00  0.00    -0.060 A 
ATOM     26  C   UNL A   1      47.479 -22.479 -40.065  0.00  0.00    -0.040 A 
ATOM     27  C   UNL A   1      46.302 -21.855 -40.521  0.00  0.00    +0.040 A 
BRANCH  22  29
ATOM     28  C   UNL A   1      44.404 -20.231 -42.833  0.00  0.00    -0.061 C 
ATOM     29  C   UNL A   1      44.488 -21.678 -42.346  0.00  0.00    -0.029 C 
ENDBRANCH  22  29
ENDBRANCH  18  27
ENDBRANCH  17  19
ENDBRANCH   1  17
TORSDOF 4
ENDMDL
MODEL 7
REMARK VINA RESULT:    -7.845     16.904     19.010
REMARK INTER + INTRA:          -9.867
REMARK INTER:                  -9.229
REMARK INTRA:                  -0.639
REMARK UNBOUND:                -0.188
REMARK  Name = cpd259.pdb
REMARK  8 active torsions:
REMARK  status: ('A' for Active; 'I' for Inactive)
REMARK    1  A    between atoms: C_1  and  C_2
REMARK    2  A    between atoms: C_2  and  C_3
REMARK    3  A    between atoms: C_8  and  N_9
REMARK    4  A    between atoms: C_10  and  O_12
REMARK    5  A    between atoms: O_12  and  C_13
REMARK    6  A    between atoms: C_19  and  C_20
REMARK    7  A    between atoms: N_23  and  C_24
REMARK    8  A    between atoms: N_27  and  C_28
REMARK                            x       y       z     vdW  Elec       q    Type
REMARK                         _______ _______ _______ _____ _____    ______ ____
ROOT
ATOM      1  C   UNL A   1      45.299 -19.338 -37.397  0.00  0.00    +0.134 A 
ATOM      2  C   UNL A   1      45.592 -19.392 -36.021  0.00  0.00    -0.017 A 
ATOM      3  C   UNL A   1      44.615 -19.813 -35.115  0.00  0.00    -0.037 A 
ATOM      4  C   UNL A   1      43.361 -20.125 -35.606  0.00  0.00    +0.032 A 
ATOM      5  C   UNL A   1      43.095 -20.058 -36.993  0.00  0.00    -0.017 A 
ATOM      6  C   UNL A   1      44.046 -19.660 -37.909  0.00  0.00    -0.014 A 
ATOM      7  C   UNL A   1      41.689 -20.548 -37.158  0.00  0.00    +0.002 C 
ATOM      8  C   UNL A   1      41.750 -22.093 -37.304  0.00  0.00    -0.055 C 
ATOM      9  C   UNL A   1      40.729 -19.945 -38.146  0.00  0.00    -0.054 C 
ATOM     10  C   UNL A   1      39.401 -20.303 -37.490  0.00  0.00    -0.048 C 
ATOM     11  N   UNL A   1      39.650 -20.386 -35.970  0.00  0.00    +0.433 N 
ATOM     12  C   UNL A   1      38.652 -19.473 -35.293  0.00  0.00    -0.060 C 
ATOM     13  O   UNL A   1      39.426 -21.650 -35.492  0.00  0.00    -0.289 OA
ATOM     14  C   UNL A   1      41.137 -19.867 -35.787  0.00  0.00    +0.039 C 
ATOM     15  N   UNL A   1      42.198 -20.549 -34.913  0.00  0.00    -0.341 N 
ATOM     16  C   UNL A   1      42.156 -20.462 -33.465  0.00  0.00    -0.001 C 
ENDROOT
BRANCH   1  17
ATOM     17  O   UNL A   1      46.286 -18.902 -38.309  0.00  0.00    -0.411 OA
BRANCH  17  19
ATOM     18  N   UNL A   1      46.448 -20.921 -39.482  0.00  0.00    -0.251 N 
ATOM     19  C   UNL A   1      46.531 -19.544 -39.540  0.00  0.00    +0.410 C 
ATOM     20  O   UNL A   1      46.800 -18.859 -40.517  0.00  0.00    -0.226 OA
ATOM     21  H   UNL A   1      46.157 -21.300 -38.622  0.00  0.00    +0.000 HD
BRANCH  18  27
ATOM     22  C   UNL A   1      45.943 -22.104 -41.653  0.00  0.00    -0.026 A 
ATOM     23  C   UNL A   1      46.463 -22.980 -42.630  0.00  0.00    -0.057 A 
ATOM     24  C   UNL A   1      47.667 -23.661 -42.444  0.00  0.00    -0.061 A 
ATOM     25  C   UNL A   1      48.382 -23.482 -41.270  0.00  0.00    -0.060 A 
ATOM     26  C   UNL A   1      47.913 -22.588 -40.311  0.00  0.00    -0.040 A 
ATOM     27  C   UNL A   1      46.728 -21.852 -40.508  0.00  0.00    +0.040 A 
BRANCH  22  29
ATOM     28  C   UNL A   1      44.476 -20.292 -42.756  0.00  0.00    -0.061 C 
ATOM     29  C   UNL A   1      44.556 -21.528 -41.860  0.00  0.00    -0.029 C 
ENDBRANCH  22  29
ENDBRANCH  18  27
ENDBRANCH  17  19
ENDBRANCH   1  17
TORSDOF 4
ENDMDL
MODEL 8
REMARK VINA RESULT:    -7.817     16.684     19.325
REMARK INTER + INTRA:          -9.834
REMARK INTER:                  -8.750
REMARK INTRA:                  -1.084
REMARK UNBOUND:                -0.188
REMARK  Name = cpd259.pdb
REMARK  8 active torsions:
REMARK  status: ('A' for Active; 'I' for Inactive)
REMARK    1  A    between atoms: C_1  and  C_2
REMARK    2  A    between atoms: C_2  and  C_3
REMARK    3  A    between atoms: C_8  and  N_9
REMARK    4  A    between atoms: C_10  and  O_12
REMARK    5  A    between atoms: O_12  and  C_13
REMARK    6  A    between atoms: C_19  and  C_20
REMARK    7  A    between atoms: N_23  and  C_24
REMARK    8  A    between atoms: N_27  and  C_28
REMARK                            x       y       z     vdW  Elec       q    Type
REMARK                         _______ _______ _______ _____ _____    ______ ____
ROOT
ATOM      1  C   UNL A   1      41.424 -22.098 -39.073  0.00  0.00    +0.134 A 
ATOM      2  C   UNL A   1      41.230 -22.199 -40.463  0.00  0.00    -0.017 A 
ATOM      3  C   UNL A   1      42.173 -21.657 -41.341  0.00  0.00    -0.037 A 
ATOM      4  C   UNL A   1      43.258 -20.991 -40.803  0.00  0.00    +0.032 A 
ATOM      5  C   UNL A   1      43.424 -20.903 -39.402  0.00  0.00    -0.017 A 
ATOM      6  C   UNL A   1      42.517 -21.443 -38.514  0.00  0.00    -0.014 A 
ATOM      7  C   UNL A   1      44.734 -20.207 -39.194  0.00  0.00    +0.002 C 
ATOM      8  C   UNL A   1      45.843 -21.295 -39.198  0.00  0.00    -0.055 C 
ATOM      9  C   UNL A   1      44.958 -19.206 -38.095  0.00  0.00    -0.054 C 
ATOM     10  C   UNL A   1      46.096 -18.389 -38.696  0.00  0.00    -0.048 C 
ATOM     11  N   UNL A   1      45.949 -18.461 -40.229  0.00  0.00    +0.433 N 
ATOM     12  C   UNL A   1      45.922 -17.042 -40.753  0.00  0.00    -0.060 C 
ATOM     13  O   UNL A   1      47.024 -19.082 -40.809  0.00  0.00    -0.289 OA
ATOM     14  C   UNL A   1      44.562 -19.195 -40.457  0.00  0.00    +0.039 C 
ATOM     15  N   UNL A   1      44.333 -20.336 -41.457  0.00  0.00    -0.341 N 
ATOM     16  C   UNL A   1      44.257 -20.088 -42.885  0.00  0.00    -0.001 C 
ENDROOT
BRANCH   1  17
ATOM     17  O   UNL A   1      40.463 -22.638 -38.189  0.00  0.00    -0.411 OA
BRANCH  17  19
ATOM     18  N   UNL A   1      39.853 -21.378 -36.313  0.00  0.00    -0.251 N 
ATOM     19  C   UNL A   1      40.534 -22.479 -36.789  0.00  0.00    +0.410 C 
ATOM     20  O   UNL A   1      41.179 -23.290 -36.138  0.00  0.00    -0.226 OA
ATOM     21  H   UNL A   1      39.335 -20.869 -36.978  0.00  0.00    +0.000 HD
BRANCH  18  27
ATOM     22  C   UNL A   1      40.675 -19.938 -34.411  0.00  0.00    -0.026 A 
ATOM     23  C   UNL A   1      40.384 -19.482 -33.107  0.00  0.00    -0.057 A 
ATOM     24  C   UNL A   1      39.334 -20.016 -32.358  0.00  0.00    -0.061 A 
ATOM     25  C   UNL A   1      38.549 -21.023 -32.896  0.00  0.00    -0.060 A 
ATOM     26  C   UNL A   1      38.788 -21.457 -34.198  0.00  0.00    -0.040 A 
ATOM     27  C   UNL A   1      39.808 -20.890 -34.987  0.00  0.00    +0.040 A 
BRANCH  22  29
ATOM     28  C   UNL A   1      43.153 -20.332 -35.012  0.00  0.00    -0.061 C 
ATOM     29  C   UNL A   1      41.926 -19.423 -35.096  0.00  0.00    -0.029 C 
ENDBRANCH  22  29
ENDBRANCH  18  27
ENDBRANCH  17  19
ENDBRANCH   1  17
TORSDOF 4
ENDMDL
MODEL 9
REMARK VINA RESULT:    -7.729      2.906      5.631
REMARK INTER + INTRA:          -9.724
REMARK INTER:                  -9.696
REMARK INTRA:                  -0.028
REMARK UNBOUND:                -0.188
REMARK  Name = cpd259.pdb
REMARK  8 active torsions:
REMARK  status: ('A' for Active; 'I' for Inactive)
REMARK    1  A    between atoms: C_1  and  C_2
REMARK    2  A    between atoms: C_2  and  C_3
REMARK    3  A    between atoms: C_8  and  N_9
REMARK    4  A    between atoms: C_10  and  O_12
REMARK    5  A    between atoms: O_12  and  C_13
REMARK    6  A    between atoms: C_19  and  C_20
REMARK    7  A    between atoms: N_23  and  C_24
REMARK    8  A    between atoms: N_27  and  C_28
REMARK                            x       y       z     vdW  Elec       q    Type
REMARK                         _______ _______ _______ _____ _____    ______ ____
ROOT
ATOM      1  C   UNL A   1      33.354 -33.003 -31.445  0.00  0.00    +0.134 A 
ATOM      2  C   UNL A   1      33.492 -31.762 -30.796  0.00  0.00    -0.017 A 
ATOM      3  C   UNL A   1      32.357 -31.057 -30.386  0.00  0.00    -0.037 A 
ATOM      4  C   UNL A   1      31.117 -31.592 -30.677  0.00  0.00    +0.032 A 
ATOM      5  C   UNL A   1      31.009 -32.840 -31.334  0.00  0.00    -0.017 A 
ATOM      6  C   UNL A   1      32.113 -33.562 -31.735  0.00  0.00    -0.014 A 
ATOM      7  C   UNL A   1      29.542 -33.138 -31.394  0.00  0.00    +0.002 C 
ATOM      8  C   UNL A   1      29.162 -33.865 -30.075  0.00  0.00    -0.055 C 
ATOM      9  C   UNL A   1      28.893 -33.791 -32.583  0.00  0.00    -0.054 C 
ATOM     10  C   UNL A   1      27.465 -33.282 -32.429  0.00  0.00    -0.048 C 
ATOM     11  N   UNL A   1      27.541 -31.918 -31.714  0.00  0.00    +0.433 N 
ATOM     12  C   UNL A   1      26.796 -30.914 -32.566  0.00  0.00    -0.060 C 
ATOM     13  O   UNL A   1      26.914 -31.954 -30.496  0.00  0.00    -0.289 OA
ATOM     14  C   UNL A   1      29.091 -31.595 -31.648  0.00  0.00    +0.039 C 
ATOM     15  N   UNL A   1      29.823 -31.080 -30.402  0.00  0.00    -0.341 N 
ATOM     16  C   UNL A   1      29.678 -29.708 -29.951  0.00  0.00    -0.001 C 
ENDROOT
BRANCH   1  17
ATOM     17  O   UNL A   1      34.503 -33.708 -31.867  0.00  0.00    -0.411 OA
BRANCH  17  19
ATOM     18  N   UNL A   1      36.382 -35.076 -31.590  0.00  0.00    -0.251 N 
ATOM     19  C   UNL A   1      35.362 -34.380 -30.974  0.00  0.00    +0.410 C 
ATOM     20  O   UNL A   1      35.135 -34.307 -29.774  0.00  0.00    -0.226 OA
ATOM     21  H   UNL A   1      36.448 -34.971 -32.566  0.00  0.00    +0.000 HD
BRANCH  18  27
ATOM     22  C   UNL A   1      38.715 -35.997 -31.313  0.00  0.00    -0.026 A 
ATOM     23  C   UNL A   1      39.539 -36.811 -30.507  0.00  0.00    -0.057 A 
ATOM     24  C   UNL A   1      39.018 -37.600 -29.481  0.00  0.00    -0.061 A 
ATOM     25  C   UNL A   1      37.654 -37.595 -29.236  0.00  0.00    -0.060 A 
ATOM     26  C   UNL A   1      36.825 -36.765 -29.989  0.00  0.00    -0.040 A 
ATOM     27  C   UNL A   1      37.344 -35.921 -30.990  0.00  0.00    +0.040 A 
BRANCH  22  29
ATOM     28  C   UNL A   1      40.481 -36.036 -33.192  0.00  0.00    -0.061 C 
ATOM     29  C   UNL A   1      39.334 -35.295 -32.506  0.00  0.00    -0.029 C 
ENDBRANCH  22  29
ENDBRANCH  18  27
ENDBRANCH  17  19
ENDBRANCH   1  17
TORSDOF 4
ENDMDL
MODEL 10
REMARK VINA RESULT:    -7.702     18.509     20.664
REMARK INTER + INTRA:          -9.691
REMARK INTER:                  -8.911
REMARK INTRA:                  -0.780
REMARK UNBOUND:                -0.188
REMARK  Name = cpd259.pdb
REMARK  8 active torsions:
REMARK  status: ('A' for Active; 'I' for Inactive)
REMARK    1  A    between atoms: C_1  and  C_2
REMARK    2  A    between atoms: C_2  and  C_3
REMARK    3  A    between atoms: C_8  and  N_9
REMARK    4  A    between atoms: C_10  and  O_12
REMARK    5  A    between atoms: O_12  and  C_13
REMARK    6  A    between atoms: C_19  and  C_20
REMARK    7  A    between atoms: N_23  and  C_24
REMARK    8  A    between atoms: N_27  and  C_28
REMARK                            x       y       z     vdW  Elec       q    Type
REMARK                         _______ _______ _______ _____ _____    ______ ____
ROOT
ATOM      1  C   UNL A   1      45.741 -17.963 -38.492  0.00  0.00    +0.134 A 
ATOM      2  C   UNL A   1      44.482 -17.974 -39.121  0.00  0.00    -0.017 A 
ATOM      3  C   UNL A   1      43.318 -17.847 -38.357  0.00  0.00    -0.037 A 
ATOM      4  C   UNL A   1      43.446 -17.759 -36.984  0.00  0.00    +0.032 A 
ATOM      5  C   UNL A   1      44.724 -17.754 -36.380  0.00  0.00    -0.017 A 
ATOM      6  C   UNL A   1      45.888 -17.862 -37.112  0.00  0.00    -0.014 A 
ATOM      7  C   UNL A   1      44.478 -17.553 -34.916  0.00  0.00    +0.002 C 
ATOM      8  C   UNL A   1      44.417 -16.022 -34.662  0.00  0.00    -0.055 C 
ATOM      9  C   UNL A   1      45.281 -18.250 -33.853  0.00  0.00    -0.054 C 
ATOM     10  C   UNL A   1      44.282 -18.235 -32.702  0.00  0.00    -0.048 C 
ATOM     11  N   UNL A   1      42.871 -18.239 -33.322  0.00  0.00    +0.433 N 
ATOM     12  C   UNL A   1      42.109 -19.396 -32.715  0.00  0.00    -0.060 C 
ATOM     13  O   UNL A   1      42.181 -17.097 -33.010  0.00  0.00    -0.289 OA
ATOM     14  C   UNL A   1      43.123 -18.454 -34.872  0.00  0.00    +0.039 C 
ATOM     15  N   UNL A   1      42.443 -17.649 -35.987  0.00  0.00    -0.341 N 
ATOM     16  C   UNL A   1      41.053 -17.872 -36.342  0.00  0.00    -0.001 C 
ENDROOT
BRANCH   1  17
ATOM     17  O   UNL A   1      46.915 -18.102 -39.266  0.00  0.00    -0.411 OA
BRANCH  17  19
ATOM     18  N   UNL A   1      46.832 -20.324 -39.999  0.00  0.00    -0.251 N 
ATOM     19  C   UNL A   1      47.019 -19.001 -40.347  0.00  0.00    +0.410 C 
ATOM     20  O   UNL A   1      47.270 -18.557 -41.459  0.00  0.00    -0.226 OA
ATOM     21  H   UNL A   1      46.575 -20.492 -39.064  0.00  0.00    +0.000 HD
BRANCH  18  27
ATOM     22  C   UNL A   1      46.027 -21.935 -41.765  0.00  0.00    -0.026 A 
ATOM     23  C   UNL A   1      46.402 -23.021 -42.585  0.00  0.00    -0.057 A 
ATOM     24  C   UNL A   1      47.617 -23.687 -42.415  0.00  0.00    -0.061 A 
ATOM     25  C   UNL A   1      48.489 -23.281 -41.416  0.00  0.00    -0.060 A 
ATOM     26  C   UNL A   1      48.161 -22.182 -40.625  0.00  0.00    -0.040 A 
ATOM     27  C   UNL A   1      46.964 -21.466 -40.821  0.00  0.00    +0.040 A 
BRANCH  22  29
ATOM     28  C   UNL A   1      44.485 -20.175 -42.851  0.00  0.00    -0.061 C 
ATOM     29  C   UNL A   1      44.627 -21.370 -41.908  0.00  0.00    -0.029 C 
ENDBRANCH  22  29
ENDBRANCH  18  27
ENDBRANCH  17  19
ENDBRANCH   1  17
TORSDOF 4
ENDMDL
MODEL 11
REMARK VINA RESULT:    -7.674     25.300     27.673
REMARK INTER + INTRA:          -9.656
REMARK INTER:                  -8.906
REMARK INTRA:                  -0.750
REMARK UNBOUND:                -0.188
REMARK  Name = cpd259.pdb
REMARK  8 active torsions:
REMARK  status: ('A' for Active; 'I' for Inactive)
REMARK    1  A    between atoms: C_1  and  C_2
REMARK    2  A    between atoms: C_2  and  C_3
REMARK    3  A    between atoms: C_8  and  N_9
REMARK    4  A    between atoms: C_10  and  O_12
REMARK    5  A    between atoms: O_12  and  C_13
REMARK    6  A    between atoms: C_19  and  C_20
REMARK    7  A    between atoms: N_23  and  C_24
REMARK    8  A    between atoms: N_27  and  C_28
REMARK                            x       y       z     vdW  Elec       q    Type
REMARK                         _______ _______ _______ _____ _____    ______ ____
ROOT
ATOM      1  C   UNL A   1      47.179 -31.385 -53.247  0.00  0.00    +0.134 A 
ATOM      2  C   UNL A   1      47.181 -30.074 -52.736  0.00  0.00    -0.017 A 
ATOM      3  C   UNL A   1      47.309 -28.986 -53.604  0.00  0.00    -0.037 A 
ATOM      4  C   UNL A   1      47.477 -29.243 -54.952  0.00  0.00    +0.032 A 
ATOM      5  C   UNL A   1      47.475 -30.571 -55.436  0.00  0.00    -0.017 A 
ATOM      6  C   UNL A   1      47.335 -31.662 -54.602  0.00  0.00    -0.014 A 
ATOM      7  C   UNL A   1      47.584 -30.458 -56.925  0.00  0.00    +0.002 C 
ATOM      8  C   UNL A   1      46.143 -30.314 -57.487  0.00  0.00    -0.055 C 
ATOM      9  C   UNL A   1      48.399 -31.410 -57.756  0.00  0.00    -0.054 C 
ATOM     10  C   UNL A   1      48.697 -30.533 -58.965  0.00  0.00    -0.048 C 
ATOM     11  N   UNL A   1      48.707 -29.070 -58.477  0.00  0.00    +0.433 N 
ATOM     12  C   UNL A   1      50.023 -28.457 -58.900  0.00  0.00    -0.060 C 
ATOM     13  O   UNL A   1      47.713 -28.336 -59.069  0.00  0.00    -0.289 OA
ATOM     14  C   UNL A   1      48.594 -29.182 -56.899  0.00  0.00    +0.039 C 
ATOM     15  N   UNL A   1      47.652 -28.339 -56.030  0.00  0.00    -0.341 N 
ATOM     16  C   UNL A   1      47.926 -26.940 -55.754  0.00  0.00    -0.001 C 
ENDROOT
BRANCH   1  17
ATOM     17  O   UNL A   1      47.060 -32.483 -52.366  0.00  0.00    -0.411 OA
BRANCH  17  19
ATOM     18  N   UNL A   1      45.880 -34.299 -53.256  0.00  0.00    -0.251 N 
ATOM     19  C   UNL A   1      47.094 -33.824 -52.801  0.00  0.00    +0.410 C 
ATOM     20  O   UNL A   1      48.150 -34.438 -52.731  0.00  0.00    -0.226 OA
ATOM     21  H   UNL A   1      45.149 -33.642 -53.299  0.00  0.00    +0.000 HD
BRANCH  18  27
ATOM     22  C   UNL A   1      45.476 -36.081 -54.995  0.00  0.00    -0.026 A 
ATOM     23  C   UNL A   1      45.273 -37.463 -55.196  0.00  0.00    -0.057 A 
ATOM     24  C   UNL A   1      45.061 -38.340 -54.131  0.00  0.00    -0.061 A 
ATOM     25  C   UNL A   1      45.046 -37.852 -52.833  0.00  0.00    -0.060 A 
ATOM     26  C   UNL A   1      45.290 -36.499 -52.606  0.00  0.00    -0.040 A 
ATOM     27  C   UNL A   1      45.560 -35.613 -53.667  0.00  0.00    +0.040 A 
BRANCH  22  29
ATOM     28  C   UNL A   1      44.407 -34.155 -56.337  0.00  0.00    -0.061 C 
ATOM     29  C   UNL A   1      45.539 -35.174 -56.208  0.00  0.00    -0.029 C 
ENDBRANCH  22  29
ENDBRANCH  18  27
ENDBRANCH  17  19
ENDBRANCH   1  17
TORSDOF 4
ENDMDL
MODEL 12
REMARK VINA RESULT:    -7.648      3.626      5.103
REMARK INTER + INTRA:          -9.624
REMARK INTER:                  -8.668
REMARK INTRA:                  -0.956
REMARK UNBOUND:                -0.188
REMARK  Name = cpd259.pdb
REMARK  8 active torsions:
REMARK  status: ('A' for Active; 'I' for Inactive)
REMARK    1  A    between atoms: C_1  and  C_2
REMARK    2  A    between atoms: C_2  and  C_3
REMARK    3  A    between atoms: C_8  and  N_9
REMARK    4  A    between atoms: C_10  and  O_12
REMARK    5  A    between atoms: O_12  and  C_13
REMARK    6  A    between atoms: C_19  and  C_20
REMARK    7  A    between atoms: N_23  and  C_24
REMARK    8  A    between atoms: N_27  and  C_28
REMARK                            x       y       z     vdW  Elec       q    Type
REMARK                         _______ _______ _______ _____ _____    ______ ____
ROOT
ATOM      1  C   UNL A   1      33.342 -35.978 -30.525  0.00  0.00    +0.134 A 
ATOM      2  C   UNL A   1      32.040 -36.384 -30.872  0.00  0.00    -0.017 A 
ATOM      3  C   UNL A   1      31.205 -36.956 -29.908  0.00  0.00    -0.037 A 
ATOM      4  C   UNL A   1      31.713 -37.147 -28.637  0.00  0.00    +0.032 A 
ATOM      5  C   UNL A   1      33.026 -36.733 -28.318  0.00  0.00    -0.017 A 
ATOM      6  C   UNL A   1      33.864 -36.152 -29.247  0.00  0.00    -0.014 A 
ATOM      7  C   UNL A   1      33.192 -37.009 -26.855  0.00  0.00    +0.002 C 
ATOM      8  C   UNL A   1      32.675 -35.762 -26.086  0.00  0.00    -0.055 C 
ATOM      9  C   UNL A   1      34.477 -37.519 -26.264  0.00  0.00    -0.054 C 
ATOM     10  C   UNL A   1      33.948 -38.209 -25.012  0.00  0.00    -0.048 C 
ATOM     11  N   UNL A   1      32.512 -38.676 -25.321  0.00  0.00    +0.433 N 
ATOM     12  C   UNL A   1      32.438 -40.156 -25.016  0.00  0.00    -0.060 C 
ATOM     13  O   UNL A   1      31.596 -38.054 -24.515  0.00  0.00    -0.289 OA
ATOM     14  C   UNL A   1      32.330 -38.389 -26.870  0.00  0.00    +0.039 C 
ATOM     15  N   UNL A   1      31.098 -37.720 -27.494  0.00  0.00    -0.341 N 
ATOM     16  C   UNL A   1      29.841 -38.431 -27.639  0.00  0.00    -0.001 C 
ENDROOT
BRANCH   1  17
ATOM     17  O   UNL A   1      34.186 -35.410 -31.504  0.00  0.00    -0.411 OA
BRANCH  17  19
ATOM     18  N   UNL A   1      36.359 -36.281 -31.515  0.00  0.00    -0.251 N 
ATOM     19  C   UNL A   1      35.560 -35.177 -31.291  0.00  0.00    +0.410 C 
ATOM     20  O   UNL A   1      35.919 -34.066 -30.927  0.00  0.00    -0.226 OA
ATOM     21  H   UNL A   1      35.904 -37.079 -31.867  0.00  0.00    +0.000 HD
BRANCH  18  27
ATOM     22  C   UNL A   1      38.381 -36.950 -30.164  0.00  0.00    -0.026 A 
ATOM     23  C   UNL A   1      39.784 -37.106 -30.197  0.00  0.00    -0.057 A 
ATOM     24  C   UNL A   1      40.551 -36.649 -31.271  0.00  0.00    -0.061 A 
ATOM     25  C   UNL A   1      39.931 -36.023 -32.340  0.00  0.00    -0.060 A 
ATOM     26  C   UNL A   1      38.543 -35.898 -32.351  0.00  0.00    -0.040 A 
ATOM     27  C   UNL A   1      37.751 -36.404 -31.301  0.00  0.00    +0.040 A 
BRANCH  22  29
ATOM     28  C   UNL A   1      37.300 -38.809 -28.739  0.00  0.00    -0.061 C 
ATOM     29  C   UNL A   1      37.641 -37.327 -28.896  0.00  0.00    -0.029 C 
ENDBRANCH  22  29
ENDBRANCH  18  27
ENDBRANCH  17  19
ENDBRANCH   1  17
TORSDOF 4
ENDMDL
MODEL 13
REMARK VINA RESULT:    -7.542     16.274     19.371
REMARK INTER + INTRA:          -9.493
REMARK INTER:                  -8.747
REMARK INTRA:                  -0.746
REMARK UNBOUND:                -0.188
REMARK  Name = cpd259.pdb
REMARK  8 active torsions:
REMARK  status: ('A' for Active; 'I' for Inactive)
REMARK    1  A    between atoms: C_1  and  C_2
REMARK    2  A    between atoms: C_2  and  C_3
REMARK    3  A    between atoms: C_8  and  N_9
REMARK    4  A    between atoms: C_10  and  O_12
REMARK    5  A    between atoms: O_12  and  C_13
REMARK    6  A    between atoms: C_19  and  C_20
REMARK    7  A    between atoms: N_23  and  C_24
REMARK    8  A    between atoms: N_27  and  C_28
REMARK                            x       y       z     vdW  Elec       q    Type
REMARK                         _______ _______ _______ _____ _____    ______ ____
ROOT
ATOM      1  C   UNL A   1      42.108 -21.032 -38.416  0.00  0.00    +0.134 A 
ATOM      2  C   UNL A   1      42.855 -20.413 -37.397  0.00  0.00    -0.017 A 
ATOM      3  C   UNL A   1      44.203 -20.107 -37.606  0.00  0.00    -0.037 A 
ATOM      4  C   UNL A   1      44.775 -20.471 -38.810  0.00  0.00    +0.032 A 
ATOM      5  C   UNL A   1      43.999 -21.095 -39.814  0.00  0.00    -0.017 A 
ATOM      6  C   UNL A   1      42.664 -21.393 -39.639  0.00  0.00    -0.014 A 
ATOM      7  C   UNL A   1      44.914 -21.252 -40.991  0.00  0.00    +0.002 C 
ATOM      8  C   UNL A   1      44.828 -19.942 -41.822  0.00  0.00    -0.055 C 
ATOM      9  C   UNL A   1      44.893 -22.464 -41.880  0.00  0.00    -0.054 C 
ATOM     10  C   UNL A   1      46.317 -22.428 -42.423  0.00  0.00    -0.048 C 
ATOM     11  N   UNL A   1      47.197 -21.752 -41.353  0.00  0.00    +0.433 N 
ATOM     12  C   UNL A   1      48.348 -22.685 -41.051  0.00  0.00    -0.060 C 
ATOM     13  O   UNL A   1      47.740 -20.582 -41.815  0.00  0.00    -0.289 OA
ATOM     14  C   UNL A   1      46.236 -21.585 -40.103  0.00  0.00    +0.039 C 
ATOM     15  N   UNL A   1      46.108 -20.305 -39.266  0.00  0.00    -0.341 N 
ATOM     16  C   UNL A   1      47.141 -19.907 -38.327  0.00  0.00    -0.001 C 
ENDROOT
BRANCH   1  17
ATOM     17  O   UNL A   1      40.748 -21.349 -38.197  0.00  0.00    -0.411 OA
BRANCH  17  19
ATOM     18  N   UNL A   1      39.809 -20.789 -36.127  0.00  0.00    -0.251 N 
ATOM     19  C   UNL A   1      40.256 -21.799 -36.955  0.00  0.00    +0.410 C 
ATOM     20  O   UNL A   1      40.276 -22.998 -36.715  0.00  0.00    -0.226 OA
ATOM     21  H   UNL A   1      39.810 -19.883 -36.512  0.00  0.00    +0.000 HD
BRANCH  18  27
ATOM     22  C   UNL A   1      40.142 -20.871 -33.628  0.00  0.00    -0.026 A 
ATOM     23  C   UNL A   1      39.480 -20.860 -32.381  0.00  0.00    -0.057 A 
ATOM     24  C   UNL A   1      38.093 -20.969 -32.282  0.00  0.00    -0.061 A 
ATOM     25  C   UNL A   1      37.330 -21.095 -33.432  0.00  0.00    -0.060 A 
ATOM     26  C   UNL A   1      37.956 -21.063 -34.677  0.00  0.00    -0.040 A 
ATOM     27  C   UNL A   1      39.349 -20.897 -34.795  0.00  0.00    +0.040 A 
BRANCH  22  29
ATOM     28  C   UNL A   1      42.356 -19.551 -33.723  0.00  0.00    -0.061 C 
ATOM     29  C   UNL A   1      41.657 -20.908 -33.644  0.00  0.00    -0.029 C 
ENDBRANCH  22  29
ENDBRANCH  18  27
ENDBRANCH  17  19
ENDBRANCH   1  17
TORSDOF 4
ENDMDL
MODEL 14
REMARK VINA RESULT:    -7.260     18.178     19.808
REMARK INTER + INTRA:          -9.146
REMARK INTER:                  -8.531
REMARK INTRA:                  -0.614
REMARK UNBOUND:                -0.188
REMARK  Name = cpd259.pdb
REMARK  8 active torsions:
REMARK  status: ('A' for Active; 'I' for Inactive)
REMARK    1  A    between atoms: C_1  and  C_2
REMARK    2  A    between atoms: C_2  and  C_3
REMARK    3  A    between atoms: C_8  and  N_9
REMARK    4  A    between atoms: C_10  and  O_12
REMARK    5  A    between atoms: O_12  and  C_13
REMARK    6  A    between atoms: C_19  and  C_20
REMARK    7  A    between atoms: N_23  and  C_24
REMARK    8  A    between atoms: N_27  and  C_28
REMARK                            x       y       z     vdW  Elec       q    Type
REMARK                         _______ _______ _______ _____ _____    ______ ____
ROOT
ATOM      1  C   UNL A   1      45.662 -19.433 -35.724  0.00  0.00    +0.134 A 
ATOM      2  C   UNL A   1      46.280 -18.278 -35.208  0.00  0.00    -0.017 A 
ATOM      3  C   UNL A   1      45.572 -17.431 -34.350  0.00  0.00    -0.037 A 
ATOM      4  C   UNL A   1      44.255 -17.739 -34.070  0.00  0.00    +0.032 A 
ATOM      5  C   UNL A   1      43.660 -18.905 -34.605  0.00  0.00    -0.017 A 
ATOM      6  C   UNL A   1      44.341 -19.765 -35.442  0.00  0.00    -0.014 A 
ATOM      7  C   UNL A   1      42.282 -18.960 -34.020  0.00  0.00    +0.002 C 
ATOM      8  C   UNL A   1      42.384 -19.708 -32.662  0.00  0.00    -0.055 C 
ATOM      9  C   UNL A   1      41.083 -19.416 -34.804  0.00  0.00    -0.054 C 
ATOM     10  C   UNL A   1      39.972 -18.698 -34.048  0.00  0.00    -0.048 C 
ATOM     11  N   UNL A   1      40.583 -17.417 -33.446  0.00  0.00    +0.433 N 
ATOM     12  C   UNL A   1      39.733 -16.250 -33.897  0.00  0.00    -0.060 C 
ATOM     13  O   UNL A   1      40.545 -17.437 -32.077  0.00  0.00    -0.289 OA
ATOM     14  C   UNL A   1      42.042 -17.351 -34.063  0.00  0.00    +0.039 C 
ATOM     15  N   UNL A   1      43.316 -17.048 -33.263  0.00  0.00    -0.341 N 
ATOM     16  C   UNL A   1      43.619 -15.705 -32.802  0.00  0.00    -0.001 C 
ENDROOT
BRANCH   1  17
ATOM     17  O   UNL A   1      46.377 -20.281 -36.599  0.00  0.00    -0.411 OA
BRANCH  17  19
ATOM     18  N   UNL A   1      45.611 -21.065 -38.667  0.00  0.00    -0.251 N 
ATOM     19  C   UNL A   1      46.366 -20.122 -38.000  0.00  0.00    +0.410 C 
ATOM     20  O   UNL A   1      47.012 -19.208 -38.493  0.00  0.00    -0.226 OA
ATOM     21  H   UNL A   1      45.106 -21.693 -38.102  0.00  0.00    +0.000 HD
BRANCH  18  27
ATOM     22  C   UNL A   1      46.253 -22.078 -40.887  0.00  0.00    -0.026 A 
ATOM     23  C   UNL A   1      45.873 -22.214 -42.239  0.00  0.00    -0.057 A 
ATOM     24  C   UNL A   1      44.823 -21.477 -42.787  0.00  0.00    -0.061 A 
ATOM     25  C   UNL A   1      44.126 -20.580 -41.993  0.00  0.00    -0.060 A 
ATOM     26  C   UNL A   1      44.453 -20.461 -40.644  0.00  0.00    -0.040 A 
ATOM     27  C   UNL A   1      45.473 -21.239 -40.063  0.00  0.00    +0.040 A 
BRANCH  22  29
ATOM     28  C   UNL A   1      48.465 -23.252 -41.504  0.00  0.00    -0.061 C 
ATOM     29  C   UNL A   1      47.502 -22.793 -40.410  0.00  0.00    -0.029 C 
ENDBRANCH  22  29
ENDBRANCH  18  27
ENDBRANCH  17  19
ENDBRANCH   1  17
TORSDOF 4
ENDMDL
MODEL 15
REMARK VINA RESULT:    -7.254     15.847     17.919
REMARK INTER + INTRA:          -9.138
REMARK INTER:                  -8.359
REMARK INTRA:                  -0.779
REMARK UNBOUND:                -0.188
REMARK  Name = cpd259.pdb
REMARK  8 active torsions:
REMARK  status: ('A' for Active; 'I' for Inactive)
REMARK    1  A    between atoms: C_1  and  C_2
REMARK    2  A    between atoms: C_2  and  C_3
REMARK    3  A    between atoms: C_8  and  N_9
REMARK    4  A    between atoms: C_10  and  O_12
REMARK    5  A    between atoms: O_12  and  C_13
REMARK    6  A    between atoms: C_19  and  C_20
REMARK    7  A    between atoms: N_23  and  C_24
REMARK    8  A    between atoms: N_27  and  C_28
REMARK                            x       y       z     vdW  Elec       q    Type
REMARK                         _______ _______ _______ _____ _____    ______ ____
ROOT
ATOM      1  C   UNL A   1      43.886 -19.744 -35.149  0.00  0.00    +0.134 A 
ATOM      2  C   UNL A   1      43.721 -18.584 -34.370  0.00  0.00    -0.017 A 
ATOM      3  C   UNL A   1      42.639 -18.480 -33.492  0.00  0.00    -0.037 A 
ATOM      4  C   UNL A   1      41.729 -19.518 -33.452  0.00  0.00    +0.032 A 
ATOM      5  C   UNL A   1      41.918 -20.671 -34.250  0.00  0.00    -0.017 A 
ATOM      6  C   UNL A   1      42.986 -20.805 -35.113  0.00  0.00    -0.014 A 
ATOM      7  C   UNL A   1      40.807 -21.605 -33.880  0.00  0.00    +0.002 C 
ATOM      8  C   UNL A   1      41.290 -22.440 -32.662  0.00  0.00    -0.055 C 
ATOM      9  C   UNL A   1      40.102 -22.469 -34.887  0.00  0.00    -0.054 C 
ATOM     10  C   UNL A   1      38.764 -22.670 -34.186  0.00  0.00    -0.048 C 
ATOM     11  N   UNL A   1      38.520 -21.430 -33.303  0.00  0.00    +0.433 N 
ATOM     12  C   UNL A   1      37.165 -20.867 -33.670  0.00  0.00    -0.060 C 
ATOM     13  O   UNL A   1      38.471 -21.761 -31.974  0.00  0.00    -0.289 OA
ATOM     14  C   UNL A   1      39.692 -20.435 -33.691  0.00  0.00    +0.039 C 
ATOM     15  N   UNL A   1      40.546 -19.657 -32.682  0.00  0.00    -0.341 N 
ATOM     16  C   UNL A   1      40.018 -18.507 -31.970  0.00  0.00    -0.001 C 
ENDROOT
BRANCH   1  17
ATOM     17  O   UNL A   1      44.975 -19.842 -36.044  0.00  0.00    -0.411 OA
BRANCH  17  19
ATOM     18  N   UNL A   1      44.778 -20.861 -38.142  0.00  0.00    -0.251 N 
ATOM     19  C   UNL A   1      44.841 -19.676 -37.437  0.00  0.00    +0.410 C 
ATOM     20  O   UNL A   1      44.808 -18.541 -37.893  0.00  0.00    -0.226 OA
ATOM     21  H   UNL A   1      44.757 -21.683 -37.602  0.00  0.00    +0.000 HD
BRANCH  18  27
ATOM     22  C   UNL A   1      43.598 -20.961 -40.369  0.00  0.00    -0.026 A 
ATOM     23  C   UNL A   1      43.787 -21.036 -41.766  0.00  0.00    -0.057 A 
ATOM     24  C   UNL A   1      45.042 -21.275 -42.328  0.00  0.00    -0.061 A 
ATOM     25  C   UNL A   1      46.142 -21.448 -41.503  0.00  0.00    -0.060 A 
ATOM     26  C   UNL A   1      45.988 -21.333 -40.123  0.00  0.00    -0.040 A 
ATOM     27  C   UNL A   1      44.739 -21.037 -39.544  0.00  0.00    +0.040 A 
BRANCH  22  29
ATOM     28  C   UNL A   1      41.468 -22.186 -39.585  0.00  0.00    -0.061 C 
ATOM     29  C   UNL A   1      42.183 -20.859 -39.835  0.00  0.00    -0.029 C 
ENDBRANCH  22  29
ENDBRANCH  18  27
ENDBRANCH  17  19
ENDBRANCH   1  17
TORSDOF 4
ENDMDL
MODEL 16
REMARK VINA RESULT:    -7.246     16.567     19.609
REMARK INTER + INTRA:          -9.128
REMARK INTER:                  -8.498
REMARK INTRA:                  -0.630
REMARK UNBOUND:                -0.188
REMARK  Name = cpd259.pdb
REMARK  8 active torsions:
REMARK  status: ('A' for Active; 'I' for Inactive)
REMARK    1  A    between atoms: C_1  and  C_2
REMARK    2  A    between atoms: C_2  and  C_3
REMARK    3  A    between atoms: C_8  and  N_9
REMARK    4  A    between atoms: C_10  and  O_12
REMARK    5  A    between atoms: O_12  and  C_13
REMARK    6  A    between atoms: C_19  and  C_20
REMARK    7  A    between atoms: N_23  and  C_24
REMARK    8  A    between atoms: N_27  and  C_28
REMARK                            x       y       z     vdW  Elec       q    Type
REMARK                         _______ _______ _______ _____ _____    ______ ____
ROOT
ATOM      1  C   UNL A   1      41.954 -19.163 -38.187  0.00  0.00    +0.134 A 
ATOM      2  C   UNL A   1      42.977 -18.893 -37.259  0.00  0.00    -0.017 A 
ATOM      3  C   UNL A   1      44.312 -19.127 -37.604  0.00  0.00    -0.037 A 
ATOM      4  C   UNL A   1      44.580 -19.665 -38.848  0.00  0.00    +0.032 A 
ATOM      5  C   UNL A   1      43.530 -19.929 -39.758  0.00  0.00    -0.017 A 
ATOM      6  C   UNL A   1      42.206 -19.693 -39.448  0.00  0.00    -0.014 A 
ATOM      7  C   UNL A   1      44.194 -20.409 -41.012  0.00  0.00    +0.002 C 
ATOM      8  C   UNL A   1      44.538 -19.156 -41.863  0.00  0.00    -0.055 C 
ATOM      9  C   UNL A   1      43.623 -21.507 -41.865  0.00  0.00    -0.054 C 
ATOM     10  C   UNL A   1      44.891 -22.014 -42.542  0.00  0.00    -0.048 C 
ATOM     11  N   UNL A   1      46.063 -21.743 -41.578  0.00  0.00    +0.433 N 
ATOM     12  C   UNL A   1      46.791 -23.052 -41.364  0.00  0.00    -0.060 C 
ATOM     13  O   UNL A   1      46.966 -20.865 -42.118  0.00  0.00    -0.289 OA
ATOM     14  C   UNL A   1      45.367 -21.237 -40.246  0.00  0.00    +0.039 C 
ATOM     15  N   UNL A   1      45.823 -20.018 -39.432  0.00  0.00    -0.341 N 
ATOM     16  C   UNL A   1      47.015 -20.062 -38.606  0.00  0.00    -0.001 C 
ENDROOT
BRANCH   1  17
ATOM     17  O   UNL A   1      40.605 -18.935 -37.832  0.00  0.00    -0.411 OA
BRANCH  17  19
ATOM     18  N   UNL A   1      39.924 -20.053 -35.891  0.00  0.00    -0.251 N 
ATOM     19  C   UNL A   1      39.785 -19.928 -37.258  0.00  0.00    +0.410 C 
ATOM     20  O   UNL A   1      39.056 -20.583 -37.990  0.00  0.00    -0.226 OA
ATOM     21  H   UNL A   1      40.514 -19.396 -35.455  0.00  0.00    +0.000 HD
BRANCH  18  27
ATOM     22  C   UNL A   1      38.154 -20.828 -34.269  0.00  0.00    -0.026 A 
ATOM     23  C   UNL A   1      37.637 -21.949 -33.584  0.00  0.00    -0.057 A 
ATOM     24  C   UNL A   1      38.299 -23.177 -33.575  0.00  0.00    -0.061 A 
ATOM     25  C   UNL A   1      39.500 -23.315 -34.253  0.00  0.00    -0.060 A 
ATOM     26  C   UNL A   1      40.007 -22.236 -34.975  0.00  0.00    -0.040 A 
ATOM     27  C   UNL A   1      39.322 -21.007 -35.039  0.00  0.00    +0.040 A 
BRANCH  22  29
ATOM     28  C   UNL A   1      37.103 -19.105 -32.663  0.00  0.00    -0.061 C 
ATOM     29  C   UNL A   1      37.460 -19.491 -34.099  0.00  0.00    -0.029 C 
ENDBRANCH  22  29
ENDBRANCH  18  27
ENDBRANCH  17  19
ENDBRANCH   1  17
TORSDOF 4
ENDMDL
MODEL 17
REMARK VINA RESULT:    -7.142     16.064     18.041
REMARK INTER + INTRA:          -9.000
REMARK INTER:                  -8.106
REMARK INTRA:                  -0.894
REMARK UNBOUND:                -0.188
REMARK  Name = cpd259.pdb
REMARK  8 active torsions:
REMARK  status: ('A' for Active; 'I' for Inactive)
REMARK    1  A    between atoms: C_1  and  C_2
REMARK    2  A    between atoms: C_2  and  C_3
REMARK    3  A    between atoms: C_8  and  N_9
REMARK    4  A    between atoms: C_10  and  O_12
REMARK    5  A    between atoms: O_12  and  C_13
REMARK    6  A    between atoms: C_19  and  C_20
REMARK    7  A    between atoms: N_23  and  C_24
REMARK    8  A    between atoms: N_27  and  C_28
REMARK                            x       y       z     vdW  Elec       q    Type
REMARK                         _______ _______ _______ _____ _____    ______ ____
ROOT
ATOM      1  C   UNL A   1      40.810 -21.618 -38.626  0.00  0.00    +0.134 A 
ATOM      2  C   UNL A   1      40.290 -20.332 -38.862  0.00  0.00    -0.017 A 
ATOM      3  C   UNL A   1      39.764 -19.586 -37.803  0.00  0.00    -0.037 A 
ATOM      4  C   UNL A   1      39.732 -20.166 -36.549  0.00  0.00    +0.032 A 
ATOM      5  C   UNL A   1      40.259 -21.462 -36.343  0.00  0.00    -0.017 A 
ATOM      6  C   UNL A   1      40.798 -22.212 -37.368  0.00  0.00    -0.014 A 
ATOM      7  C   UNL A   1      40.140 -21.716 -34.872  0.00  0.00    +0.002 C 
ATOM      8  C   UNL A   1      41.422 -21.153 -34.199  0.00  0.00    -0.055 C 
ATOM      9  C   UNL A   1      39.775 -23.060 -34.306  0.00  0.00    -0.054 C 
ATOM     10  C   UNL A   1      39.180 -22.641 -32.967  0.00  0.00    -0.048 C 
ATOM     11  N   UNL A   1      38.594 -21.227 -33.151  0.00  0.00    +0.433 N 
ATOM     12  C   UNL A   1      37.150 -21.269 -32.701  0.00  0.00    -0.060 C 
ATOM     13  O   UNL A   1      39.234 -20.310 -32.359  0.00  0.00    -0.289 OA
ATOM     14  C   UNL A   1      38.714 -20.951 -34.708  0.00  0.00    +0.039 C 
ATOM     15  N   UNL A   1      39.238 -19.648 -35.325  0.00  0.00    -0.341 N 
ATOM     16  C   UNL A   1      38.437 -18.437 -35.332  0.00  0.00    -0.001 C 
ENDROOT
BRANCH   1  17
ATOM     17  O   UNL A   1      41.331 -22.374 -39.700  0.00  0.00    -0.411 OA
BRANCH  17  19
ATOM     18  N   UNL A   1      43.454 -21.440 -40.022  0.00  0.00    -0.251 N 
ATOM     19  C   UNL A   1      42.278 -21.861 -40.610  0.00  0.00    +0.410 C 
ATOM     20  O   UNL A   1      41.989 -21.819 -41.798  0.00  0.00    -0.226 OA
ATOM     21  H   UNL A   1      43.537 -21.608 -39.056  0.00  0.00    +0.000 HD
BRANCH  18  27
ATOM     22  C   UNL A   1      44.714 -19.410 -40.828  0.00  0.00    -0.026 A 
ATOM     23  C   UNL A   1      45.946 -18.954 -41.346  0.00  0.00    -0.057 A 
ATOM     24  C   UNL A   1      46.947 -19.838 -41.753  0.00  0.00    -0.061 A 
ATOM     25  C   UNL A   1      46.737 -21.205 -41.654  0.00  0.00    -0.060 A 
ATOM     26  C   UNL A   1      45.548 -21.678 -41.104  0.00  0.00    -0.040 A 
ATOM     27  C   UNL A   1      44.552 -20.798 -40.637  0.00  0.00    +0.040 A 
BRANCH  22  29
ATOM     28  C   UNL A   1      43.429 -17.996 -39.096  0.00  0.00    -0.061 C 
ATOM     29  C   UNL A   1      43.622 -18.394 -40.559  0.00  0.00    -0.029 C 
ENDBRANCH  22  29
ENDBRANCH  18  27
ENDBRANCH  17  19
ENDBRANCH   1  17
TORSDOF 4
ENDMDL
MODEL 18
REMARK VINA RESULT:    -7.139      4.849      5.604
REMARK INTER + INTRA:          -8.996
REMARK INTER:                  -8.210
REMARK INTRA:                  -0.786
REMARK UNBOUND:                -0.188
REMARK  Name = cpd259.pdb
REMARK  8 active torsions:
REMARK  status: ('A' for Active; 'I' for Inactive)
REMARK    1  A    between atoms: C_1  and  C_2
REMARK    2  A    between atoms: C_2  and  C_3
REMARK    3  A    between atoms: C_8  and  N_9
REMARK    4  A    between atoms: C_10  and  O_12
REMARK    5  A    between atoms: O_12  and  C_13
REMARK    6  A    between atoms: C_19  and  C_20
REMARK    7  A    between atoms: N_23  and  C_24
REMARK    8  A    between atoms: N_27  and  C_28
REMARK                            x       y       z     vdW  Elec       q    Type
REMARK                         _______ _______ _______ _____ _____    ______ ____
ROOT
ATOM      1  C   UNL A   1      34.887 -38.472 -27.447  0.00  0.00    +0.134 A 
ATOM      2  C   UNL A   1      34.046 -37.765 -28.327  0.00  0.00    -0.017 A 
ATOM      3  C   UNL A   1      32.862 -37.193 -27.853  0.00  0.00    -0.037 A 
ATOM      4  C   UNL A   1      32.532 -37.382 -26.524  0.00  0.00    +0.032 A 
ATOM      5  C   UNL A   1      33.396 -38.100 -25.665  0.00  0.00    -0.017 A 
ATOM      6  C   UNL A   1      34.577 -38.662 -26.104  0.00  0.00    -0.014 A 
ATOM      7  C   UNL A   1      32.769 -38.021 -24.307  0.00  0.00    +0.002 C 
ATOM      8  C   UNL A   1      33.282 -36.717 -23.635  0.00  0.00    -0.055 C 
ATOM      9  C   UNL A   1      32.779 -39.171 -23.339  0.00  0.00    -0.054 C 
ATOM     10  C   UNL A   1      31.552 -38.833 -22.500  0.00  0.00    -0.048 C 
ATOM     11  N   UNL A   1      30.583 -38.047 -23.406  0.00  0.00    +0.433 N 
ATOM     12  C   UNL A   1      29.244 -38.749 -23.361  0.00  0.00    -0.060 C 
ATOM     13  O   UNL A   1      30.383 -36.773 -22.941  0.00  0.00    -0.289 OA
ATOM     14  C   UNL A   1      31.238 -38.128 -24.847  0.00  0.00    +0.039 C 
ATOM     15  N   UNL A   1      31.396 -36.938 -25.802  0.00  0.00    -0.341 N 
ATOM     16  C   UNL A   1      30.261 -36.389 -26.521  0.00  0.00    -0.001 C 
ENDROOT
BRANCH   1  17
ATOM     17  O   UNL A   1      36.078 -39.059 -27.932  0.00  0.00    -0.411 OA
BRANCH  17  19
ATOM     18  N   UNL A   1      37.489 -37.564 -29.053  0.00  0.00    -0.251 N 
ATOM     19  C   UNL A   1      36.680 -38.679 -29.149  0.00  0.00    +0.410 C 
ATOM     20  O   UNL A   1      36.436 -39.332 -30.154  0.00  0.00    -0.226 OA
ATOM     21  H   UNL A   1      37.619 -37.202 -28.147  0.00  0.00    +0.000 HD
BRANCH  18  27
ATOM     22  C   UNL A   1      37.566 -36.004 -31.034  0.00  0.00    -0.026 A 
ATOM     23  C   UNL A   1      38.423 -35.314 -31.919  0.00  0.00    -0.057 A 
ATOM     24  C   UNL A   1      39.798 -35.551 -31.947  0.00  0.00    -0.061 A 
ATOM     25  C   UNL A   1      40.351 -36.488 -31.090  0.00  0.00    -0.060 A 
ATOM     26  C   UNL A   1      39.533 -37.149 -30.176  0.00  0.00    -0.040 A 
ATOM     27  C   UNL A   1      38.153 -36.880 -30.097  0.00  0.00    +0.040 A 
BRANCH  22  29
ATOM     28  C   UNL A   1      35.446 -34.761 -30.250  0.00  0.00    -0.061 C 
ATOM     29  C   UNL A   1      36.069 -35.808 -31.174  0.00  0.00    -0.029 C 
ENDBRANCH  22  29
ENDBRANCH  18  27
ENDBRANCH  17  19
ENDBRANCH   1  17
TORSDOF 4
ENDMDL
MODEL 19
REMARK VINA RESULT:    -7.045     17.301     19.415
REMARK INTER + INTRA:          -8.880
REMARK INTER:                  -8.118
REMARK INTRA:                  -0.762
REMARK UNBOUND:                -0.188
REMARK  Name = cpd259.pdb
REMARK  8 active torsions:
REMARK  status: ('A' for Active; 'I' for Inactive)
REMARK    1  A    between atoms: C_1  and  C_2
REMARK    2  A    between atoms: C_2  and  C_3
REMARK    3  A    between atoms: C_8  and  N_9
REMARK    4  A    between atoms: C_10  and  O_12
REMARK    5  A    between atoms: O_12  and  C_13
REMARK    6  A    between atoms: C_19  and  C_20
REMARK    7  A    between atoms: N_23  and  C_24
REMARK    8  A    between atoms: N_27  and  C_28
REMARK                            x       y       z     vdW  Elec       q    Type
REMARK                         _______ _______ _______ _____ _____    ______ ____
ROOT
ATOM      1  C   UNL A   1      45.525 -18.746 -36.622  0.00  0.00    +0.134 A 
ATOM      2  C   UNL A   1      45.453 -17.413 -36.179  0.00  0.00    -0.017 A 
ATOM      3  C   UNL A   1      44.338 -16.975 -35.458  0.00  0.00    -0.037 A 
ATOM      4  C   UNL A   1      43.309 -17.871 -35.242  0.00  0.00    +0.032 A 
ATOM      5  C   UNL A   1      43.408 -19.204 -35.702  0.00  0.00    -0.017 A 
ATOM      6  C   UNL A   1      44.504 -19.665 -36.402  0.00  0.00    -0.014 A 
ATOM      7  C   UNL A   1      42.171 -19.893 -35.212  0.00  0.00    +0.002 C 
ATOM      8  C   UNL A   1      42.473 -20.427 -33.785  0.00  0.00    -0.055 C 
ATOM      9  C   UNL A   1      41.432 -20.915 -36.030  0.00  0.00    -0.054 C 
ATOM     10  C   UNL A   1      40.038 -20.791 -35.426  0.00  0.00    -0.048 C 
ATOM     11  N   UNL A   1      39.890 -19.346 -34.910  0.00  0.00    +0.433 N 
ATOM     12  C   UNL A   1      38.639 -18.765 -35.529  0.00  0.00    -0.060 C 
ATOM     13  O   UNL A   1      39.718 -19.313 -33.551  0.00  0.00    -0.289 OA
ATOM     14  C   UNL A   1      41.195 -18.609 -35.427  0.00  0.00    +0.039 C 
ATOM     15  N   UNL A   1      42.072 -17.684 -34.573  0.00  0.00    -0.341 N 
ATOM     16  C   UNL A   1      41.642 -16.342 -34.225  0.00  0.00    -0.001 C 
ENDROOT
BRANCH   1  17
ATOM     17  O   UNL A   1      46.649 -19.182 -37.359  0.00  0.00    -0.411 OA
BRANCH  17  19
ATOM     18  N   UNL A   1      46.425 -20.935 -38.895  0.00  0.00    -0.251 N 
ATOM     19  C   UNL A   1      46.575 -19.575 -38.711  0.00  0.00    +0.410 C 
ATOM     20  O   UNL A   1      46.659 -18.716 -39.578  0.00  0.00    -0.226 OA
ATOM     21  H   UNL A   1      46.312 -21.471 -38.078  0.00  0.00    +0.000 HD
BRANCH  18  27
ATOM     22  C   UNL A   1      45.424 -21.590 -41.116  0.00  0.00    -0.026 A 
ATOM     23  C   UNL A   1      45.661 -22.283 -42.323  0.00  0.00    -0.057 A 
ATOM     24  C   UNL A   1      46.787 -23.088 -42.500  0.00  0.00    -0.061 A 
ATOM     25  C   UNL A   1      47.706 -23.221 -41.471  0.00  0.00    -0.060 A 
ATOM     26  C   UNL A   1      47.516 -22.511 -40.287  0.00  0.00    -0.040 A 
ATOM     27  C   UNL A   1      46.414 -21.651 -40.114  0.00  0.00    +0.040 A 
BRANCH  22  29
ATOM     28  C   UNL A   1      43.150 -21.458 -39.904  0.00  0.00    -0.061 C 
ATOM     29  C   UNL A   1      44.102 -20.867 -40.944  0.00  0.00    -0.029 C 
ENDBRANCH  22  29
ENDBRANCH  18  27
ENDBRANCH  17  19
ENDBRANCH   1  17
TORSDOF 4
ENDMDL
MODEL 20
REMARK VINA RESULT:    -6.735     16.990     19.705
REMARK INTER + INTRA:          -8.498
REMARK INTER:                  -7.694
REMARK INTRA:                  -0.804
REMARK UNBOUND:                -0.188
REMARK  Name = cpd259.pdb
REMARK  8 active torsions:
REMARK  status: ('A' for Active; 'I' for Inactive)
REMARK    1  A    between atoms: C_1  and  C_2
REMARK    2  A    between atoms: C_2  and  C_3
REMARK    3  A    between atoms: C_8  and  N_9
REMARK    4  A    between atoms: C_10  and  O_12
REMARK    5  A    between atoms: O_12  and  C_13
REMARK    6  A    between atoms: C_19  and  C_20
REMARK    7  A    between atoms: N_23  and  C_24
REMARK    8  A    between atoms: N_27  and  C_28
REMARK                            x       y       z     vdW  Elec       q    Type
REMARK                         _______ _______ _______ _____ _____    ______ ____
ROOT
ATOM      1  C   UNL A   1      44.607 -18.813 -35.190  0.00  0.00    +0.134 A 
ATOM      2  C   UNL A   1      45.540 -17.761 -35.260  0.00  0.00    -0.017 A 
ATOM      3  C   UNL A   1      46.042 -17.354 -36.499  0.00  0.00    -0.037 A 
ATOM      4  C   UNL A   1      45.632 -18.040 -37.627  0.00  0.00    +0.032 A 
ATOM      5  C   UNL A   1      44.696 -19.095 -37.525  0.00  0.00    -0.017 A 
ATOM      6  C   UNL A   1      44.174 -19.506 -36.317  0.00  0.00    -0.014 A 
ATOM      7  C   UNL A   1      44.424 -19.529 -38.933  0.00  0.00    +0.002 C 
ATOM      8  C   UNL A   1      43.273 -18.639 -39.478  0.00  0.00    -0.055 C 
ATOM      9  C   UNL A   1      44.227 -20.969 -39.316  0.00  0.00    -0.054 C 
ATOM     10  C   UNL A   1      44.633 -20.920 -40.784  0.00  0.00    -0.048 C 
ATOM     11  N   UNL A   1      45.657 -19.777 -40.936  0.00  0.00    +0.433 N 
ATOM     12  C   UNL A   1      46.890 -20.353 -41.597  0.00  0.00    -0.060 C 
ATOM     13  O   UNL A   1      45.186 -18.788 -41.758  0.00  0.00    -0.289 OA
ATOM     14  C   UNL A   1      45.952 -19.314 -39.449  0.00  0.00    +0.039 C 
ATOM     15  N   UNL A   1      46.000 -17.852 -38.984  0.00  0.00    -0.341 N 
ATOM     16  C   UNL A   1      47.123 -16.991 -39.308  0.00  0.00    -0.001 C 
ENDROOT
BRANCH   1  17
ATOM     17  O   UNL A   1      44.109 -19.229 -33.935  0.00  0.00    -0.411 OA
BRANCH  17  19
ATOM     18  N   UNL A   1      42.618 -21.028 -34.079  0.00  0.00    -0.251 N 
ATOM     19  C   UNL A   1      42.793 -19.699 -33.750  0.00  0.00    +0.410 C 
ATOM     20  O   UNL A   1      41.943 -18.919 -33.342  0.00  0.00    -0.226 OA
ATOM     21  H   UNL A   1      43.431 -21.520 -34.332  0.00  0.00    +0.000 HD
BRANCH  18  27
ATOM     22  C   UNL A   1      40.599 -22.020 -35.220  0.00  0.00    -0.026 A 
ATOM     23  C   UNL A   1      39.502 -22.894 -35.057  0.00  0.00    -0.057 A 
ATOM     24  C   UNL A   1      39.160 -23.423 -33.811  0.00  0.00    -0.061 A 
ATOM     25  C   UNL A   1      39.908 -23.087 -32.694  0.00  0.00    -0.060 A 
ATOM     26  C   UNL A   1      41.022 -22.263 -32.838  0.00  0.00    -0.040 A 
ATOM     27  C   UNL A   1      41.413 -21.767 -34.096  0.00  0.00    +0.040 A 
BRANCH  22  29
ATOM     28  C   UNL A   1      40.653 -22.279 -37.786  0.00  0.00    -0.061 C 
ATOM     29  C   UNL A   1      40.808 -21.365 -36.571  0.00  0.00    -0.029 C 
ENDBRANCH  22  29
ENDBRANCH  18  27
ENDBRANCH  17  19
ENDBRANCH   1  17
TORSDOF 4
ENDMDL
