@<TRIPOS>MOLECULE
*****
 28 31 0 0 0
SMALL
GASTEIGER

@<TRIPOS>ATOM
      1 C          -6.8189   -1.9595    0.0000 C.3     1  UNL1        0.0051
      2 C          -5.9425   -1.4453    0.0000 C.3     1  UNL1        0.0277
      3 C          -5.9497   -0.4292    0.0000 C.ar    1  UNL1       -0.0067
      4 C          -6.8332    0.0727    0.0000 C.ar    1  UNL1       -0.0030
      5 C          -6.8404    1.0888    0.0000 C.ar    1  UNL1       -0.0002
      6 C          -5.9640    1.6031    0.0000 C.ar    1  UNL1        0.0013
      7 C          -5.0804    1.1012    0.0000 C.ar    1  UNL1        0.0164
      8 C          -5.0733    0.0851    0.0000 C.ar    1  UNL1        0.0727
      9 N          -4.1897   -0.4168    0.0000 N.am    1  UNL1       -0.1424
     10 C          -4.1825   -1.4329    0.0000 C.2     1  UNL1        0.4300
     11 O          -5.0590   -1.9472    0.0000 O.2     1  UNL1       -0.2238
     12 O          -3.2990   -1.9348    0.0000 O.3     1  UNL1       -0.4089
     13 C          -2.4226   -1.4205    0.0000 C.ar    1  UNL1        0.1499
     14 C          -2.4291   -0.4916    0.0000 C.ar    1  UNL1        0.0389
     15 C          -1.6279   -0.0215    0.0000 C.ar    1  UNL1        0.0175
     16 C          -0.8202   -0.4803    0.0000 C.ar    1  UNL1        0.0484
     17 C          -0.8136   -1.4092    0.0000 C.ar    1  UNL1        0.0010
     18 C          -1.6148   -1.8794    0.0000 C.ar    1  UNL1        0.0349
     19 C           0.0002   -1.8791    0.0000 C.3     1  UNL1        0.0894
     20 C          -0.4998   -2.7451    0.0000 C.3     1  UNL1        0.0123
     21 C           0.8142   -2.3491    0.0000 C.3     1  UNL1        0.0723
     22 C           1.6344   -1.8688    0.0000 C.3     1  UNL1        0.1067
     23 N           1.6278   -0.9398    0.0000 N.3     1  UNL1        0.2728
     24 C           2.4921   -0.4368    0.0000 C.3     1  UNL1        0.1677
     25 O           2.4938   -1.4398    0.0000 O.co2   1  UNL1       -0.7702
     26 C           0.8138   -0.4698    0.0000 C.3     1  UNL1        0.1391
     27 N           0.0000   -0.0000    0.0000 N.pl3   1  UNL1       -0.2662
     28 C          -0.0031    1.0000    0.0000 C.3     1  UNL1        0.1174
@<TRIPOS>UNITY_ATOM_ATTR
23 1
charge 1
25 1
charge -1
@<TRIPOS>BOND
     1     1     2    1
     2     2     3    1
     3     3     4   ar
     4     4     5   ar
     5     5     6   ar
     6     6     7   ar
     7     7     8   ar
     8     3     8   ar
     9     8     9    1
    10     9    10   am
    11    10    11    2
    12    10    12    1
    13    12    13    1
    14    13    14   ar
    15    14    15   ar
    16    15    16   ar
    17    16    17   ar
    18    17    18   ar
    19    13    18   ar
    20    17    19    1
    21    19    20    1
    22    19    21    1
    23    21    22    1
    24    22    23    1
    25    23    24    1
    26    23    25    1
    27    23    26    1
    28    19    26    1
    29    26    27    1
    30    16    27    1
    31    27    28    1
