REMARK  Name = cpd259.pdb
REMARK  8 active torsions:
REMARK  status: ('A' for Active; 'I' for Inactive)
REMARK    1  A    between atoms: C_1  and  C_2
REMARK    2  A    between atoms: C_2  and  C_3
REMARK    3  A    between atoms: C_8  and  N_9
REMARK    4  A    between atoms: C_10  and  O_12
REMARK    5  A    between atoms: O_12  and  C_13
REMARK    6  A    between atoms: C_19  and  C_20
REMARK    7  A    between atoms: N_23  and  C_24
REMARK    8  A    between atoms: N_27  and  C_28
REMARK                            x       y       z     vdW  Elec       q    Type
REMARK                         _______ _______ _______ _____ _____    ______ ____
ROOT
ATOM      1  C   UNL A   1      -3.482  -0.930   1.236  0.00  0.00    +0.134 A 
ATOM      2  C   UNL A   1      -3.564   0.315   0.585  0.00  0.00    -0.017 A 
ATOM      3  C   UNL A   1      -2.501   0.762  -0.205  0.00  0.00    -0.037 A 
ATOM      4  C   UNL A   1      -1.370  -0.028  -0.284  0.00  0.00    +0.032 A 
ATOM      5  C   UNL A   1      -1.315  -1.273   0.384  0.00  0.00    -0.017 A 
ATOM      6  C   UNL A   1      -2.356  -1.744   1.157  0.00  0.00    -0.014 A 
ATOM      7  C   UNL A   1       0.000  -1.879   0.000  0.00  0.00    +0.002 C 
ATOM      8  C   UNL A   1      -0.220  -2.665  -1.322  0.00  0.00    -0.055 C 
ATOM      9  C   UNL A   1       0.847  -2.662   0.964  0.00  0.00    -0.054 C 
ATOM     10  C   UNL A   1       2.223  -2.471   0.337  0.00  0.00    -0.048 C 
ATOM     11  N   UNL A   1       2.203  -1.119  -0.404  0.00  0.00    +0.433 N 
ATOM     12  C   UNL A   1       3.370  -0.302   0.105  0.00  0.00    -0.060 C 
ATOM     13  O   UNL A   1       2.385  -1.282  -1.752  0.00  0.00    -0.289 OA
ATOM     14  C   UNL A   1       0.814  -0.470   0.000  0.00  0.00    +0.039 C 
ATOM     15  N   UNL A   1      -0.157   0.196  -0.984  0.00  0.00    -0.341 N 
ATOM     16  C   UNL A   1       0.114   1.507  -1.545  0.00  0.00    -0.001 C 
ENDROOT
BRANCH   1  17
ATOM     17  O   UNL A   1      -4.554  -1.374   2.042  0.00  0.00    -0.411 OA
BRANCH  17  19
ATOM     18  N   UNL A   1      -5.970  -1.745   0.215  0.00  0.00    -0.251 N 
ATOM     19  C   UNL A   1      -5.877  -1.483   1.567  0.00  0.00    +0.410 C 
ATOM     20  O   UNL A   1      -6.799  -1.329   2.356  0.00  0.00    -0.226 OA
ATOM     21  H   UNL A   1      -5.119  -1.901  -0.254  0.00  0.00    +0.000 HD
BRANCH  18  27
ATOM     22  C   UNL A   1      -8.396  -2.314  -0.178  0.00  0.00    -0.026 A 
ATOM     23  C   UNL A   1      -9.476  -2.178  -1.077  0.00  0.00    -0.057 A 
ATOM     24  C   UNL A   1      -9.304  -1.661  -2.362  0.00  0.00    -0.061 A 
ATOM     25  C   UNL A   1      -8.043  -1.268  -2.781  0.00  0.00    -0.060 A 
ATOM     26  C   UNL A   1      -6.970  -1.350  -1.896  0.00  0.00    -0.040 A 
ATOM     27  C   UNL A   1      -7.138  -1.817  -0.578  0.00  0.00    +0.040 A 
BRANCH  22  29
ATOM     28  C   UNL A   1      -9.592  -4.220   1.083  0.00  0.00    -0.061 C 
ATOM     29  C   UNL A   1      -8.634  -3.030   1.137  0.00  0.00    -0.029 C 
ENDBRANCH  22  29
ENDBRANCH  18  27
ENDBRANCH  17  19
ENDBRANCH   1  17
TORSDOF 4
