REMARK  Name = cpd186.pdb
REMARK  11 active torsions:
REMARK  status: ('A' for Active; 'I' for Inactive)
REMARK    1  A    between atoms: C_1  and  C_2
REMARK    2  A    between atoms: C_3  and  C_4
REMARK    3  A    between atoms: C_3  and  C_5
REMARK    4  A    between atoms: N_7  and  C_8
REMARK    5  A    between atoms: C_11  and  C_12
REMARK    6  A    between atoms: C_20  and  C_21
REMARK    7  A    between atoms: C_21  and  C_22
REMARK    8  A    between atoms: C_21  and  N_23
REMARK    9  A    between atoms: N_23  and  C_24
REMARK   10  A    between atoms: N_23  and  C_25
REMARK   11  A    between atoms: C_26  and  C_27
REMARK                            x       y       z     vdW  Elec       q    Type
REMARK                         _______ _______ _______ _____ _____    ______ ____
ROOT
ATOM      1  C   UNL     1       1.977   0.433   0.335  0.00  0.00    +0.086 C 
ATOM      2  C   UNL     1       2.041   1.962   0.291  0.00  0.00    -0.026 C 
ATOM      3  C   UNL     1       0.698   2.675   0.099  0.00  0.00    -0.041 C 
ATOM      4  C   UNL     1      -0.523   1.949   0.717  0.00  0.00    -0.001 C 
ATOM      5  C   UNL     1      -0.336   1.801   2.246  0.00  0.00    -0.055 C 
ATOM      6  C   UNL     1      -0.599   0.568   0.081  0.00  0.00    -0.001 C 
ATOM      7  C   UNL     1      -1.747  -0.014  -0.308  0.00  0.00    -0.077 C 
ATOM      8  C   UNL     1      -3.099   0.612  -0.172  0.00  0.00    -0.031 C 
ATOM      9  C   UNL     1      -3.114   1.905   0.662  0.00  0.00    -0.031 C 
ATOM     10  C   UNL     1      -4.369   2.734   0.359  0.00  0.00    -0.032 C 
ATOM     11  C   UNL     1      -5.725   2.072   0.573  0.00  0.00    -0.049 C 
ATOM     12  C   UNL     1      -6.715   3.241   0.678  0.00  0.00    -0.048 C 
ATOM     13  C   UNL     1      -5.887   4.551   0.795  0.00  0.00    -0.020 C 
ATOM     14  C   UNL     1      -4.456   4.040   1.173  0.00  0.00    -0.025 C 
ATOM     15  C   UNL     1      -4.453   3.797   2.713  0.00  0.00    -0.059 C 
ATOM     16  C   UNL     1      -3.235   4.898   0.816  0.00  0.00    -0.047 C 
ATOM     17  C   UNL     1      -1.909   4.154   1.059  0.00  0.00    -0.049 C 
ATOM     18  C   UNL     1      -1.839   2.760   0.384  0.00  0.00    -0.028 C 
ATOM     19  C   UNL     1       0.686  -0.133  -0.261  0.00  0.00    +0.179 C 
ATOM     20  O   UNL     1       0.696  -1.147  -0.964  0.00  0.00    -0.290 OA
ENDROOT
BRANCH   1  23
ATOM     21  C   UNL     1       4.380  -0.128   0.138  0.00  0.00    +0.240 C 
ATOM     22  O   UNL     1       4.715   0.555   1.099  0.00  0.00    -0.271 OA
ATOM     23  N   UNL     1       3.105  -0.179  -0.357  0.00  0.00    -0.302 N 
ATOM     24  H   UNL     1       2.944  -0.645  -1.209  0.00  0.00    +0.000 HD
BRANCH  21  27
ATOM     25  C   UNL     1       5.962  -3.172  -1.693  0.00  0.00    -0.046 C 
ATOM     26  C   UNL     1       5.087  -2.201  -0.967  0.00  0.00    -0.079 C 
ATOM     27  C   UNL     1       5.381  -0.928  -0.634  0.00  0.00    +0.007 C 
ATOM     28  C   UNL     1       6.658  -0.196  -0.910  0.00  0.00    -0.035 C 
ENDBRANCH  21  27
ENDBRANCH   1  23
BRANCH  13  29
ATOM     29  C   UNL     1      -6.089   5.542  -0.412  0.00  0.00    +0.010 C 
ATOM     30  C   UNL     1      -5.768   6.973   0.085  0.00  0.00    -0.049 C 
BRANCH  29  31
ATOM     31  N   UNL     1      -5.405   5.159  -1.676  0.00  0.00    -0.305 N 
ATOM     32  C   UNL     1      -5.028   6.289  -2.532  0.00  0.00    -0.013 C 
ATOM     33  C   UNL     1      -6.199   4.227  -2.486  0.00  0.00    -0.013 C 
ATOM     34  H   UNL     1      -4.551   4.708  -1.348  0.00  0.00    +0.000 HD
ENDBRANCH  29  31
ENDBRANCH  13  29
TORSDOF 4
