MODEL 1
REMARK VINA RESULT:    -9.971      0.000      0.000
REMARK INTER + INTRA:         -12.793
REMARK INTER:                 -12.303
REMARK INTRA:                  -0.490
REMARK UNBOUND:                -0.490
REMARK  Name = cpd186.pdb
REMARK  11 active torsions:
REMARK  status: ('A' for Active; 'I' for Inactive)
REMARK    1  A    between atoms: C_1  and  C_2
REMARK    2  A    between atoms: C_3  and  C_4
REMARK    3  A    between atoms: C_3  and  C_5
REMARK    4  A    between atoms: N_7  and  C_8
REMARK    5  A    between atoms: C_11  and  C_12
REMARK    6  A    between atoms: C_20  and  C_21
REMARK    7  A    between atoms: C_21  and  C_22
REMARK    8  A    between atoms: C_21  and  N_23
REMARK    9  A    between atoms: N_23  and  C_24
REMARK   10  A    between atoms: N_23  and  C_25
REMARK   11  A    between atoms: C_26  and  C_27
REMARK                            x       y       z     vdW  Elec       q    Type
REMARK                         _______ _______ _______ _____ _____    ______ ____
ROOT
ATOM      1  C   UNL     1      43.048 -38.048 -30.717  0.00  0.00    +0.086 C 
ATOM      2  C   UNL     1      42.544 -37.669 -32.112  0.00  0.00    -0.026 C 
ATOM      3  C   UNL     1      41.037 -37.411 -32.223  0.00  0.00    -0.041 C 
ATOM      4  C   UNL     1      40.378 -36.818 -30.953  0.00  0.00    -0.001 C 
ATOM      5  C   UNL     1      41.018 -35.451 -30.610  0.00  0.00    -0.055 C 
ATOM      6  C   UNL     1      40.632 -37.794 -29.813  0.00  0.00    -0.001 C 
ATOM      7  C   UNL     1      39.710 -38.123 -28.891  0.00  0.00    -0.077 C 
ATOM      8  C   UNL     1      38.316 -37.579 -28.860  0.00  0.00    -0.031 C 
ATOM      9  C   UNL     1      38.068 -36.424 -29.846  0.00  0.00    -0.031 C 
ATOM     10  C   UNL     1      36.568 -36.254 -30.119  0.00  0.00    -0.032 C 
ATOM     11  C   UNL     1      35.655 -36.000 -28.925  0.00  0.00    -0.049 C 
ATOM     12  C   UNL     1      34.381 -35.396 -29.533  0.00  0.00    -0.048 C 
ATOM     13  C   UNL     1      34.681 -35.061 -31.021  0.00  0.00    -0.020 C 
ATOM     14  C   UNL     1      36.245 -35.102 -31.090  0.00  0.00    -0.025 C 
ATOM     15  C   UNL     1      36.758 -33.719 -30.585  0.00  0.00    -0.059 C 
ATOM     16  C   UNL     1      36.928 -35.412 -32.429  0.00  0.00    -0.047 C 
ATOM     17  C   UNL     1      38.445 -35.627 -32.273  0.00  0.00    -0.049 C 
ATOM     18  C   UNL     1      38.822 -36.670 -31.190  0.00  0.00    -0.028 C 
ATOM     19  C   UNL     1      41.935 -38.542 -29.789  0.00  0.00    +0.179 C 
ATOM     20  O   UNL     1      42.115 -39.493 -29.024  0.00  0.00    -0.290 OA
ENDROOT
BRANCH   1  23
ATOM     21  C   UNL     1      45.053 -39.183 -29.813  0.00  0.00    +0.240 C 
ATOM     22  O   UNL     1      45.237 -38.357 -28.926  0.00  0.00    -0.271 OA
ATOM     23  N   UNL     1      44.083 -39.073 -30.772  0.00  0.00    -0.302 N 
ATOM     24  H   UNL     1      44.085 -39.707 -31.525  0.00  0.00    +0.000 HD
BRANCH  21  27
ATOM     25  C   UNL     1      46.145 -42.816 -30.671  0.00  0.00    -0.046 C 
ATOM     26  C   UNL     1      45.437 -41.512 -30.481  0.00  0.00    -0.079 C 
ATOM     27  C   UNL     1      45.944 -40.376 -29.961  0.00  0.00    +0.007 C 
ATOM     28  C   UNL     1      47.334 -40.161 -29.447  0.00  0.00    -0.035 C 
ENDBRANCH  21  27
ENDBRANCH   1  23
BRANCH  13  29
ATOM     29  C   UNL     1      33.814 -35.883 -32.046  0.00  0.00    +0.010 C 
ATOM     30  C   UNL     1      32.993 -36.927 -31.250  0.00  0.00    -0.049 C 
BRANCH  29  31
ATOM     31  N   UNL     1      33.017 -35.072 -33.005  0.00  0.00    -0.305 N 
ATOM     32  C   UNL     1      32.778 -33.688 -32.582  0.00  0.00    -0.013 C 
ATOM     33  C   UNL     1      31.716 -35.680 -33.311  0.00  0.00    -0.013 C 
ATOM     34  H   UNL     1      33.607 -35.055 -33.837  0.00  0.00    +0.000 HD
ENDBRANCH  29  31
ENDBRANCH  13  29
TORSDOF 4
ENDMDL
MODEL 2
REMARK VINA RESULT:    -8.933      2.711      4.580
REMARK INTER + INTRA:         -11.513
REMARK INTER:                 -10.923
REMARK INTRA:                  -0.590
REMARK UNBOUND:                -0.490
REMARK  Name = cpd186.pdb
REMARK  11 active torsions:
REMARK  status: ('A' for Active; 'I' for Inactive)
REMARK    1  A    between atoms: C_1  and  C_2
REMARK    2  A    between atoms: C_3  and  C_4
REMARK    3  A    between atoms: C_3  and  C_5
REMARK    4  A    between atoms: N_7  and  C_8
REMARK    5  A    between atoms: C_11  and  C_12
REMARK    6  A    between atoms: C_20  and  C_21
REMARK    7  A    between atoms: C_21  and  C_22
REMARK    8  A    between atoms: C_21  and  N_23
REMARK    9  A    between atoms: N_23  and  C_24
REMARK   10  A    between atoms: N_23  and  C_25
REMARK   11  A    between atoms: C_26  and  C_27
REMARK                            x       y       z     vdW  Elec       q    Type
REMARK                         _______ _______ _______ _____ _____    ______ ____
ROOT
ATOM      1  C   UNL     1      40.055 -37.525 -30.244  0.00  0.00    +0.086 C 
ATOM      2  C   UNL     1      39.319 -38.069 -29.017  0.00  0.00    -0.026 C 
ATOM      3  C   UNL     1      37.952 -37.438 -28.731  0.00  0.00    -0.041 C 
ATOM      4  C   UNL     1      37.170 -36.974 -29.985  0.00  0.00    -0.001 C 
ATOM      5  C   UNL     1      36.894 -38.179 -30.916  0.00  0.00    -0.055 C 
ATOM      6  C   UNL     1      38.042 -35.961 -30.715  0.00  0.00    -0.001 C 
ATOM      7  C   UNL     1      37.571 -34.829 -31.265  0.00  0.00    -0.077 C 
ATOM      8  C   UNL     1      36.135 -34.409 -31.235  0.00  0.00    -0.031 C 
ATOM      9  C   UNL     1      35.173 -35.489 -30.712  0.00  0.00    -0.031 C 
ATOM     10  C   UNL     1      33.851 -34.864 -30.248  0.00  0.00    -0.032 C 
ATOM     11  C   UNL     1      33.061 -34.043 -31.261  0.00  0.00    -0.049 C 
ATOM     12  C   UNL     1      31.636 -33.992 -30.692  0.00  0.00    -0.048 C 
ATOM     13  C   UNL     1      31.563 -35.002 -29.513  0.00  0.00    -0.020 C 
ATOM     14  C   UNL     1      32.832 -35.894 -29.723  0.00  0.00    -0.025 C 
ATOM     15  C   UNL     1      32.458 -36.973 -30.785  0.00  0.00    -0.059 C 
ATOM     16  C   UNL     1      33.460 -36.602 -28.515  0.00  0.00    -0.047 C 
ATOM     17  C   UNL     1      34.813 -37.252 -28.859  0.00  0.00    -0.049 C 
ATOM     18  C   UNL     1      35.819 -36.286 -29.536  0.00  0.00    -0.028 C 
ATOM     19  C   UNL     1      39.531 -36.162 -30.705  0.00  0.00    +0.179 C 
ATOM     20  O   UNL     1      40.300 -35.277 -31.088  0.00  0.00    -0.290 OA
ENDROOT
BRANCH   1  23
ATOM     21  C   UNL     1      42.409 -37.585 -31.008  0.00  0.00    +0.240 C 
ATOM     22  O   UNL     1      42.134 -38.009 -32.125  0.00  0.00    -0.271 OA
ATOM     23  N   UNL     1      41.489 -37.406 -30.010  0.00  0.00    -0.302 N 
ATOM     24  H   UNL     1      41.807 -37.189 -29.104  0.00  0.00    +0.000 HD
BRANCH  21  27
ATOM     25  C   UNL     1      45.680 -35.549 -30.483  0.00  0.00    -0.046 C 
ATOM     26  C   UNL     1      44.296 -36.036 -30.773  0.00  0.00    -0.079 C 
ATOM     27  C   UNL     1      43.821 -37.288 -30.615  0.00  0.00    +0.007 C 
ATOM     28  C   UNL     1      44.576 -38.482 -30.118  0.00  0.00    -0.035 C 
ENDBRANCH  21  27
ENDBRANCH   1  23
BRANCH  13  29
ATOM     29  C   UNL     1      31.281 -34.331 -28.116  0.00  0.00    +0.010 C 
ATOM     30  C   UNL     1      31.358 -32.795 -28.299  0.00  0.00    -0.049 C 
BRANCH  29  31
ATOM     31  N   UNL     1      30.061 -34.808 -27.412  0.00  0.00    -0.305 N 
ATOM     32  C   UNL     1      29.933 -36.267 -27.335  0.00  0.00    -0.013 C 
ATOM     33  C   UNL     1      28.826 -34.279 -28.003  0.00  0.00    -0.013 C 
ATOM     34  H   UNL     1      30.186 -34.448 -26.466  0.00  0.00    +0.000 HD
ENDBRANCH  29  31
ENDBRANCH  13  29
TORSDOF 4
ENDMDL
MODEL 3
REMARK VINA RESULT:    -8.163      4.534      8.503
REMARK INTER + INTRA:         -10.563
REMARK INTER:                  -9.831
REMARK INTRA:                  -0.732
REMARK UNBOUND:                -0.490
REMARK  Name = cpd186.pdb
REMARK  11 active torsions:
REMARK  status: ('A' for Active; 'I' for Inactive)
REMARK    1  A    between atoms: C_1  and  C_2
REMARK    2  A    between atoms: C_3  and  C_4
REMARK    3  A    between atoms: C_3  and  C_5
REMARK    4  A    between atoms: N_7  and  C_8
REMARK    5  A    between atoms: C_11  and  C_12
REMARK    6  A    between atoms: C_20  and  C_21
REMARK    7  A    between atoms: C_21  and  C_22
REMARK    8  A    between atoms: C_21  and  N_23
REMARK    9  A    between atoms: N_23  and  C_24
REMARK   10  A    between atoms: N_23  and  C_25
REMARK   11  A    between atoms: C_26  and  C_27
REMARK                            x       y       z     vdW  Elec       q    Type
REMARK                         _______ _______ _______ _____ _____    ______ ____
ROOT
ATOM      1  C   UNL     1      35.655 -34.378 -30.729  0.00  0.00    +0.086 C 
ATOM      2  C   UNL     1      35.578 -32.852 -30.629  0.00  0.00    -0.026 C 
ATOM      3  C   UNL     1      34.268 -32.223 -31.116  0.00  0.00    -0.041 C 
ATOM      4  C   UNL     1      33.005 -33.097 -30.910  0.00  0.00    -0.001 C 
ATOM      5  C   UNL     1      32.801 -33.391 -29.405  0.00  0.00    -0.055 C 
ATOM      6  C   UNL     1      33.234 -34.405 -31.655  0.00  0.00    -0.001 C 
ATOM      7  C   UNL     1      32.290 -35.025 -32.384  0.00  0.00    -0.077 C 
ATOM      8  C   UNL     1      30.894 -34.517 -32.566  0.00  0.00    -0.031 C 
ATOM      9  C   UNL     1      30.536 -33.323 -31.664  0.00  0.00    -0.031 C 
ATOM     10  C   UNL     1      29.328 -32.560 -32.224  0.00  0.00    -0.032 C 
ATOM     11  C   UNL     1      28.035 -33.338 -32.437  0.00  0.00    -0.049 C 
ATOM     12  C   UNL     1      26.942 -32.262 -32.507  0.00  0.00    -0.048 C 
ATOM     13  C   UNL     1      27.578 -30.915 -32.064  0.00  0.00    -0.020 C 
ATOM     14  C   UNL     1      28.904 -31.357 -31.359  0.00  0.00    -0.025 C 
ATOM     15  C   UNL     1      28.529 -31.760 -29.900  0.00  0.00    -0.059 C 
ATOM     16  C   UNL     1      30.086 -30.380 -31.303  0.00  0.00    -0.047 C 
ATOM     17  C   UNL     1      31.369 -31.047 -30.774  0.00  0.00    -0.049 C 
ATOM     18  C   UNL     1      31.749 -32.353 -31.517  0.00  0.00    -0.028 C 
ATOM     19  C   UNL     1      34.626 -34.971 -31.695  0.00  0.00    +0.179 C 
ATOM     20  O   UNL     1      34.918 -35.902 -32.450  0.00  0.00    -0.290 OA
ENDROOT
BRANCH   1  23
ATOM     21  C   UNL     1      37.618 -35.872 -30.524  0.00  0.00    +0.240 C 
ATOM     22  O   UNL     1      37.223 -36.405 -29.494  0.00  0.00    -0.271 OA
ATOM     23  N   UNL     1      36.979 -34.830 -31.140  0.00  0.00    -0.302 N 
ATOM     24  H   UNL     1      37.427 -34.371 -31.886  0.00  0.00    +0.000 HD
BRANCH  21  27
ATOM     25  C   UNL     1      41.164 -37.426 -30.888  0.00  0.00    -0.046 C 
ATOM     26  C   UNL     1      39.813 -36.965 -30.444  0.00  0.00    -0.079 C 
ATOM     27  C   UNL     1      38.904 -36.283 -31.169  0.00  0.00    +0.007 C 
ATOM     28  C   UNL     1      39.044 -35.823 -32.587  0.00  0.00    -0.035 C 
ENDBRANCH  21  27
ENDBRANCH   1  23
BRANCH  13  29
ATOM     29  C   UNL     1      27.602 -29.819 -33.196  0.00  0.00    +0.010 C 
ATOM     30  C   UNL     1      27.191 -30.497 -34.526  0.00  0.00    -0.049 C 
BRANCH  29  31
ATOM     31  N   UNL     1      26.864 -28.565 -32.888  0.00  0.00    -0.305 N 
ATOM     32  C   UNL     1      27.470 -27.349 -33.441  0.00  0.00    -0.013 C 
ATOM     33  C   UNL     1      26.681 -28.359 -31.446  0.00  0.00    -0.013 C 
ATOM     34  H   UNL     1      25.964 -28.710 -33.344  0.00  0.00    +0.000 HD
ENDBRANCH  29  31
ENDBRANCH  13  29
TORSDOF 4
ENDMDL
MODEL 4
REMARK VINA RESULT:    -8.039      5.113      8.698
REMARK INTER + INTRA:         -10.409
REMARK INTER:                  -9.644
REMARK INTRA:                  -0.765
REMARK UNBOUND:                -0.490
REMARK  Name = cpd186.pdb
REMARK  11 active torsions:
REMARK  status: ('A' for Active; 'I' for Inactive)
REMARK    1  A    between atoms: C_1  and  C_2
REMARK    2  A    between atoms: C_3  and  C_4
REMARK    3  A    between atoms: C_3  and  C_5
REMARK    4  A    between atoms: N_7  and  C_8
REMARK    5  A    between atoms: C_11  and  C_12
REMARK    6  A    between atoms: C_20  and  C_21
REMARK    7  A    between atoms: C_21  and  C_22
REMARK    8  A    between atoms: C_21  and  N_23
REMARK    9  A    between atoms: N_23  and  C_24
REMARK   10  A    between atoms: N_23  and  C_25
REMARK   11  A    between atoms: C_26  and  C_27
REMARK                            x       y       z     vdW  Elec       q    Type
REMARK                         _______ _______ _______ _____ _____    ______ ____
ROOT
ATOM      1  C   UNL     1      35.286 -35.510 -30.104  0.00  0.00    +0.086 C 
ATOM      2  C   UNL     1      34.399 -35.779 -28.885  0.00  0.00    -0.026 C 
ATOM      3  C   UNL     1      33.329 -34.720 -28.599  0.00  0.00    -0.041 C 
ATOM      4  C   UNL     1      32.762 -34.007 -29.852  0.00  0.00    -0.001 C 
ATOM      5  C   UNL     1      32.097 -35.038 -30.795  0.00  0.00    -0.055 C 
ATOM      6  C   UNL     1      33.933 -33.349 -30.569  0.00  0.00    -0.001 C 
ATOM      7  C   UNL     1      33.882 -32.119 -31.111  0.00  0.00    -0.077 C 
ATOM      8  C   UNL     1      32.677 -31.234 -31.083  0.00  0.00    -0.031 C 
ATOM      9  C   UNL     1      31.399 -31.924 -30.574  0.00  0.00    -0.031 C 
ATOM     10  C   UNL     1      30.368 -30.886 -30.110  0.00  0.00    -0.032 C 
ATOM     11  C   UNL     1      29.914 -29.838 -31.119  0.00  0.00    -0.049 C 
ATOM     12  C   UNL     1      28.588 -29.306 -30.556  0.00  0.00    -0.048 C 
ATOM     13  C   UNL     1      28.165 -30.238 -29.386  0.00  0.00    -0.020 C 
ATOM     14  C   UNL     1      29.054 -31.510 -29.600  0.00  0.00    -0.025 C 
ATOM     15  C   UNL     1      28.341 -32.387 -30.673  0.00  0.00    -0.059 C 
ATOM     16  C   UNL     1      29.393 -32.398 -28.395  0.00  0.00    -0.047 C 
ATOM     17  C   UNL     1      30.444 -33.470 -28.739  0.00  0.00    -0.049 C 
ATOM     18  C   UNL     1      31.725 -32.901 -29.402  0.00  0.00    -0.028 C 
ATOM     19  C   UNL     1      35.264 -34.047 -30.554  0.00  0.00    +0.179 C 
ATOM     20  O   UNL     1      36.292 -33.476 -30.925  0.00  0.00    -0.290 OA
ENDROOT
BRANCH   1  23
ATOM     21  C   UNL     1      37.208 -37.050 -30.356  0.00  0.00    +0.240 C 
ATOM     22  O   UNL     1      36.551 -37.933 -30.896  0.00  0.00    -0.271 OA
ATOM     23  N   UNL     1      36.673 -35.891 -29.862  0.00  0.00    -0.302 N 
ATOM     24  H   UNL     1      37.244 -35.294 -29.326  0.00  0.00    +0.000 HD
BRANCH  21  27
ATOM     25  C   UNL     1      41.033 -36.783 -31.002  0.00  0.00    -0.046 C 
ATOM     26  C   UNL     1      39.541 -36.696 -31.027  0.00  0.00    -0.079 C 
ATOM     27  C   UNL     1      38.678 -37.206 -30.125  0.00  0.00    +0.007 C 
ATOM     28  C   UNL     1      39.018 -37.984 -28.892  0.00  0.00    -0.035 C 
ENDBRANCH  21  27
ENDBRANCH   1  23
BRANCH  13  29
ATOM     29  C   UNL     1      28.119 -29.521 -27.985  0.00  0.00    +0.010 C 
ATOM     30  C   UNL     1      28.294 -28.001 -28.220  0.00  0.00    -0.049 C 
BRANCH  29  31
ATOM     31  N   UNL     1      26.966 -29.884 -27.118  0.00  0.00    -0.305 N 
ATOM     32  C   UNL     1      25.905 -30.635 -27.798  0.00  0.00    -0.013 C 
ATOM     33  C   UNL     1      26.351 -28.713 -26.481  0.00  0.00    -0.013 C 
ATOM     34  H   UNL     1      27.388 -30.492 -26.416  0.00  0.00    +0.000 HD
ENDBRANCH  29  31
ENDBRANCH  13  29
TORSDOF 4
ENDMDL
MODEL 5
REMARK VINA RESULT:    -7.863     16.453     18.509
REMARK INTER + INTRA:         -10.192
REMARK INTER:                  -9.909
REMARK INTRA:                  -0.283
REMARK UNBOUND:                -0.490
REMARK  Name = cpd186.pdb
REMARK  11 active torsions:
REMARK  status: ('A' for Active; 'I' for Inactive)
REMARK    1  A    between atoms: C_1  and  C_2
REMARK    2  A    between atoms: C_3  and  C_4
REMARK    3  A    between atoms: C_3  and  C_5
REMARK    4  A    between atoms: N_7  and  C_8
REMARK    5  A    between atoms: C_11  and  C_12
REMARK    6  A    between atoms: C_20  and  C_21
REMARK    7  A    between atoms: C_21  and  C_22
REMARK    8  A    between atoms: C_21  and  N_23
REMARK    9  A    between atoms: N_23  and  C_24
REMARK   10  A    between atoms: N_23  and  C_25
REMARK   11  A    between atoms: C_26  and  C_27
REMARK                            x       y       z     vdW  Elec       q    Type
REMARK                         _______ _______ _______ _____ _____    ______ ____
ROOT
ATOM      1  C   UNL     1      44.648 -20.710 -39.790  0.00  0.00    +0.086 C 
ATOM      2  C   UNL     1      43.261 -21.315 -40.025  0.00  0.00    -0.026 C 
ATOM      3  C   UNL     1      42.363 -21.413 -38.787  0.00  0.00    -0.041 C 
ATOM      4  C   UNL     1      42.573 -20.295 -37.736  0.00  0.00    -0.001 C 
ATOM      5  C   UNL     1      42.279 -18.912 -38.366  0.00  0.00    -0.055 C 
ATOM      6  C   UNL     1      44.029 -20.351 -37.298  0.00  0.00    -0.001 C 
ATOM      7  C   UNL     1      44.433 -20.208 -36.023  0.00  0.00    -0.077 C 
ATOM      8  C   UNL     1      43.512 -19.978 -34.867  0.00  0.00    -0.031 C 
ATOM      9  C   UNL     1      42.055 -19.689 -35.270  0.00  0.00    -0.031 C 
ATOM     10  C   UNL     1      41.103 -19.950 -34.095  0.00  0.00    -0.032 C 
ATOM     11  C   UNL     1      41.348 -19.184 -32.800  0.00  0.00    -0.049 C 
ATOM     12  C   UNL     1      40.015 -19.266 -32.043  0.00  0.00    -0.048 C 
ATOM     13  C   UNL     1      38.951 -19.837 -33.022  0.00  0.00    -0.020 C 
ATOM     14  C   UNL     1      39.625 -19.666 -34.425  0.00  0.00    -0.025 C 
ATOM     15  C   UNL     1      39.374 -18.194 -34.873  0.00  0.00    -0.059 C 
ATOM     16  C   UNL     1      39.213 -20.597 -35.573  0.00  0.00    -0.047 C 
ATOM     17  C   UNL     1      40.120 -20.438 -36.807  0.00  0.00    -0.049 C 
ATOM     18  C   UNL     1      41.633 -20.561 -36.493  0.00  0.00    -0.028 C 
ATOM     19  C   UNL     1      45.069 -20.724 -38.318  0.00  0.00    +0.179 C 
ATOM     20  O   UNL     1      46.226 -20.994 -37.986  0.00  0.00    -0.290 OA
ENDROOT
BRANCH   1  23
ATOM     21  C   UNL     1      46.644 -20.708 -41.253  0.00  0.00    +0.240 C 
ATOM     22  O   UNL     1      46.642 -19.493 -41.414  0.00  0.00    -0.271 OA
ATOM     23  N   UNL     1      45.678 -21.391 -40.565  0.00  0.00    -0.302 N 
ATOM     24  H   UNL     1      45.679 -22.375 -40.594  0.00  0.00    +0.000 HD
BRANCH  21  27
ATOM     25  C   UNL     1      48.387 -23.923 -42.574  0.00  0.00    -0.046 C 
ATOM     26  C   UNL     1      47.457 -22.892 -42.021  0.00  0.00    -0.079 C 
ATOM     27  C   UNL     1      47.695 -21.573 -41.875  0.00  0.00    +0.007 C 
ATOM     28  C   UNL     1      48.952 -20.839 -42.227  0.00  0.00    -0.035 C 
ENDBRANCH  21  27
ENDBRANCH   1  23
BRANCH  13  29
ATOM     29  C   UNL     1      38.363 -21.230 -32.582  0.00  0.00    +0.010 C 
ATOM     30  C   UNL     1      36.821 -21.158 -32.706  0.00  0.00    -0.049 C 
BRANCH  29  31
ATOM     31  N   UNL     1      38.980 -22.418 -33.228  0.00  0.00    -0.305 N 
ATOM     32  C   UNL     1      38.050 -23.522 -33.491  0.00  0.00    -0.013 C 
ATOM     33  C   UNL     1      40.109 -22.956 -32.459  0.00  0.00    -0.013 C 
ATOM     34  H   UNL     1      39.302 -22.052 -34.124  0.00  0.00    +0.000 HD
ENDBRANCH  29  31
ENDBRANCH  13  29
TORSDOF 4
ENDMDL
MODEL 6
REMARK VINA RESULT:    -7.814      5.358      9.841
REMARK INTER + INTRA:         -10.131
REMARK INTER:                  -9.420
REMARK INTRA:                  -0.711
REMARK UNBOUND:                -0.490
REMARK  Name = cpd186.pdb
REMARK  11 active torsions:
REMARK  status: ('A' for Active; 'I' for Inactive)
REMARK    1  A    between atoms: C_1  and  C_2
REMARK    2  A    between atoms: C_3  and  C_4
REMARK    3  A    between atoms: C_3  and  C_5
REMARK    4  A    between atoms: N_7  and  C_8
REMARK    5  A    between atoms: C_11  and  C_12
REMARK    6  A    between atoms: C_20  and  C_21
REMARK    7  A    between atoms: C_21  and  C_22
REMARK    8  A    between atoms: C_21  and  N_23
REMARK    9  A    between atoms: N_23  and  C_24
REMARK   10  A    between atoms: N_23  and  C_25
REMARK   11  A    between atoms: C_26  and  C_27
REMARK                            x       y       z     vdW  Elec       q    Type
REMARK                         _______ _______ _______ _____ _____    ______ ____
ROOT
ATOM      1  C   UNL     1      33.986 -34.270 -29.513  0.00  0.00    +0.086 C 
ATOM      2  C   UNL     1      34.192 -32.757 -29.398  0.00  0.00    -0.026 C 
ATOM      3  C   UNL     1      33.215 -31.893 -30.203  0.00  0.00    -0.041 C 
ATOM      4  C   UNL     1      31.796 -32.491 -30.369  0.00  0.00    -0.001 C 
ATOM      5  C   UNL     1      31.139 -32.693 -28.982  0.00  0.00    -0.055 C 
ATOM      6  C   UNL     1      31.949 -33.840 -31.057  0.00  0.00    -0.001 C 
ATOM      7  C   UNL     1      31.132 -34.281 -32.030  0.00  0.00    -0.077 C 
ATOM      8  C   UNL     1      29.968 -33.510 -32.568  0.00  0.00    -0.031 C 
ATOM      9  C   UNL     1      29.627 -32.242 -31.766  0.00  0.00    -0.031 C 
ATOM     10  C   UNL     1      28.793 -31.271 -32.611  0.00  0.00    -0.032 C 
ATOM     11  C   UNL     1      27.476 -31.781 -33.185  0.00  0.00    -0.049 C 
ATOM     12  C   UNL     1      26.681 -30.511 -33.519  0.00  0.00    -0.048 C 
ATOM     13  C   UNL     1      27.431 -29.305 -32.888  0.00  0.00    -0.020 C 
ATOM     14  C   UNL     1      28.401 -29.982 -31.862  0.00  0.00    -0.025 C 
ATOM     15  C   UNL     1      27.575 -30.258 -30.569  0.00  0.00    -0.059 C 
ATOM     16  C   UNL     1      29.695 -29.259 -31.464  0.00  0.00    -0.047 C 
ATOM     17  C   UNL     1      30.628 -30.153 -30.626  0.00  0.00    -0.049 C 
ATOM     18  C   UNL     1      30.924 -31.530 -31.273  0.00  0.00    -0.028 C 
ATOM     19  C   UNL     1      33.158 -34.674 -30.735  0.00  0.00    +0.179 C 
ATOM     20  O   UNL     1      33.450 -35.666 -31.406  0.00  0.00    -0.290 OA
ENDROOT
BRANCH   1  23
ATOM     21  C   UNL     1      35.533 -36.035 -28.725  0.00  0.00    +0.240 C 
ATOM     22  O   UNL     1      34.832 -36.356 -27.772  0.00  0.00    -0.271 OA
ATOM     23  N   UNL     1      35.253 -34.989 -29.563  0.00  0.00    -0.302 N 
ATOM     24  H   UNL     1      35.931 -34.713 -30.221  0.00  0.00    +0.000 HD
BRANCH  21  27
ATOM     25  C   UNL     1      38.768 -37.049 -30.629  0.00  0.00    -0.046 C 
ATOM     26  C   UNL     1      37.496 -36.434 -30.142  0.00  0.00    -0.079 C 
ATOM     27  C   UNL     1      36.821 -36.739 -29.015  0.00  0.00    +0.007 C 
ATOM     28  C   UNL     1      37.190 -37.771 -27.994  0.00  0.00    -0.035 C 
ENDBRANCH  21  27
ENDBRANCH   1  23
BRANCH  13  29
ATOM     29  C   UNL     1      27.977 -28.271 -33.942  0.00  0.00    +0.010 C 
ATOM     30  C   UNL     1      28.018 -28.972 -35.322  0.00  0.00    -0.049 C 
BRANCH  29  31
ATOM     31  N   UNL     1      27.306 -26.943 -33.943  0.00  0.00    -0.305 N 
ATOM     32  C   UNL     1      28.014 -25.903 -34.698  0.00  0.00    -0.013 C 
ATOM     33  C   UNL     1      27.067 -26.432 -32.588  0.00  0.00    -0.013 C 
ATOM     34  H   UNL     1      26.421 -27.133 -34.414  0.00  0.00    +0.000 HD
ENDBRANCH  29  31
ENDBRANCH  13  29
TORSDOF 4
ENDMDL
MODEL 7
REMARK VINA RESULT:    -7.756      3.638      6.041
REMARK INTER + INTRA:         -10.061
REMARK INTER:                  -9.270
REMARK INTRA:                  -0.791
REMARK UNBOUND:                -0.490
REMARK  Name = cpd186.pdb
REMARK  11 active torsions:
REMARK  status: ('A' for Active; 'I' for Inactive)
REMARK    1  A    between atoms: C_1  and  C_2
REMARK    2  A    between atoms: C_3  and  C_4
REMARK    3  A    between atoms: C_3  and  C_5
REMARK    4  A    between atoms: N_7  and  C_8
REMARK    5  A    between atoms: C_11  and  C_12
REMARK    6  A    between atoms: C_20  and  C_21
REMARK    7  A    between atoms: C_21  and  C_22
REMARK    8  A    between atoms: C_21  and  N_23
REMARK    9  A    between atoms: N_23  and  C_24
REMARK   10  A    between atoms: N_23  and  C_25
REMARK   11  A    between atoms: C_26  and  C_27
REMARK                            x       y       z     vdW  Elec       q    Type
REMARK                         _______ _______ _______ _____ _____    ______ ____
ROOT
ATOM      1  C   UNL     1      37.566 -35.581 -30.613  0.00  0.00    +0.086 C 
ATOM      2  C   UNL     1      36.722 -35.237 -31.843  0.00  0.00    -0.026 C 
ATOM      3  C   UNL     1      35.205 -35.235 -31.624  0.00  0.00    -0.041 C 
ATOM      4  C   UNL     1      34.748 -34.815 -30.205  0.00  0.00    -0.001 C 
ATOM      5  C   UNL     1      35.223 -33.374 -29.898  0.00  0.00    -0.055 C 
ATOM      6  C   UNL     1      35.390 -35.780 -29.218  0.00  0.00    -0.001 C 
ATOM      7  C   UNL     1      34.751 -36.297 -28.154  0.00  0.00    -0.077 C 
ATOM      8  C   UNL     1      33.329 -36.000 -27.798  0.00  0.00    -0.031 C 
ATOM      9  C   UNL     1      32.696 -34.866 -28.622  0.00  0.00    -0.031 C 
ATOM     10  C   UNL     1      31.164 -34.942 -28.568  0.00  0.00    -0.032 C 
ATOM     11  C   UNL     1      30.500 -34.896 -27.198  0.00  0.00    -0.049 C 
ATOM     12  C   UNL     1      29.046 -34.493 -27.485  0.00  0.00    -0.048 C 
ATOM     13  C   UNL     1      28.964 -34.052 -28.973  0.00  0.00    -0.020 C 
ATOM     14  C   UNL     1      30.463 -33.823 -29.364  0.00  0.00    -0.025 C 
ATOM     15  C   UNL     1      30.848 -32.395 -28.870  0.00  0.00    -0.059 C 
ATOM     16  C   UNL     1      30.884 -33.957 -30.833  0.00  0.00    -0.047 C 
ATOM     17  C   UNL     1      32.413 -33.918 -31.007  0.00  0.00    -0.049 C 
ATOM     18  C   UNL     1      33.174 -34.924 -30.106  0.00  0.00    -0.028 C 
ATOM     19  C   UNL     1      36.770 -36.295 -29.517  0.00  0.00    +0.179 C 
ATOM     20  O   UNL     1      37.258 -37.232 -28.879  0.00  0.00    -0.290 OA
ENDROOT
BRANCH   1  23
ATOM     21  C   UNL     1      39.930 -35.876 -31.284  0.00  0.00    +0.240 C 
ATOM     22  O   UNL     1      40.124 -34.681 -31.472  0.00  0.00    -0.271 OA
ATOM     23  N   UNL     1      38.714 -36.412 -30.957  0.00  0.00    -0.302 N 
ATOM     24  H   UNL     1      38.611 -37.391 -30.953  0.00  0.00    +0.000 HD
BRANCH  21  27
ATOM     25  C   UNL     1      42.586 -38.565 -30.368  0.00  0.00    -0.046 C 
ATOM     26  C   UNL     1      41.480 -37.560 -30.399  0.00  0.00    -0.079 C 
ATOM     27  C   UNL     1      41.024 -36.880 -31.470  0.00  0.00    +0.007 C 
ATOM     28  C   UNL     1      41.527 -36.974 -32.878  0.00  0.00    -0.035 C 
ENDBRANCH  21  27
ENDBRANCH   1  23
BRANCH  13  29
ATOM     29  C   UNL     1      28.038 -34.967 -29.859  0.00  0.00    +0.010 C 
ATOM     30  C   UNL     1      27.399 -36.035 -28.937  0.00  0.00    -0.049 C 
BRANCH  29  31
ATOM     31  N   UNL     1      27.074 -34.247 -30.732  0.00  0.00    -0.305 N 
ATOM     32  C   UNL     1      27.250 -34.491 -32.168  0.00  0.00    -0.013 C 
ATOM     33  C   UNL     1      27.095 -32.795 -30.518  0.00  0.00    -0.013 C 
ATOM     34  H   UNL     1      26.174 -34.636 -30.451  0.00  0.00    +0.000 HD
ENDBRANCH  29  31
ENDBRANCH  13  29
TORSDOF 4
ENDMDL
MODEL 8
REMARK VINA RESULT:    -7.690     17.099     18.559
REMARK INTER + INTRA:          -9.979
REMARK INTER:                  -9.196
REMARK INTRA:                  -0.783
REMARK UNBOUND:                -0.490
REMARK  Name = cpd186.pdb
REMARK  11 active torsions:
REMARK  status: ('A' for Active; 'I' for Inactive)
REMARK    1  A    between atoms: C_1  and  C_2
REMARK    2  A    between atoms: C_3  and  C_4
REMARK    3  A    between atoms: C_3  and  C_5
REMARK    4  A    between atoms: N_7  and  C_8
REMARK    5  A    between atoms: C_11  and  C_12
REMARK    6  A    between atoms: C_20  and  C_21
REMARK    7  A    between atoms: C_21  and  C_22
REMARK    8  A    between atoms: C_21  and  N_23
REMARK    9  A    between atoms: N_23  and  C_24
REMARK   10  A    between atoms: N_23  and  C_25
REMARK   11  A    between atoms: C_26  and  C_27
REMARK                            x       y       z     vdW  Elec       q    Type
REMARK                         _______ _______ _______ _____ _____    ______ ____
ROOT
ATOM      1  C   UNL     1      43.525 -20.919 -38.280  0.00  0.00    +0.086 C 
ATOM      2  C   UNL     1      43.374 -19.418 -38.018  0.00  0.00    -0.026 C 
ATOM      3  C   UNL     1      42.081 -18.997 -37.312  0.00  0.00    -0.041 C 
ATOM      4  C   UNL     1      41.509 -20.038 -36.317  0.00  0.00    -0.001 C 
ATOM      5  C   UNL     1      42.534 -20.318 -35.193  0.00  0.00    -0.055 C 
ATOM      6  C   UNL     1      41.253 -21.319 -37.099  0.00  0.00    -0.001 C 
ATOM      7  C   UNL     1      40.161 -22.087 -36.938  0.00  0.00    -0.077 C 
ATOM      8  C   UNL     1      39.054 -21.790 -35.977  0.00  0.00    -0.031 C 
ATOM      9  C   UNL     1      39.356 -20.637 -35.004  0.00  0.00    -0.031 C 
ATOM     10  C   UNL     1      38.059 -20.071 -34.410  0.00  0.00    -0.032 C 
ATOM     11  C   UNL     1      37.143 -21.033 -33.662  0.00  0.00    -0.049 C 
ATOM     12  C   UNL     1      36.252 -20.127 -32.800  0.00  0.00    -0.048 C 
ATOM     13  C   UNL     1      36.844 -18.691 -32.857  0.00  0.00    -0.020 C 
ATOM     14  C   UNL     1      38.290 -18.919 -33.413  0.00  0.00    -0.025 C 
ATOM     15  C   UNL     1      39.181 -19.333 -32.203  0.00  0.00    -0.059 C 
ATOM     16  C   UNL     1      38.992 -17.781 -34.165  0.00  0.00    -0.047 C 
ATOM     17  C   UNL     1      40.304 -18.242 -34.827  0.00  0.00    -0.049 C 
ATOM     18  C   UNL     1      40.147 -19.499 -35.720  0.00  0.00    -0.028 C 
ATOM     19  C   UNL     1      42.199 -21.679 -38.210  0.00  0.00    +0.179 C 
ATOM     20  O   UNL     1      41.933 -22.578 -39.013  0.00  0.00    -0.290 OA
ENDROOT
BRANCH   1  23
ATOM     21  C   UNL     1      45.466 -21.482 -39.709  0.00  0.00    +0.240 C 
ATOM     22  O   UNL     1      46.282 -21.395 -38.799  0.00  0.00    -0.271 OA
ATOM     23  N   UNL     1      44.136 -21.187 -39.576  0.00  0.00    -0.302 N 
ATOM     24  H   UNL     1      43.573 -21.154 -40.383  0.00  0.00    +0.000 HD
BRANCH  21  27
ATOM     25  C   UNL     1      47.272 -23.427 -42.552  0.00  0.00    -0.046 C 
ATOM     26  C   UNL     1      46.709 -22.916 -41.264  0.00  0.00    -0.079 C 
ATOM     27  C   UNL     1      45.884 -21.863 -41.094  0.00  0.00    +0.007 C 
ATOM     28  C   UNL     1      45.348 -20.957 -42.160  0.00  0.00    -0.035 C 
ENDBRANCH  21  27
ENDBRANCH   1  23
BRANCH  13  29
ATOM     29  C   UNL     1      35.887 -17.634 -33.527  0.00  0.00    +0.010 C 
ATOM     30  C   UNL     1      34.693 -18.397 -34.149  0.00  0.00    -0.049 C 
BRANCH  29  31
ATOM     31  N   UNL     1      35.505 -16.482 -32.667  0.00  0.00    -0.305 N 
ATOM     32  C   UNL     1      36.535 -16.068 -31.708  0.00  0.00    -0.013 C 
ATOM     33  C   UNL     1      34.266 -16.726 -31.918  0.00  0.00    -0.013 C 
ATOM     34  H   UNL     1      35.372 -15.727 -33.340  0.00  0.00    +0.000 HD
ENDBRANCH  29  31
ENDBRANCH  13  29
TORSDOF 4
ENDMDL
MODEL 9
REMARK VINA RESULT:    -7.467      4.195      6.522
REMARK INTER + INTRA:          -9.704
REMARK INTER:                  -9.264
REMARK INTRA:                  -0.440
REMARK UNBOUND:                -0.490
REMARK  Name = cpd186.pdb
REMARK  11 active torsions:
REMARK  status: ('A' for Active; 'I' for Inactive)
REMARK    1  A    between atoms: C_1  and  C_2
REMARK    2  A    between atoms: C_3  and  C_4
REMARK    3  A    between atoms: C_3  and  C_5
REMARK    4  A    between atoms: N_7  and  C_8
REMARK    5  A    between atoms: C_11  and  C_12
REMARK    6  A    between atoms: C_20  and  C_21
REMARK    7  A    between atoms: C_21  and  C_22
REMARK    8  A    between atoms: C_21  and  N_23
REMARK    9  A    between atoms: N_23  and  C_24
REMARK   10  A    between atoms: N_23  and  C_25
REMARK   11  A    between atoms: C_26  and  C_27
REMARK                            x       y       z     vdW  Elec       q    Type
REMARK                         _______ _______ _______ _____ _____    ______ ____
ROOT
ATOM      1  C   UNL     1      37.474 -36.697 -29.948  0.00  0.00    +0.086 C 
ATOM      2  C   UNL     1      36.351 -36.907 -30.966  0.00  0.00    -0.026 C 
ATOM      3  C   UNL     1      34.986 -37.283 -30.377  0.00  0.00    -0.041 C 
ATOM      4  C   UNL     1      34.690 -36.685 -28.979  0.00  0.00    -0.001 C 
ATOM      5  C   UNL     1      34.711 -35.140 -29.046  0.00  0.00    -0.055 C 
ATOM      6  C   UNL     1      35.786 -37.166 -28.039  0.00  0.00    -0.001 C 
ATOM      7  C   UNL     1      35.562 -37.577 -26.778  0.00  0.00    -0.077 C 
ATOM      8  C   UNL     1      34.214 -37.619 -26.130  0.00  0.00    -0.031 C 
ATOM      9  C   UNL     1      33.101 -36.939 -26.947  0.00  0.00    -0.031 C 
ATOM     10  C   UNL     1      31.718 -37.431 -26.499  0.00  0.00    -0.032 C 
ATOM     11  C   UNL     1      31.343 -37.251 -25.033  0.00  0.00    -0.049 C 
ATOM     12  C   UNL     1      29.811 -37.356 -25.009  0.00  0.00    -0.048 C 
ATOM     13  C   UNL     1      29.314 -37.322 -26.481  0.00  0.00    -0.020 C 
ATOM     14  C   UNL     1      30.553 -36.778 -27.268  0.00  0.00    -0.025 C 
ATOM     15  C   UNL     1      30.530 -35.225 -27.132  0.00  0.00    -0.059 C 
ATOM     16  C   UNL     1      30.713 -37.132 -28.752  0.00  0.00    -0.047 C 
ATOM     17  C   UNL     1      32.084 -36.703 -29.309  0.00  0.00    -0.049 C 
ATOM     18  C   UNL     1      33.287 -37.210 -28.472  0.00  0.00    -0.028 C 
ATOM     19  C   UNL     1      37.177 -37.325 -28.585  0.00  0.00    +0.179 C 
ATOM     20  O   UNL     1      38.055 -37.907 -27.942  0.00  0.00    -0.290 OA
ENDROOT
BRANCH   1  23
ATOM     21  C   UNL     1      39.624 -36.468 -31.154  0.00  0.00    +0.240 C 
ATOM     22  O   UNL     1      39.363 -35.358 -31.602  0.00  0.00    -0.271 OA
ATOM     23  N   UNL     1      38.747 -37.225 -30.425  0.00  0.00    -0.302 N 
ATOM     24  H   UNL     1      38.983 -38.157 -30.216  0.00  0.00    +0.000 HD
BRANCH  21  27
ATOM     25  C   UNL     1      42.726 -38.753 -30.625  0.00  0.00    -0.046 C 
ATOM     26  C   UNL     1      41.425 -38.020 -30.549  0.00  0.00    -0.079 C 
ATOM     27  C   UNL     1      40.935 -37.132 -31.436  0.00  0.00    +0.007 C 
ATOM     28  C   UNL     1      41.588 -36.669 -32.702  0.00  0.00    -0.035 C 
ENDBRANCH  21  27
ENDBRANCH   1  23
BRANCH  13  29
ATOM     29  C   UNL     1      28.593 -38.645 -26.940  0.00  0.00    +0.010 C 
ATOM     30  C   UNL     1      27.547 -38.270 -28.019  0.00  0.00    -0.049 C 
BRANCH  29  31
ATOM     31  N   UNL     1      29.494 -39.767 -27.317  0.00  0.00    -0.305 N 
ATOM     32  C   UNL     1      29.111 -40.470 -28.546  0.00  0.00    -0.013 C 
ATOM     33  C   UNL     1      29.625 -40.767 -26.250  0.00  0.00    -0.013 C 
ATOM     34  H   UNL     1      30.386 -39.301 -27.480  0.00  0.00    +0.000 HD
ENDBRANCH  29  31
ENDBRANCH  13  29
TORSDOF 4
ENDMDL
MODEL 10
REMARK VINA RESULT:    -7.383     18.425     21.526
REMARK INTER + INTRA:          -9.600
REMARK INTER:                  -8.871
REMARK INTRA:                  -0.728
REMARK UNBOUND:                -0.490
REMARK  Name = cpd186.pdb
REMARK  11 active torsions:
REMARK  status: ('A' for Active; 'I' for Inactive)
REMARK    1  A    between atoms: C_1  and  C_2
REMARK    2  A    between atoms: C_3  and  C_4
REMARK    3  A    between atoms: C_3  and  C_5
REMARK    4  A    between atoms: N_7  and  C_8
REMARK    5  A    between atoms: C_11  and  C_12
REMARK    6  A    between atoms: C_20  and  C_21
REMARK    7  A    between atoms: C_21  and  C_22
REMARK    8  A    between atoms: C_21  and  N_23
REMARK    9  A    between atoms: N_23  and  C_24
REMARK   10  A    between atoms: N_23  and  C_25
REMARK   11  A    between atoms: C_26  and  C_27
REMARK                            x       y       z     vdW  Elec       q    Type
REMARK                         _______ _______ _______ _____ _____    ______ ____
ROOT
ATOM      1  C   UNL     1      39.254 -18.207 -36.026  0.00  0.00    +0.086 C 
ATOM      2  C   UNL     1      40.671 -17.787 -35.624  0.00  0.00    -0.026 C 
ATOM      3  C   UNL     1      41.806 -18.445 -36.416  0.00  0.00    -0.041 C 
ATOM      4  C   UNL     1      41.466 -18.782 -37.890  0.00  0.00    -0.001 C 
ATOM      5  C   UNL     1      41.103 -17.491 -38.661  0.00  0.00    -0.055 C 
ATOM      6  C   UNL     1      40.264 -19.717 -37.875  0.00  0.00    -0.001 C 
ATOM      7  C   UNL     1      40.142 -20.790 -38.676  0.00  0.00    -0.077 C 
ATOM      8  C   UNL     1      41.164 -21.212 -39.684  0.00  0.00    -0.031 C 
ATOM      9  C   UNL     1      42.292 -20.189 -39.904  0.00  0.00    -0.031 C 
ATOM     10  C   UNL     1      43.519 -20.858 -40.538  0.00  0.00    -0.032 C 
ATOM     11  C   UNL     1      43.326 -21.574 -41.869  0.00  0.00    -0.049 C 
ATOM     12  C   UNL     1      44.740 -21.682 -42.459  0.00  0.00    -0.048 C 
ATOM     13  C   UNL     1      45.680 -20.795 -41.597  0.00  0.00    -0.020 C 
ATOM     14  C   UNL     1      44.685 -19.885 -40.800  0.00  0.00    -0.025 C 
ATOM     15  C   UNL     1      44.293 -18.707 -41.743  0.00  0.00    -0.059 C 
ATOM     16  C   UNL     1      45.121 -19.300 -39.450  0.00  0.00    -0.047 C 
ATOM     17  C   UNL     1      43.957 -18.619 -38.707  0.00  0.00    -0.049 C 
ATOM     18  C   UNL     1      42.699 -19.513 -38.558  0.00  0.00    -0.028 C 
ATOM     19  C   UNL     1      39.217 -19.518 -36.816  0.00  0.00    +0.179 C 
ATOM     20  O   UNL     1      38.338 -20.360 -36.617  0.00  0.00    -0.290 OA
ENDROOT
BRANCH   1  23
ATOM     21  C   UNL     1      37.642 -17.303 -34.379  0.00  0.00    +0.240 C 
ATOM     22  O   UNL     1      37.766 -16.143 -34.754  0.00  0.00    -0.271 OA
ATOM     23  N   UNL     1      38.379 -18.348 -34.868  0.00  0.00    -0.302 N 
ATOM     24  H   UNL     1      38.316 -19.224 -34.424  0.00  0.00    +0.000 HD
BRANCH  21  27
ATOM     25  C   UNL     1      34.820 -16.904 -31.734  0.00  0.00    -0.046 C 
ATOM     26  C   UNL     1      35.810 -16.751 -32.844  0.00  0.00    -0.079 C 
ATOM     27  C   UNL     1      36.699 -17.668 -33.276  0.00  0.00    +0.007 C 
ATOM     28  C   UNL     1      36.904 -19.050 -32.737  0.00  0.00    -0.035 C 
ENDBRANCH  21  27
ENDBRANCH   1  23
BRANCH  13  29
ATOM     29  C   UNL     1      46.804 -21.601 -40.844  0.00  0.00    +0.010 C 
ATOM     30  C   UNL     1      46.663 -23.093 -41.231  0.00  0.00    -0.049 C 
BRANCH  29  31
ATOM     31  N   UNL     1      48.181 -21.055 -40.977  0.00  0.00    -0.305 N 
ATOM     32  C   UNL     1      48.427 -20.318 -42.221  0.00  0.00    -0.013 C 
ATOM     33  C   UNL     1      49.212 -22.093 -40.858  0.00  0.00    -0.013 C 
ATOM     34  H   UNL     1      48.245 -20.399 -40.199  0.00  0.00    +0.000 HD
ENDBRANCH  29  31
ENDBRANCH  13  29
TORSDOF 4
ENDMDL
MODEL 11
REMARK VINA RESULT:    -6.949      6.377     12.910
REMARK INTER + INTRA:          -9.065
REMARK INTER:                  -8.331
REMARK INTRA:                  -0.733
REMARK UNBOUND:                -0.490
REMARK  Name = cpd186.pdb
REMARK  11 active torsions:
REMARK  status: ('A' for Active; 'I' for Inactive)
REMARK    1  A    between atoms: C_1  and  C_2
REMARK    2  A    between atoms: C_3  and  C_4
REMARK    3  A    between atoms: C_3  and  C_5
REMARK    4  A    between atoms: N_7  and  C_8
REMARK    5  A    between atoms: C_11  and  C_12
REMARK    6  A    between atoms: C_20  and  C_21
REMARK    7  A    between atoms: C_21  and  C_22
REMARK    8  A    between atoms: C_21  and  N_23
REMARK    9  A    between atoms: N_23  and  C_24
REMARK   10  A    between atoms: N_23  and  C_25
REMARK   11  A    between atoms: C_26  and  C_27
REMARK                            x       y       z     vdW  Elec       q    Type
REMARK                         _______ _______ _______ _____ _____    ______ ____
ROOT
ATOM      1  C   UNL     1      29.486 -30.309 -29.919  0.00  0.00    +0.086 C 
ATOM      2  C   UNL     1      30.716 -29.921 -30.744  0.00  0.00    -0.026 C 
ATOM      3  C   UNL     1      31.893 -30.901 -30.677  0.00  0.00    -0.041 C 
ATOM      4  C   UNL     1      31.497 -32.387 -30.492  0.00  0.00    -0.001 C 
ATOM      5  C   UNL     1      30.622 -32.856 -31.678  0.00  0.00    -0.055 C 
ATOM      6  C   UNL     1      30.696 -32.486 -29.201  0.00  0.00    -0.001 C 
ATOM      7  C   UNL     1      30.840 -33.478 -28.305  0.00  0.00    -0.077 C 
ATOM      8  C   UNL     1      31.803 -34.613 -28.451  0.00  0.00    -0.031 C 
ATOM      9  C   UNL     1      32.480 -34.693 -29.831  0.00  0.00    -0.031 C 
ATOM     10  C   UNL     1      33.766 -35.526 -29.759  0.00  0.00    -0.032 C 
ATOM     11  C   UNL     1      33.655 -36.960 -29.254  0.00  0.00    -0.049 C 
ATOM     12  C   UNL     1      34.932 -37.648 -29.758  0.00  0.00    -0.048 C 
ATOM     13  C   UNL     1      35.620 -36.685 -30.765  0.00  0.00    -0.020 C 
ATOM     14  C   UNL     1      34.490 -35.659 -31.113  0.00  0.00    -0.025 C 
ATOM     15  C   UNL     1      33.603 -36.317 -32.214  0.00  0.00    -0.059 C 
ATOM     16  C   UNL     1      34.875 -34.249 -31.581  0.00  0.00    -0.047 C 
ATOM     17  C   UNL     1      33.657 -33.311 -31.667  0.00  0.00    -0.049 C 
ATOM     18  C   UNL     1      32.806 -33.267 -30.372  0.00  0.00    -0.028 C 
ATOM     19  C   UNL     1      29.790 -31.344 -28.834  0.00  0.00    +0.179 C 
ATOM     20  O   UNL     1      29.282 -31.263 -27.712  0.00  0.00    -0.290 OA
ENDROOT
BRANCH   1  23
ATOM     21  C   UNL     1      27.737 -28.562 -29.781  0.00  0.00    +0.240 C 
ATOM     22  O   UNL     1      27.238 -28.842 -30.865  0.00  0.00    -0.271 OA
ATOM     23  N   UNL     1      28.869 -29.150 -29.284  0.00  0.00    -0.302 N 
ATOM     24  H   UNL     1      29.280 -28.779 -28.471  0.00  0.00    +0.000 HD
BRANCH  21  27
ATOM     25  C   UNL     1      26.778 -26.608 -26.558  0.00  0.00    -0.046 C 
ATOM     26  C   UNL     1      27.306 -27.560 -27.583  0.00  0.00    -0.079 C 
ATOM     27  C   UNL     1      27.171 -27.476 -28.922  0.00  0.00    +0.007 C 
ATOM     28  C   UNL     1      26.454 -26.409 -29.690  0.00  0.00    -0.035 C 
ENDBRANCH  21  27
ENDBRANCH   1  23
BRANCH  13  29
ATOM     29  C   UNL     1      37.039 -36.184 -30.300  0.00  0.00    +0.010 C 
ATOM     30  C   UNL     1      37.374 -36.877 -28.956  0.00  0.00    -0.049 C 
BRANCH  29  31
ATOM     31  N   UNL     1      38.115 -36.268 -31.323  0.00  0.00    -0.305 N 
ATOM     32  C   UNL     1      39.362 -36.879 -30.848  0.00  0.00    -0.013 C 
ATOM     33  C   UNL     1      38.447 -34.960 -31.900  0.00  0.00    -0.013 C 
ATOM     34  H   UNL     1      37.711 -36.879 -32.033  0.00  0.00    +0.000 HD
ENDBRANCH  29  31
ENDBRANCH  13  29
TORSDOF 4
ENDMDL
MODEL 12
REMARK VINA RESULT:    -6.948      6.467     12.076
REMARK INTER + INTRA:          -9.064
REMARK INTER:                  -8.309
REMARK INTRA:                  -0.755
REMARK UNBOUND:                -0.490
REMARK  Name = cpd186.pdb
REMARK  11 active torsions:
REMARK  status: ('A' for Active; 'I' for Inactive)
REMARK    1  A    between atoms: C_1  and  C_2
REMARK    2  A    between atoms: C_3  and  C_4
REMARK    3  A    between atoms: C_3  and  C_5
REMARK    4  A    between atoms: N_7  and  C_8
REMARK    5  A    between atoms: C_11  and  C_12
REMARK    6  A    between atoms: C_20  and  C_21
REMARK    7  A    between atoms: C_21  and  C_22
REMARK    8  A    between atoms: C_21  and  N_23
REMARK    9  A    between atoms: N_23  and  C_24
REMARK   10  A    between atoms: N_23  and  C_25
REMARK   11  A    between atoms: C_26  and  C_27
REMARK                            x       y       z     vdW  Elec       q    Type
REMARK                         _______ _______ _______ _____ _____    ______ ____
ROOT
ATOM      1  C   UNL     1      30.448 -31.942 -29.501  0.00  0.00    +0.086 C 
ATOM      2  C   UNL     1      29.667 -33.254 -29.385  0.00  0.00    -0.026 C 
ATOM      3  C   UNL     1      30.515 -34.530 -29.385  0.00  0.00    -0.041 C 
ATOM      4  C   UNL     1      31.920 -34.384 -28.750  0.00  0.00    -0.001 C 
ATOM      5  C   UNL     1      31.792 -33.961 -27.267  0.00  0.00    -0.055 C 
ATOM      6  C   UNL     1      32.657 -33.299 -29.523  0.00  0.00    -0.001 C 
ATOM      7  C   UNL     1      33.952 -33.380 -29.875  0.00  0.00    -0.077 C 
ATOM      8  C   UNL     1      34.841 -34.541 -29.560  0.00  0.00    -0.031 C 
ATOM      9  C   UNL     1      34.222 -35.564 -28.592  0.00  0.00    -0.031 C 
ATOM     10  C   UNL     1      34.940 -36.916 -28.698  0.00  0.00    -0.032 C 
ATOM     11  C   UNL     1      36.443 -36.943 -28.444  0.00  0.00    -0.049 C 
ATOM     12  C   UNL     1      36.757 -38.413 -28.131  0.00  0.00    -0.048 C 
ATOM     13  C   UNL     1      35.404 -39.155 -27.942  0.00  0.00    -0.020 C 
ATOM     14  C   UNL     1      34.379 -37.988 -27.743  0.00  0.00    -0.025 C 
ATOM     15  C   UNL     1      34.457 -37.566 -26.244  0.00  0.00    -0.059 C 
ATOM     16  C   UNL     1      32.905 -38.215 -28.105  0.00  0.00    -0.047 C 
ATOM     17  C   UNL     1      32.086 -36.912 -28.056  0.00  0.00    -0.049 C 
ATOM     18  C   UNL     1      32.701 -35.753 -28.882  0.00  0.00    -0.028 C 
ATOM     19  C   UNL     1      31.866 -32.132 -30.045  0.00  0.00    +0.179 C 
ATOM     20  O   UNL     1      32.354 -31.336 -30.852  0.00  0.00    -0.290 OA
ENDROOT
BRANCH   1  23
ATOM     21  C   UNL     1      29.205 -29.829 -29.844  0.00  0.00    +0.240 C 
ATOM     22  O   UNL     1      29.091 -29.592 -28.647  0.00  0.00    -0.271 OA
ATOM     23  N   UNL     1      29.762 -30.973 -30.347  0.00  0.00    -0.302 N 
ATOM     24  H   UNL     1      29.696 -31.148 -31.314  0.00  0.00    +0.000 HD
BRANCH  21  27
ATOM     25  C   UNL     1      27.445 -26.703 -31.345  0.00  0.00    -0.046 C 
ATOM     26  C   UNL     1      28.078 -27.744 -30.479  0.00  0.00    -0.079 C 
ATOM     27  C   UNL     1      28.667 -28.890 -30.877  0.00  0.00    +0.007 C 
ATOM     28  C   UNL     1      28.815 -29.387 -32.282  0.00  0.00    -0.035 C 
ENDBRANCH  21  27
ENDBRANCH   1  23
BRANCH  13  29
ATOM     29  C   UNL     1      35.138 -40.278 -29.013  0.00  0.00    +0.010 C 
ATOM     30  C   UNL     1      36.474 -40.571 -29.740  0.00  0.00    -0.049 C 
BRANCH  29  31
ATOM     31  N   UNL     1      34.429 -41.486 -28.512  0.00  0.00    -0.305 N 
ATOM     32  C   UNL     1      33.140 -41.748 -29.160  0.00  0.00    -0.013 C 
ATOM     33  C   UNL     1      34.204 -41.445 -27.062  0.00  0.00    -0.013 C 
ATOM     34  H   UNL     1      35.068 -42.244 -28.753  0.00  0.00    +0.000 HD
ENDBRANCH  29  31
ENDBRANCH  13  29
TORSDOF 4
ENDMDL
MODEL 13
REMARK VINA RESULT:    -6.828     20.542     22.854
REMARK INTER + INTRA:          -8.915
REMARK INTER:                  -8.186
REMARK INTRA:                  -0.729
REMARK UNBOUND:                -0.490
REMARK  Name = cpd186.pdb
REMARK  11 active torsions:
REMARK  status: ('A' for Active; 'I' for Inactive)
REMARK    1  A    between atoms: C_1  and  C_2
REMARK    2  A    between atoms: C_3  and  C_4
REMARK    3  A    between atoms: C_3  and  C_5
REMARK    4  A    between atoms: N_7  and  C_8
REMARK    5  A    between atoms: C_11  and  C_12
REMARK    6  A    between atoms: C_20  and  C_21
REMARK    7  A    between atoms: C_21  and  C_22
REMARK    8  A    between atoms: C_21  and  N_23
REMARK    9  A    between atoms: N_23  and  C_24
REMARK   10  A    between atoms: N_23  and  C_25
REMARK   11  A    between atoms: C_26  and  C_27
REMARK                            x       y       z     vdW  Elec       q    Type
REMARK                         _______ _______ _______ _____ _____    ______ ____
ROOT
ATOM      1  C   UNL     1      44.854 -19.326 -37.529  0.00  0.00    +0.086 C 
ATOM      2  C   UNL     1      45.046 -19.715 -36.061  0.00  0.00    -0.026 C 
ATOM      3  C   UNL     1      45.134 -18.546 -35.073  0.00  0.00    -0.041 C 
ATOM      4  C   UNL     1      44.304 -17.297 -35.462  0.00  0.00    -0.001 C 
ATOM      5  C   UNL     1      42.803 -17.663 -35.553  0.00  0.00    -0.055 C 
ATOM      6  C   UNL     1      44.795 -16.832 -36.825  0.00  0.00    -0.001 C 
ATOM      7  C   UNL     1      44.983 -15.541 -37.153  0.00  0.00    -0.077 C 
ATOM      8  C   UNL     1      44.737 -14.392 -36.227  0.00  0.00    -0.031 C 
ATOM      9  C   UNL     1      44.031 -14.778 -34.916  0.00  0.00    -0.031 C 
ATOM     10  C   UNL     1      44.250 -13.704 -33.842  0.00  0.00    -0.032 C 
ATOM     11  C   UNL     1      43.808 -12.281 -34.163  0.00  0.00    -0.049 C 
ATOM     12  C   UNL     1      43.689 -11.594 -32.794  0.00  0.00    -0.048 C 
ATOM     13  C   UNL     1      43.797 -12.696 -31.703  0.00  0.00    -0.020 C 
ATOM     14  C   UNL     1      43.555 -14.020 -32.503  0.00  0.00    -0.025 C 
ATOM     15  C   UNL     1      42.012 -14.189 -32.645  0.00  0.00    -0.059 C 
ATOM     16  C   UNL     1      44.140 -15.335 -31.971  0.00  0.00    -0.047 C 
ATOM     17  C   UNL     1      43.997 -16.488 -32.981  0.00  0.00    -0.049 C 
ATOM     18  C   UNL     1      44.544 -16.156 -34.394  0.00  0.00    -0.028 C 
ATOM     19  C   UNL     1      45.229 -17.871 -37.821  0.00  0.00    +0.179 C 
ATOM     20  O   UNL     1      45.831 -17.560 -38.852  0.00  0.00    -0.290 OA
ENDROOT
BRANCH   1  23
ATOM     21  C   UNL     1      45.023 -21.005 -39.340  0.00  0.00    +0.240 C 
ATOM     22  O   UNL     1      43.816 -21.215 -39.386  0.00  0.00    -0.271 OA
ATOM     23  N   UNL     1      45.622 -20.183 -38.424  0.00  0.00    -0.302 N 
ATOM     24  H   UNL     1      46.604 -20.170 -38.368  0.00  0.00    +0.000 HD
BRANCH  21  27
ATOM     25  C   UNL     1      46.312 -22.812 -42.533  0.00  0.00    -0.046 C 
ATOM     26  C   UNL     1      45.540 -22.072 -41.488  0.00  0.00    -0.079 C 
ATOM     27  C   UNL     1      45.970 -21.704 -40.264  0.00  0.00    +0.007 C 
ATOM     28  C   UNL     1      47.320 -21.958 -39.668  0.00  0.00    -0.035 C 
ENDBRANCH  21  27
ENDBRANCH   1  23
BRANCH  13  29
ATOM     29  C   UNL     1      45.056 -12.545 -30.769  0.00  0.00    +0.010 C 
ATOM     30  C   UNL     1      46.084 -11.642 -31.494  0.00  0.00    -0.049 C 
BRANCH  29  31
ATOM     31  N   UNL     1      44.767 -12.149 -29.365  0.00  0.00    -0.305 N 
ATOM     32  C   UNL     1      43.345 -12.170 -29.006  0.00  0.00    -0.013 C 
ATOM     33  C   UNL     1      45.294 -10.819 -29.035  0.00  0.00    -0.013 C 
ATOM     34  H   UNL     1      45.244 -12.867 -28.820  0.00  0.00    +0.000 HD
ENDBRANCH  29  31
ENDBRANCH  13  29
TORSDOF 4
ENDMDL
MODEL 14
REMARK VINA RESULT:    -6.796     19.495     22.253
REMARK INTER + INTRA:          -8.876
REMARK INTER:                  -8.138
REMARK INTRA:                  -0.739
REMARK UNBOUND:                -0.490
REMARK  Name = cpd186.pdb
REMARK  11 active torsions:
REMARK  status: ('A' for Active; 'I' for Inactive)
REMARK    1  A    between atoms: C_1  and  C_2
REMARK    2  A    between atoms: C_3  and  C_4
REMARK    3  A    between atoms: C_3  and  C_5
REMARK    4  A    between atoms: N_7  and  C_8
REMARK    5  A    between atoms: C_11  and  C_12
REMARK    6  A    between atoms: C_20  and  C_21
REMARK    7  A    between atoms: C_21  and  C_22
REMARK    8  A    between atoms: C_21  and  N_23
REMARK    9  A    between atoms: N_23  and  C_24
REMARK   10  A    between atoms: N_23  and  C_25
REMARK   11  A    between atoms: C_26  and  C_27
REMARK                            x       y       z     vdW  Elec       q    Type
REMARK                         _______ _______ _______ _____ _____    ______ ____
ROOT
ATOM      1  C   UNL     1      41.232 -20.765 -36.712  0.00  0.00    +0.086 C 
ATOM      2  C   UNL     1      40.775 -20.106 -38.016  0.00  0.00    -0.026 C 
ATOM      3  C   UNL     1      41.645 -18.946 -38.511  0.00  0.00    -0.041 C 
ATOM      4  C   UNL     1      43.151 -19.064 -38.166  0.00  0.00    -0.001 C 
ATOM      5  C   UNL     1      43.745 -20.342 -38.805  0.00  0.00    -0.055 C 
ATOM      6  C   UNL     1      43.263 -19.156 -36.651  0.00  0.00    -0.001 C 
ATOM      7  C   UNL     1      44.199 -18.516 -35.930  0.00  0.00    -0.077 C 
ATOM      8  C   UNL     1      45.253 -17.628 -36.513  0.00  0.00    -0.031 C 
ATOM      9  C   UNL     1      45.333 -17.669 -38.049  0.00  0.00    -0.031 C 
ATOM     10  C   UNL     1      46.048 -16.425 -38.591  0.00  0.00    -0.032 C 
ATOM     11  C   UNL     1      47.463 -16.148 -38.097  0.00  0.00    -0.049 C 
ATOM     12  C   UNL     1      48.059 -15.195 -39.142  0.00  0.00    -0.048 C 
ATOM     13  C   UNL     1      47.085 -15.153 -40.352  0.00  0.00    -0.020 C 
ATOM     14  C   UNL     1      46.176 -16.408 -40.127  0.00  0.00    -0.025 C 
ATOM     15  C   UNL     1      46.955 -17.638 -40.685  0.00  0.00    -0.059 C 
ATOM     16  C   UNL     1      44.760 -16.424 -40.717  0.00  0.00    -0.047 C 
ATOM     17  C   UNL     1      43.935 -17.625 -40.220  0.00  0.00    -0.049 C 
ATOM     18  C   UNL     1      43.908 -17.773 -38.677  0.00  0.00    -0.028 C 
ATOM     19  C   UNL     1      42.189 -19.891 -35.899  0.00  0.00    +0.179 C 
ATOM     20  O   UNL     1      42.105 -19.822 -34.670  0.00  0.00    -0.290 OA
ENDROOT
BRANCH   1  23
ATOM     21  C   UNL     1      39.901 -22.402 -35.416  0.00  0.00    +0.240 C 
ATOM     22  O   UNL     1      40.535 -23.373 -35.813  0.00  0.00    -0.271 OA
ATOM     23  N   UNL     1      40.104 -21.123 -35.859  0.00  0.00    -0.302 N 
ATOM     24  H   UNL     1      39.468 -20.421 -35.593  0.00  0.00    +0.000 HD
BRANCH  21  27
ATOM     25  C   UNL     1      36.998 -21.387 -33.037  0.00  0.00    -0.046 C 
ATOM     26  C   UNL     1      38.113 -21.453 -34.030  0.00  0.00    -0.079 C 
ATOM     27  C   UNL     1      38.777 -22.553 -34.441  0.00  0.00    +0.007 C 
ATOM     28  C   UNL     1      38.553 -23.962 -33.989  0.00  0.00    -0.035 C 
ENDBRANCH  21  27
ENDBRANCH   1  23
BRANCH  13  29
ATOM     29  C   UNL     1      46.444 -13.737 -40.605  0.00  0.00    +0.010 C 
ATOM     30  C   UNL     1      46.934 -12.784 -39.487  0.00  0.00    -0.049 C 
BRANCH  29  31
ATOM     31  N   UNL     1      46.597 -13.202 -41.984  0.00  0.00    -0.305 N 
ATOM     32  C   UNL     1      47.159 -11.848 -42.054  0.00  0.00    -0.013 C 
ATOM     33  C   UNL     1      45.333 -13.203 -42.732  0.00  0.00    -0.013 C 
ATOM     34  H   UNL     1      47.263 -13.847 -42.409  0.00  0.00    +0.000 HD
ENDBRANCH  29  31
ENDBRANCH  13  29
TORSDOF 4
ENDMDL
MODEL 15
REMARK VINA RESULT:    -6.703     21.791     24.224
REMARK INTER + INTRA:          -8.761
REMARK INTER:                  -8.089
REMARK INTRA:                  -0.672
REMARK UNBOUND:                -0.490
REMARK  Name = cpd186.pdb
REMARK  11 active torsions:
REMARK  status: ('A' for Active; 'I' for Inactive)
REMARK    1  A    between atoms: C_1  and  C_2
REMARK    2  A    between atoms: C_3  and  C_4
REMARK    3  A    between atoms: C_3  and  C_5
REMARK    4  A    between atoms: N_7  and  C_8
REMARK    5  A    between atoms: C_11  and  C_12
REMARK    6  A    between atoms: C_20  and  C_21
REMARK    7  A    between atoms: C_21  and  C_22
REMARK    8  A    between atoms: C_21  and  N_23
REMARK    9  A    between atoms: N_23  and  C_24
REMARK   10  A    between atoms: N_23  and  C_25
REMARK   11  A    between atoms: C_26  and  C_27
REMARK                            x       y       z     vdW  Elec       q    Type
REMARK                         _______ _______ _______ _____ _____    ______ ____
ROOT
ATOM      1  C   UNL     1      56.574 -47.886 -45.749  0.00  0.00    +0.086 C 
ATOM      2  C   UNL     1      56.310 -46.622 -46.572  0.00  0.00    -0.026 C 
ATOM      3  C   UNL     1      54.990 -46.603 -47.351  0.00  0.00    -0.041 C 
ATOM      4  C   UNL     1      53.824 -47.371 -46.680  0.00  0.00    -0.001 C 
ATOM      5  C   UNL     1      53.509 -46.758 -45.295  0.00  0.00    -0.055 C 
ATOM      6  C   UNL     1      54.274 -48.815 -46.503  0.00  0.00    -0.001 C 
ATOM      7  C   UNL     1      53.485 -49.878 -46.734  0.00  0.00    -0.077 C 
ATOM      8  C   UNL     1      52.064 -49.791 -47.195  0.00  0.00    -0.031 C 
ATOM      9  C   UNL     1      51.483 -48.366 -47.178  0.00  0.00    -0.031 C 
ATOM     10  C   UNL     1      50.255 -48.268 -48.093  0.00  0.00    -0.032 C 
ATOM     11  C   UNL     1      49.088 -49.210 -47.817  0.00  0.00    -0.049 C 
ATOM     12  C   UNL     1      47.889 -48.558 -48.521  0.00  0.00    -0.048 C 
ATOM     13  C   UNL     1      48.318 -47.128 -48.956  0.00  0.00    -0.020 C 
ATOM     14  C   UNL     1      49.611 -46.868 -48.112  0.00  0.00    -0.025 C 
ATOM     15  C   UNL     1      49.145 -46.394 -46.702  0.00  0.00    -0.059 C 
ATOM     16  C   UNL     1      50.660 -45.877 -48.634  0.00  0.00    -0.047 C 
ATOM     17  C   UNL     1      51.954 -45.905 -47.800  0.00  0.00    -0.049 C 
ATOM     18  C   UNL     1      52.554 -47.323 -47.622  0.00  0.00    -0.028 C 
ATOM     19  C   UNL     1      55.720 -49.078 -46.187  0.00  0.00    +0.179 C 
ATOM     20  O   UNL     1      56.191 -50.217 -46.241  0.00  0.00    -0.290 OA
ENDROOT
BRANCH   1  23
ATOM     21  C   UNL     1      58.610 -48.858 -44.731  0.00  0.00    +0.240 C 
ATOM     22  O   UNL     1      58.123 -48.941 -43.609  0.00  0.00    -0.271 OA
ATOM     23  N   UNL     1      57.975 -48.285 -45.800  0.00  0.00    -0.302 N 
ATOM     24  H   UNL     1      58.482 -48.138 -46.631  0.00  0.00    +0.000 HD
BRANCH  21  27
ATOM     25  C   UNL     1      62.310 -48.746 -45.922  0.00  0.00    -0.046 C 
ATOM     26  C   UNL     1      60.894 -48.463 -45.534  0.00  0.00    -0.079 C 
ATOM     27  C   UNL     1      60.002 -49.329 -45.011  0.00  0.00    +0.007 C 
ATOM     28  C   UNL     1      60.224 -50.778 -44.707  0.00  0.00    -0.035 C 
ENDBRANCH  21  27
ENDBRANCH   1  23
BRANCH  13  29
ATOM     29  C   UNL     1      48.324 -46.912 -50.516  0.00  0.00    +0.010 C 
ATOM     30  C   UNL     1      47.890 -48.240 -51.184  0.00  0.00    -0.049 C 
BRANCH  29  31
ATOM     31  N   UNL     1      47.594 -45.710 -50.998  0.00  0.00    -0.305 N 
ATOM     32  C   UNL     1      48.396 -44.799 -51.823  0.00  0.00    -0.013 C 
ATOM     33  C   UNL     1      47.012 -44.927 -49.901  0.00  0.00    -0.013 C 
ATOM     34  H   UNL     1      46.859 -46.106 -51.583  0.00  0.00    +0.000 HD
ENDBRANCH  29  31
ENDBRANCH  13  29
TORSDOF 4
ENDMDL
MODEL 16
REMARK VINA RESULT:    -6.701     18.466     21.499
REMARK INTER + INTRA:          -8.759
REMARK INTER:                  -8.048
REMARK INTRA:                  -0.711
REMARK UNBOUND:                -0.490
REMARK  Name = cpd186.pdb
REMARK  11 active torsions:
REMARK  status: ('A' for Active; 'I' for Inactive)
REMARK    1  A    between atoms: C_1  and  C_2
REMARK    2  A    between atoms: C_3  and  C_4
REMARK    3  A    between atoms: C_3  and  C_5
REMARK    4  A    between atoms: N_7  and  C_8
REMARK    5  A    between atoms: C_11  and  C_12
REMARK    6  A    between atoms: C_20  and  C_21
REMARK    7  A    between atoms: C_21  and  C_22
REMARK    8  A    between atoms: C_21  and  N_23
REMARK    9  A    between atoms: N_23  and  C_24
REMARK   10  A    between atoms: N_23  and  C_25
REMARK   11  A    between atoms: C_26  and  C_27
REMARK                            x       y       z     vdW  Elec       q    Type
REMARK                         _______ _______ _______ _____ _____    ______ ____
ROOT
ATOM      1  C   UNL     1      40.319 -18.292 -34.735  0.00  0.00    +0.086 C 
ATOM      2  C   UNL     1      41.052 -19.618 -34.515  0.00  0.00    -0.026 C 
ATOM      3  C   UNL     1      41.909 -20.102 -35.690  0.00  0.00    -0.041 C 
ATOM      4  C   UNL     1      42.543 -18.978 -36.546  0.00  0.00    -0.001 C 
ATOM      5  C   UNL     1      43.475 -18.105 -35.672  0.00  0.00    -0.055 C 
ATOM      6  C   UNL     1      41.405 -18.121 -37.083  0.00  0.00    -0.001 C 
ATOM      7  C   UNL     1      41.357 -17.642 -38.338  0.00  0.00    -0.077 C 
ATOM      8  C   UNL     1      42.408 -17.885 -39.375  0.00  0.00    -0.031 C 
ATOM      9  C   UNL     1      43.685 -18.552 -38.834  0.00  0.00    -0.031 C 
ATOM     10  C   UNL     1      44.482 -19.205 -39.970  0.00  0.00    -0.032 C 
ATOM     11  C   UNL     1      44.922 -18.318 -41.129  0.00  0.00    -0.049 C 
ATOM     12  C   UNL     1      46.065 -19.094 -41.799  0.00  0.00    -0.048 C 
ATOM     13  C   UNL     1      46.444 -20.276 -40.864  0.00  0.00    -0.020 C 
ATOM     14  C   UNL     1      45.785 -19.882 -39.500  0.00  0.00    -0.025 C 
ATOM     15  C   UNL     1      46.761 -18.893 -38.792  0.00  0.00    -0.059 C 
ATOM     16  C   UNL     1      45.407 -20.985 -38.503  0.00  0.00    -0.047 C 
ATOM     17  C   UNL     1      44.578 -20.446 -37.323  0.00  0.00    -0.049 C 
ATOM     18  C   UNL     1      43.337 -19.621 -37.752  0.00  0.00    -0.028 C 
ATOM     19  C   UNL     1      40.198 -17.909 -36.212  0.00  0.00    +0.179 C 
ATOM     20  O   UNL     1      39.163 -17.410 -36.661  0.00  0.00    -0.290 OA
ENDROOT
BRANCH   1  23
ATOM     21  C   UNL     1      38.671 -17.621 -33.014  0.00  0.00    +0.240 C 
ATOM     22  O   UNL     1      39.501 -17.075 -32.297  0.00  0.00    -0.271 OA
ATOM     23  N   UNL     1      38.981 -18.308 -34.157  0.00  0.00    -0.302 N 
ATOM     24  H   UNL     1      38.276 -18.829 -34.605  0.00  0.00    +0.000 HD
BRANCH  21  27
ATOM     25  C   UNL     1      35.022 -18.929 -32.703  0.00  0.00    -0.046 C 
ATOM     26  C   UNL     1      36.485 -18.732 -32.944  0.00  0.00    -0.079 C 
ATOM     27  C   UNL     1      37.220 -17.641 -32.649  0.00  0.00    +0.007 C 
ATOM     28  C   UNL     1      36.738 -16.372 -32.017  0.00  0.00    -0.035 C 
ENDBRANCH  21  27
ENDBRANCH   1  23
BRANCH  13  29
ATOM     29  C   UNL     1      46.188 -21.696 -41.495  0.00  0.00    +0.010 C 
ATOM     30  C   UNL     1      45.195 -21.524 -42.671  0.00  0.00    -0.049 C 
BRANCH  29  31
ATOM     31  N   UNL     1      47.408 -22.479 -41.826  0.00  0.00    -0.305 N 
ATOM     32  C   UNL     1      47.151 -23.737 -42.536  0.00  0.00    -0.013 C 
ATOM     33  C   UNL     1      48.218 -22.788 -40.642  0.00  0.00    -0.013 C 
ATOM     34  H   UNL     1      47.917 -21.857 -42.454  0.00  0.00    +0.000 HD
ENDBRANCH  29  31
ENDBRANCH  13  29
TORSDOF 4
ENDMDL
MODEL 17
REMARK VINA RESULT:    -6.586      7.028     11.208
REMARK INTER + INTRA:          -8.616
REMARK INTER:                  -7.868
REMARK INTRA:                  -0.748
REMARK UNBOUND:                -0.490
REMARK  Name = cpd186.pdb
REMARK  11 active torsions:
REMARK  status: ('A' for Active; 'I' for Inactive)
REMARK    1  A    between atoms: C_1  and  C_2
REMARK    2  A    between atoms: C_3  and  C_4
REMARK    3  A    between atoms: C_3  and  C_5
REMARK    4  A    between atoms: N_7  and  C_8
REMARK    5  A    between atoms: C_11  and  C_12
REMARK    6  A    between atoms: C_20  and  C_21
REMARK    7  A    between atoms: C_21  and  C_22
REMARK    8  A    between atoms: C_21  and  N_23
REMARK    9  A    between atoms: N_23  and  C_24
REMARK   10  A    between atoms: N_23  and  C_25
REMARK   11  A    between atoms: C_26  and  C_27
REMARK                            x       y       z     vdW  Elec       q    Type
REMARK                         _______ _______ _______ _____ _____    ______ ____
ROOT
ATOM      1  C   UNL     1      33.053 -34.144 -29.470  0.00  0.00    +0.086 C 
ATOM      2  C   UNL     1      32.348 -34.162 -28.111  0.00  0.00    -0.026 C 
ATOM      3  C   UNL     1      31.482 -32.937 -27.799  0.00  0.00    -0.041 C 
ATOM      4  C   UNL     1      30.814 -32.277 -29.031  0.00  0.00    -0.001 C 
ATOM      5  C   UNL     1      29.879 -33.289 -29.735  0.00  0.00    -0.055 C 
ATOM      6  C   UNL     1      31.927 -31.867 -29.985  0.00  0.00    -0.001 C 
ATOM      7  C   UNL     1      31.945 -30.702 -30.657  0.00  0.00    -0.077 C 
ATOM      8  C   UNL     1      30.882 -29.654 -30.558  0.00  0.00    -0.031 C 
ATOM      9  C   UNL     1      29.627 -30.100 -29.787  0.00  0.00    -0.031 C 
ATOM     10  C   UNL     1      28.824 -28.885 -29.304  0.00  0.00    -0.032 C 
ATOM     11  C   UNL     1      28.349 -27.886 -30.353  0.00  0.00    -0.049 C 
ATOM     12  C   UNL     1      27.211 -27.116 -29.668  0.00  0.00    -0.048 C 
ATOM     13  C   UNL     1      26.869 -27.859 -28.346  0.00  0.00    -0.020 C 
ATOM     14  C   UNL     1      27.543 -29.259 -28.534  0.00  0.00    -0.025 C 
ATOM     15  C   UNL     1      26.559 -30.126 -29.378  0.00  0.00    -0.059 C 
ATOM     16  C   UNL     1      27.957 -30.065 -27.296  0.00  0.00    -0.047 C 
ATOM     17  C   UNL     1      28.794 -31.304 -27.660  0.00  0.00    -0.049 C 
ATOM     18  C   UNL     1      30.012 -30.994 -28.568  0.00  0.00    -0.028 C 
ATOM     19  C   UNL     1      33.143 -32.745 -30.083  0.00  0.00    +0.179 C 
ATOM     20  O   UNL     1      34.161 -32.366 -30.668  0.00  0.00    -0.290 OA
ENDROOT
BRANCH   1  23
ATOM     21  C   UNL     1      34.698 -35.960 -29.822  0.00  0.00    +0.240 C 
ATOM     22  O   UNL     1      33.856 -36.786 -30.155  0.00  0.00    -0.271 OA
ATOM     23  N   UNL     1      34.400 -34.695 -29.392  0.00  0.00    -0.302 N 
ATOM     24  H   UNL     1      35.120 -34.139 -29.017  0.00  0.00    +0.000 HD
BRANCH  21  27
ATOM     25  C   UNL     1      38.428 -36.056 -30.917  0.00  0.00    -0.046 C 
ATOM     26  C   UNL     1      36.965 -35.801 -30.747  0.00  0.00    -0.079 C 
ATOM     27  C   UNL     1      36.154 -36.302 -29.793  0.00  0.00    +0.007 C 
ATOM     28  C   UNL     1      36.534 -37.236 -28.686  0.00  0.00    -0.035 C 
ENDBRANCH  21  27
ENDBRANCH   1  23
BRANCH  13  29
ATOM     29  C   UNL     1      27.142 -27.008 -27.049  0.00  0.00    +0.010 C 
ATOM     30  C   UNL     1      27.917 -25.735 -27.467  0.00  0.00    -0.049 C 
BRANCH  29  31
ATOM     31  N   UNL     1      25.956 -26.755 -26.188  0.00  0.00    -0.305 N 
ATOM     32  C   UNL     1      25.429 -27.944 -25.510  0.00  0.00    -0.013 C 
ATOM     33  C   UNL     1      24.850 -26.129 -26.923  0.00  0.00    -0.013 C 
ATOM     34  H   UNL     1      26.318 -26.117 -25.479  0.00  0.00    +0.000 HD
ENDBRANCH  29  31
ENDBRANCH  13  29
TORSDOF 4
ENDMDL
MODEL 18
REMARK VINA RESULT:    -6.481      5.140      8.882
REMARK INTER + INTRA:          -8.487
REMARK INTER:                  -7.727
REMARK INTRA:                  -0.760
REMARK UNBOUND:                -0.490
REMARK  Name = cpd186.pdb
REMARK  11 active torsions:
REMARK  status: ('A' for Active; 'I' for Inactive)
REMARK    1  A    between atoms: C_1  and  C_2
REMARK    2  A    between atoms: C_3  and  C_4
REMARK    3  A    between atoms: C_3  and  C_5
REMARK    4  A    between atoms: N_7  and  C_8
REMARK    5  A    between atoms: C_11  and  C_12
REMARK    6  A    between atoms: C_20  and  C_21
REMARK    7  A    between atoms: C_21  and  C_22
REMARK    8  A    between atoms: C_21  and  N_23
REMARK    9  A    between atoms: N_23  and  C_24
REMARK   10  A    between atoms: N_23  and  C_25
REMARK   11  A    between atoms: C_26  and  C_27
REMARK                            x       y       z     vdW  Elec       q    Type
REMARK                         _______ _______ _______ _____ _____    ______ ____
ROOT
ATOM      1  C   UNL     1      34.564 -35.535 -30.080  0.00  0.00    +0.086 C 
ATOM      2  C   UNL     1      33.792 -35.487 -31.401  0.00  0.00    -0.026 C 
ATOM      3  C   UNL     1      32.459 -34.731 -31.362  0.00  0.00    -0.041 C 
ATOM      4  C   UNL     1      32.410 -33.542 -30.370  0.00  0.00    -0.001 C 
ATOM      5  C   UNL     1      33.483 -32.492 -30.745  0.00  0.00    -0.055 C 
ATOM      6  C   UNL     1      32.707 -34.095 -28.984  0.00  0.00    -0.001 C 
ATOM      7  C   UNL     1      32.052 -33.718 -27.871  0.00  0.00    -0.077 C 
ATOM      8  C   UNL     1      30.947 -32.710 -27.844  0.00  0.00    -0.031 C 
ATOM      9  C   UNL     1      30.751 -31.954 -29.169  0.00  0.00    -0.031 C 
ATOM     10  C   UNL     1      29.351 -31.330 -29.238  0.00  0.00    -0.032 C 
ATOM     11  C   UNL     1      28.950 -30.362 -28.130  0.00  0.00    -0.049 C 
ATOM     12  C   UNL     1      27.778 -29.563 -28.718  0.00  0.00    -0.048 C 
ATOM     13  C   UNL     1      27.699 -29.890 -30.235  0.00  0.00    -0.020 C 
ATOM     14  C   UNL     1      29.090 -30.542 -30.537  0.00  0.00    -0.025 C 
ATOM     15  C   UNL     1      30.101 -29.375 -30.752  0.00  0.00    -0.059 C 
ATOM     16  C   UNL     1      29.221 -31.519 -31.713  0.00  0.00    -0.047 C 
ATOM     17  C   UNL     1      30.588 -32.227 -31.732  0.00  0.00    -0.049 C 
ATOM     18  C   UNL     1      30.963 -32.904 -30.388  0.00  0.00    -0.028 C 
ATOM     19  C   UNL     1      33.690 -35.226 -28.861  0.00  0.00    +0.179 C 
ATOM     20  O   UNL     1      33.815 -35.856 -27.808  0.00  0.00    -0.290 OA
ENDROOT
BRANCH   1  23
ATOM     21  C   UNL     1      36.546 -36.955 -29.653  0.00  0.00    +0.240 C 
ATOM     22  O   UNL     1      37.348 -36.036 -29.775  0.00  0.00    -0.271 OA
ATOM     23  N   UNL     1      35.200 -36.830 -29.868  0.00  0.00    -0.302 N 
ATOM     24  H   UNL     1      34.643 -37.641 -29.879  0.00  0.00    +0.000 HD
BRANCH  21  27
ATOM     25  C   UNL     1      36.533 -40.841 -29.500  0.00  0.00    -0.046 C 
ATOM     26  C   UNL     1      36.276 -39.391 -29.761  0.00  0.00    -0.079 C 
ATOM     27  C   UNL     1      36.997 -38.341 -29.318  0.00  0.00    +0.007 C 
ATOM     28  C   UNL     1      38.220 -38.388 -28.455  0.00  0.00    -0.035 C 
ENDBRANCH  21  27
ENDBRANCH   1  23
BRANCH  13  29
ATOM     29  C   UNL     1      26.367 -30.615 -30.661  0.00  0.00    +0.010 C 
ATOM     30  C   UNL     1      25.526 -30.860 -29.384  0.00  0.00    -0.049 C 
BRANCH  29  31
ATOM     31  N   UNL     1      25.621 -29.979 -31.780  0.00  0.00    -0.305 N 
ATOM     32  C   UNL     1      26.159 -30.268 -33.114  0.00  0.00    -0.013 C 
ATOM     33  C   UNL     1      25.531 -28.520 -31.638  0.00  0.00    -0.013 C 
ATOM     34  H   UNL     1      24.696 -30.402 -31.710  0.00  0.00    +0.000 HD
ENDBRANCH  29  31
ENDBRANCH  13  29
TORSDOF 4
ENDMDL
MODEL 19
REMARK VINA RESULT:    -6.265     20.283     22.449
REMARK INTER + INTRA:          -8.220
REMARK INTER:                  -7.504
REMARK INTRA:                  -0.716
REMARK UNBOUND:                -0.490
REMARK  Name = cpd186.pdb
REMARK  11 active torsions:
REMARK  status: ('A' for Active; 'I' for Inactive)
REMARK    1  A    between atoms: C_1  and  C_2
REMARK    2  A    between atoms: C_3  and  C_4
REMARK    3  A    between atoms: C_3  and  C_5
REMARK    4  A    between atoms: N_7  and  C_8
REMARK    5  A    between atoms: C_11  and  C_12
REMARK    6  A    between atoms: C_20  and  C_21
REMARK    7  A    between atoms: C_21  and  C_22
REMARK    8  A    between atoms: C_21  and  N_23
REMARK    9  A    between atoms: N_23  and  C_24
REMARK   10  A    between atoms: N_23  and  C_25
REMARK   11  A    between atoms: C_26  and  C_27
REMARK                            x       y       z     vdW  Elec       q    Type
REMARK                         _______ _______ _______ _____ _____    ______ ____
ROOT
ATOM      1  C   UNL     1      46.791 -16.138 -40.796  0.00  0.00    +0.086 C 
ATOM      2  C   UNL     1      47.301 -16.914 -39.578  0.00  0.00    -0.026 C 
ATOM      3  C   UNL     1      46.222 -17.595 -38.729  0.00  0.00    -0.041 C 
ATOM      4  C   UNL     1      44.979 -18.079 -39.516  0.00  0.00    -0.001 C 
ATOM      5  C   UNL     1      45.396 -19.118 -40.584  0.00  0.00    -0.055 C 
ATOM      6  C   UNL     1      44.374 -16.863 -40.203  0.00  0.00    -0.001 C 
ATOM      7  C   UNL     1      43.053 -16.624 -40.275  0.00  0.00    -0.077 C 
ATOM      8  C   UNL     1      42.001 -17.514 -39.692  0.00  0.00    -0.031 C 
ATOM      9  C   UNL     1      42.531 -18.866 -39.182  0.00  0.00    -0.031 C 
ATOM     10  C   UNL     1      41.549 -19.495 -38.186  0.00  0.00    -0.032 C 
ATOM     11  C   UNL     1      40.122 -19.747 -38.660  0.00  0.00    -0.049 C 
ATOM     12  C   UNL     1      39.566 -20.789 -37.680  0.00  0.00    -0.048 C 
ATOM     13  C   UNL     1      40.755 -21.319 -36.830  0.00  0.00    -0.020 C 
ATOM     14  C   UNL     1      42.011 -20.862 -37.645  0.00  0.00    -0.025 C 
ATOM     15  C   UNL     1      42.231 -21.918 -38.771  0.00  0.00    -0.059 C 
ATOM     16  C   UNL     1      43.343 -20.651 -36.913  0.00  0.00    -0.047 C 
ATOM     17  C   UNL     1      44.407 -19.998 -37.815  0.00  0.00    -0.049 C 
ATOM     18  C   UNL     1      43.928 -18.696 -38.508  0.00  0.00    -0.028 C 
ATOM     19  C   UNL     1      45.302 -15.795 -40.711  0.00  0.00    +0.179 C 
ATOM     20  O   UNL     1      44.876 -14.698 -41.081  0.00  0.00    -0.290 OA
ENDROOT
BRANCH   1  23
ATOM     21  C   UNL     1      48.477 -14.769 -41.984  0.00  0.00    +0.240 C 
ATOM     22  O   UNL     1      48.894 -15.701 -42.662  0.00  0.00    -0.271 OA
ATOM     23  N   UNL     1      47.533 -14.900 -41.001  0.00  0.00    -0.302 N 
ATOM     24  H   UNL     1      47.349 -14.132 -40.414  0.00  0.00    +0.000 HD
BRANCH  21  27
ATOM     25  C   UNL     1      51.026 -11.950 -42.810  0.00  0.00    -0.046 C 
ATOM     26  C   UNL     1      50.279 -13.233 -42.625  0.00  0.00    -0.079 C 
ATOM     27  C   UNL     1      49.033 -13.388 -42.134  0.00  0.00    +0.007 C 
ATOM     28  C   UNL     1      48.112 -12.309 -41.655  0.00  0.00    -0.035 C 
ENDBRANCH  21  27
ENDBRANCH   1  23
BRANCH  13  29
ATOM     29  C   UNL     1      40.636 -20.992 -35.294  0.00  0.00    +0.010 C 
ATOM     30  C   UNL     1      39.217 -20.429 -35.034  0.00  0.00    -0.049 C 
BRANCH  29  31
ATOM     31  N   UNL     1      41.046 -22.086 -34.373  0.00  0.00    -0.305 N 
ATOM     32  C   UNL     1      40.016 -23.104 -34.140  0.00  0.00    -0.013 C 
ATOM     33  C   UNL     1      41.488 -21.585 -33.066  0.00  0.00    -0.013 C 
ATOM     34  H   UNL     1      41.822 -22.524 -34.868  0.00  0.00    +0.000 HD
ENDBRANCH  29  31
ENDBRANCH  13  29
TORSDOF 4
ENDMDL
MODEL 20
REMARK VINA RESULT:    -6.005     26.649     28.988
REMARK INTER + INTRA:          -7.900
REMARK INTER:                  -7.220
REMARK INTRA:                  -0.680
REMARK UNBOUND:                -0.490
REMARK  Name = cpd186.pdb
REMARK  11 active torsions:
REMARK  status: ('A' for Active; 'I' for Inactive)
REMARK    1  A    between atoms: C_1  and  C_2
REMARK    2  A    between atoms: C_3  and  C_4
REMARK    3  A    between atoms: C_3  and  C_5
REMARK    4  A    between atoms: N_7  and  C_8
REMARK    5  A    between atoms: C_11  and  C_12
REMARK    6  A    between atoms: C_20  and  C_21
REMARK    7  A    between atoms: C_21  and  C_22
REMARK    8  A    between atoms: C_21  and  N_23
REMARK    9  A    between atoms: N_23  and  C_24
REMARK   10  A    between atoms: N_23  and  C_25
REMARK   11  A    between atoms: C_26  and  C_27
REMARK                            x       y       z     vdW  Elec       q    Type
REMARK                         _______ _______ _______ _____ _____    ______ ____
ROOT
ATOM      1  C   UNL     1      47.569 -26.207 -56.970  0.00  0.00    +0.086 C 
ATOM      2  C   UNL     1      48.245 -26.822 -55.741  0.00  0.00    -0.026 C 
ATOM      3  C   UNL     1      47.847 -28.267 -55.421  0.00  0.00    -0.041 C 
ATOM      4  C   UNL     1      47.495 -29.138 -56.653  0.00  0.00    -0.001 C 
ATOM      5  C   UNL     1      48.714 -29.234 -57.601  0.00  0.00    -0.055 C 
ATOM      6  C   UNL     1      46.344 -28.454 -57.378  0.00  0.00    -0.001 C 
ATOM      7  C   UNL     1      45.293 -29.112 -57.899  0.00  0.00    -0.077 C 
ATOM      8  C   UNL     1      45.111 -30.595 -57.838  0.00  0.00    -0.031 C 
ATOM      9  C   UNL     1      46.341 -31.361 -57.319  0.00  0.00    -0.031 C 
ATOM     10  C   UNL     1      45.944 -32.757 -56.822  0.00  0.00    -0.032 C 
ATOM     11  C   UNL     1      45.245 -33.688 -57.806  0.00  0.00    -0.049 C 
ATOM     12  C   UNL     1      45.434 -35.092 -57.213  0.00  0.00    -0.048 C 
ATOM     13  C   UNL     1      46.460 -34.979 -56.052  0.00  0.00    -0.020 C 
ATOM     14  C   UNL     1      47.133 -33.587 -56.300  0.00  0.00    -0.025 C 
ATOM     15  C   UNL     1      48.241 -33.803 -57.375  0.00  0.00    -0.059 C 
ATOM     16  C   UNL     1      47.749 -32.830 -55.116  0.00  0.00    -0.047 C 
ATOM     17  C   UNL     1      48.167 -31.397 -55.494  0.00  0.00    -0.049 C 
ATOM     18  C   UNL     1      47.041 -30.573 -56.169  0.00  0.00    -0.028 C 
ATOM     19  C   UNL     1      46.302 -26.952 -57.396  0.00  0.00    +0.179 C 
ATOM     20  O   UNL     1      45.298 -26.343 -57.775  0.00  0.00    -0.290 OA
ENDROOT
BRANCH   1  23
ATOM     21  C   UNL     1      48.079 -23.787 -57.081  0.00  0.00    +0.240 C 
ATOM     22  O   UNL     1      49.245 -23.952 -57.421  0.00  0.00    -0.271 OA
ATOM     23  N   UNL     1      47.225 -24.806 -56.757  0.00  0.00    -0.302 N 
ATOM     24  H   UNL     1      46.348 -24.586 -56.368  0.00  0.00    +0.000 HD
BRANCH  21  27
ATOM     25  C   UNL     1      46.670 -20.622 -55.316  0.00  0.00    -0.046 C 
ATOM     26  C   UNL     1      47.275 -21.939 -55.683  0.00  0.00    -0.079 C 
ATOM     27  C   UNL     1      47.502 -22.416 -56.923  0.00  0.00    +0.007 C 
ATOM     28  C   UNL     1      47.192 -21.736 -58.221  0.00  0.00    -0.035 C 
ENDBRANCH  21  27
ENDBRANCH   1  23
BRANCH  13  29
ATOM     29  C   UNL     1      45.866 -35.339 -54.639  0.00  0.00    +0.010 C 
ATOM     30  C   UNL     1      44.336 -35.523 -54.796  0.00  0.00    -0.049 C 
BRANCH  29  31
ATOM     31  N   UNL     1      46.551 -36.445 -53.919  0.00  0.00    -0.305 N 
ATOM     32  C   UNL     1      46.868 -37.610 -54.752  0.00  0.00    -0.013 C 
ATOM     33  C   UNL     1      45.789 -36.919 -52.757  0.00  0.00    -0.013 C 
ATOM     34  H   UNL     1      47.428 -36.018 -53.620  0.00  0.00    +0.000 HD
ENDBRANCH  29  31
ENDBRANCH  13  29
TORSDOF 4
ENDMDL
