REMARK  Name = cpd358.pdb
REMARK  4 active torsions:
REMARK  status: ('A' for Active; 'I' for Inactive)
REMARK    1  A    between atoms: C_6  and  C_7
REMARK    2  A    between atoms: C_7  and  N_8
REMARK    3  A    between atoms: C_11  and  C_12
REMARK    4  A    between atoms: C_12  and  N_13
REMARK                            x       y       z     vdW  Elec       q    Type
REMARK                         _______ _______ _______ _____ _____    ______ ____
ROOT
ATOM      1  N   UNL A   1       3.595  -1.618   0.508  0.00  0.00    -0.349 N 
ATOM      2  C   UNL A   1       3.538  -1.323  -0.812  0.00  0.00    +0.005 A 
ATOM      3  C   UNL A   1       2.343  -1.436  -1.516  0.00  0.00    -0.041 A 
ATOM      4  C   UNL A   1       1.180  -1.846  -0.860  0.00  0.00    -0.025 A 
ATOM      5  C   UNL A   1       1.276  -2.165   0.498  0.00  0.00    -0.041 A 
ATOM      6  C   UNL A   1       2.489  -2.034   1.165  0.00  0.00    +0.005 A 
ENDROOT
BRANCH   1   7
ATOM      7  C   UNL A   1       4.877  -1.471   1.239  0.00  0.00    +0.048 C 
BRANCH   7  13
ATOM      8  F   UNL A   1       8.878  -3.131  -1.009  0.00  0.00    -0.205 F 
ATOM      9  C   UNL A   1       7.813  -3.386  -0.240  0.00  0.00    +0.124 A 
ATOM     10  C   UNL A   1       7.581  -4.678   0.209  0.00  0.00    -0.026 A 
ATOM     11  C   UNL A   1       6.470  -4.936   1.008  0.00  0.00    -0.059 A 
ATOM     12  C   UNL A   1       5.595  -3.899   1.348  0.00  0.00    -0.057 A 
ATOM     13  C   UNL A   1       5.825  -2.590   0.891  0.00  0.00    -0.025 A 
ATOM     14  C   UNL A   1       6.952  -2.343   0.092  0.00  0.00    -0.022 A 
ENDBRANCH   7  13
ENDBRANCH   1   7
BRANCH   4  15
ATOM     15  C   UNL A   1      -0.125  -1.970  -1.625  0.00  0.00    +0.049 C 
BRANCH  15  16
ATOM     16  N   UNL A   1      -1.246  -1.386  -0.897  0.00  0.00    -0.339 N 
ATOM     17  C   UNL A   1      -1.537  -0.044  -0.830  0.00  0.00    +0.023 A 
ATOM     18  C   UNL A   1      -2.652   0.114  -0.030  0.00  0.00    -0.019 A 
ATOM     19  C   UNL A   1      -3.059  -1.175   0.407  0.00  0.00    +0.003 A 
ATOM     20  C   UNL A   1      -4.106  -1.640   1.228  0.00  0.00    -0.052 A 
ATOM     21  C   UNL A   1      -4.251  -3.011   1.456  0.00  0.00    -0.061 A 
ATOM     22  C   UNL A   1      -3.371  -3.919   0.878  0.00  0.00    -0.060 A 
ATOM     23  C   UNL A   1      -2.322  -3.485   0.062  0.00  0.00    -0.038 A 
ATOM     24  C   UNL A   1      -2.178  -2.104  -0.161  0.00  0.00    +0.050 A 
ATOM     25  C   UNL A   1      -3.252   1.448   0.270  0.00  0.00    -0.025 C 
ATOM     26  C   UNL A   1      -2.756   2.516  -0.721  0.00  0.00    -0.049 C 
ATOM     27  C   UNL A   1      -1.238   2.422  -0.954  0.00  0.00    -0.047 C 
ATOM     28  C   UNL A   1      -0.823   1.060  -1.538  0.00  0.00    -0.012 C 
ENDBRANCH  15  16
ENDBRANCH   4  15
TORSDOF 4
