MODEL 1
REMARK VINA RESULT:    -8.270      0.000      0.000
REMARK INTER + INTRA:         -10.963
REMARK INTER:                 -10.204
REMARK INTRA:                  -0.759
REMARK UNBOUND:                -0.759
REMARK  Name = cpd358.pdb
REMARK  4 active torsions:
REMARK  status: ('A' for Active; 'I' for Inactive)
REMARK    1  A    between atoms: C_6  and  C_7
REMARK    2  A    between atoms: C_7  and  N_8
REMARK    3  A    between atoms: C_11  and  C_12
REMARK    4  A    between atoms: C_12  and  N_13
REMARK                            x       y       z     vdW  Elec       q    Type
REMARK                         _______ _______ _______ _____ _____    ______ ____
ROOT
ATOM      1  N   UNL A   1      43.948 -20.829 -40.360  0.00  0.00    -0.349 N 
ATOM      2  C   UNL A   1      43.651 -20.899 -39.041  0.00  0.00    +0.005 A 
ATOM      3  C   UNL A   1      42.431 -21.412 -38.612  0.00  0.00    -0.041 A 
ATOM      4  C   UNL A   1      41.499 -21.874 -39.544  0.00  0.00    -0.025 A 
ATOM      5  C   UNL A   1      41.825 -21.767 -40.899  0.00  0.00    -0.041 A 
ATOM      6  C   UNL A   1      43.058 -21.253 -41.286  0.00  0.00    +0.005 A 
ENDROOT
BRANCH   1   7
ATOM      7  C   UNL A   1      45.263 -20.296 -40.790  0.00  0.00    +0.048 C 
BRANCH   7  13
ATOM      8  F   UNL A   1      46.971 -24.363 -42.878  0.00  0.00    -0.205 F 
ATOM      9  C   UNL A   1      47.106 -23.420 -41.938  0.00  0.00    +0.124 A 
ATOM     10  C   UNL A   1      48.169 -23.481 -41.049  0.00  0.00    -0.026 A 
ATOM     11  C   UNL A   1      48.302 -22.497 -40.072  0.00  0.00    -0.059 A 
ATOM     12  C   UNL A   1      47.366 -21.461 -39.989  0.00  0.00    -0.057 A 
ATOM     13  C   UNL A   1      46.285 -21.399 -40.885  0.00  0.00    -0.025 A 
ATOM     14  C   UNL A   1      46.167 -22.394 -41.868  0.00  0.00    -0.022 A 
ENDBRANCH   7  13
ENDBRANCH   1   7
BRANCH   4  15
ATOM     15  C   UNL A   1      40.167 -22.434 -39.079  0.00  0.00    +0.049 C 
BRANCH  15  16
ATOM     16  N   UNL A   1      39.514 -21.563 -38.108  0.00  0.00    -0.339 N 
ATOM     17  C   UNL A   1      39.119 -20.267 -38.343  0.00  0.00    +0.023 A 
ATOM     18  C   UNL A   1      38.566 -19.770 -37.179  0.00  0.00    -0.019 A 
ATOM     19  C   UNL A   1      38.623 -20.796 -36.198  0.00  0.00    +0.003 A 
ATOM     20  C   UNL A   1      38.224 -20.877 -34.849  0.00  0.00    -0.052 A 
ATOM     21  C   UNL A   1      38.406 -22.069 -34.143  0.00  0.00    -0.061 A 
ATOM     22  C   UNL A   1      38.977 -23.175 -34.762  0.00  0.00    -0.060 A 
ATOM     23  C   UNL A   1      39.385 -23.121 -36.098  0.00  0.00    -0.038 A 
ATOM     24  C   UNL A   1      39.203 -21.918 -36.803  0.00  0.00    +0.050 A 
ATOM     25  C   UNL A   1      38.030 -18.381 -37.065  0.00  0.00    -0.025 C 
ATOM     26  C   UNL A   1      37.793 -17.761 -38.454  0.00  0.00    -0.049 C 
ATOM     27  C   UNL A   1      38.971 -18.025 -39.409  0.00  0.00    -0.047 C 
ATOM     28  C   UNL A   1      39.207 -19.529 -39.638  0.00  0.00    -0.012 C 
ENDBRANCH  15  16
ENDBRANCH   4  15
TORSDOF 4
ENDMDL
MODEL 2
REMARK VINA RESULT:    -8.162      0.281      3.047
REMARK INTER + INTRA:         -10.830
REMARK INTER:                  -9.943
REMARK INTRA:                  -0.887
REMARK UNBOUND:                -0.759
REMARK  Name = cpd358.pdb
REMARK  4 active torsions:
REMARK  status: ('A' for Active; 'I' for Inactive)
REMARK    1  A    between atoms: C_6  and  C_7
REMARK    2  A    between atoms: C_7  and  N_8
REMARK    3  A    between atoms: C_11  and  C_12
REMARK    4  A    between atoms: C_12  and  N_13
REMARK                            x       y       z     vdW  Elec       q    Type
REMARK                         _______ _______ _______ _____ _____    ______ ____
ROOT
ATOM      1  N   UNL A   1      43.889 -20.774 -40.244  0.00  0.00    -0.349 N 
ATOM      2  C   UNL A   1      43.653 -20.840 -38.913  0.00  0.00    +0.005 A 
ATOM      3  C   UNL A   1      42.462 -21.371 -38.427  0.00  0.00    -0.041 A 
ATOM      4  C   UNL A   1      41.498 -21.856 -39.313  0.00  0.00    -0.025 A 
ATOM      5  C   UNL A   1      41.762 -21.753 -40.683  0.00  0.00    -0.041 A 
ATOM      6  C   UNL A   1      42.967 -21.220 -41.126  0.00  0.00    +0.005 A 
ENDROOT
BRANCH   1   7
ATOM      7  C   UNL A   1      45.175 -20.221 -40.736  0.00  0.00    +0.048 C 
BRANCH   7  13
ATOM      8  F   UNL A   1      47.059 -24.229 -42.788  0.00  0.00    -0.205 F 
ATOM      9  C   UNL A   1      47.139 -23.287 -41.840  0.00  0.00    +0.124 A 
ATOM     10  C   UNL A   1      48.176 -23.322 -40.920  0.00  0.00    -0.026 A 
ATOM     11  C   UNL A   1      48.252 -22.340 -39.936  0.00  0.00    -0.059 A 
ATOM     12  C   UNL A   1      47.285 -21.331 -39.876  0.00  0.00    -0.057 A 
ATOM     13  C   UNL A   1      46.230 -21.295 -40.804  0.00  0.00    -0.025 A 
ATOM     14  C   UNL A   1      46.170 -22.288 -41.795  0.00  0.00    -0.022 A 
ENDBRANCH   7  13
ENDBRANCH   1   7
BRANCH   4  15
ATOM     15  C   UNL A   1      40.198 -22.435 -38.786  0.00  0.00    +0.049 C 
BRANCH  15  16
ATOM     16  N   UNL A   1      39.529 -21.530 -37.858  0.00  0.00    -0.339 N 
ATOM     17  C   UNL A   1      39.269 -21.798 -36.535  0.00  0.00    +0.023 A 
ATOM     18  C   UNL A   1      38.603 -20.713 -36.000  0.00  0.00    -0.019 A 
ATOM     19  C   UNL A   1      38.451 -19.746 -37.030  0.00  0.00    +0.003 A 
ATOM     20  C   UNL A   1      37.863 -18.466 -37.086  0.00  0.00    -0.052 A 
ATOM     21  C   UNL A   1      37.896 -17.740 -38.279  0.00  0.00    -0.061 A 
ATOM     22  C   UNL A   1      38.505 -18.271 -39.411  0.00  0.00    -0.060 A 
ATOM     23  C   UNL A   1      39.093 -19.539 -39.384  0.00  0.00    -0.038 A 
ATOM     24  C   UNL A   1      39.054 -20.267 -38.182  0.00  0.00    +0.050 A 
ATOM     25  C   UNL A   1      38.156 -20.657 -34.576  0.00  0.00    -0.025 C 
ATOM     26  C   UNL A   1      38.876 -21.719 -33.726  0.00  0.00    -0.049 C 
ATOM     27  C   UNL A   1      38.926 -23.084 -34.434  0.00  0.00    -0.047 C 
ATOM     28  C   UNL A   1      39.678 -23.016 -35.775  0.00  0.00    -0.012 C 
ENDBRANCH  15  16
ENDBRANCH   4  15
TORSDOF 4
ENDMDL
MODEL 3
REMARK VINA RESULT:    -8.133     16.199     18.718
REMARK INTER + INTRA:         -10.794
REMARK INTER:                  -9.841
REMARK INTRA:                  -0.953
REMARK UNBOUND:                -0.759
REMARK  Name = cpd358.pdb
REMARK  4 active torsions:
REMARK  status: ('A' for Active; 'I' for Inactive)
REMARK    1  A    between atoms: C_6  and  C_7
REMARK    2  A    between atoms: C_7  and  N_8
REMARK    3  A    between atoms: C_11  and  C_12
REMARK    4  A    between atoms: C_12  and  N_13
REMARK                            x       y       z     vdW  Elec       q    Type
REMARK                         _______ _______ _______ _____ _____    ______ ____
ROOT
ATOM      1  N   UNL A   1      37.613 -38.254 -28.743  0.00  0.00    -0.349 N 
ATOM      2  C   UNL A   1      37.053 -37.386 -27.868  0.00  0.00    +0.005 A 
ATOM      3  C   UNL A   1      35.725 -36.994 -28.006  0.00  0.00    -0.041 A 
ATOM      4  C   UNL A   1      34.949 -37.505 -29.048  0.00  0.00    -0.025 A 
ATOM      5  C   UNL A   1      35.562 -38.382 -29.948  0.00  0.00    -0.041 A 
ATOM      6  C   UNL A   1      36.891 -38.752 -29.771  0.00  0.00    +0.005 A 
ENDROOT
BRANCH   1   7
ATOM      7  C   UNL A   1      39.025 -38.671 -28.562  0.00  0.00    +0.048 C 
BRANCH   7  13
ATOM      8  F   UNL A   1      39.751 -35.336 -32.050  0.00  0.00    -0.205 F 
ATOM      9  C   UNL A   1      40.250 -36.313 -31.285  0.00  0.00    +0.124 A 
ATOM     10  C   UNL A   1      41.578 -36.689 -31.427  0.00  0.00    -0.026 A 
ATOM     11  C   UNL A   1      42.091 -37.708 -30.629  0.00  0.00    -0.059 A 
ATOM     12  C   UNL A   1      41.269 -38.348 -29.696  0.00  0.00    -0.057 A 
ATOM     13  C   UNL A   1      39.922 -37.973 -29.553  0.00  0.00    -0.025 A 
ATOM     14  C   UNL A   1      39.420 -36.940 -30.360  0.00  0.00    -0.022 A 
ENDBRANCH   7  13
ENDBRANCH   1   7
BRANCH   4  15
ATOM     15  C   UNL A   1      33.500 -37.079 -29.201  0.00  0.00    +0.049 C 
BRANCH  15  16
ATOM     16  N   UNL A   1      33.308 -36.181 -30.334  0.00  0.00    -0.339 N 
ATOM     17  C   UNL A   1      32.847 -36.554 -31.574  0.00  0.00    +0.023 A 
ATOM     18  C   UNL A   1      32.828 -35.432 -32.380  0.00  0.00    -0.019 A 
ATOM     19  C   UNL A   1      33.292 -34.334 -31.607  0.00  0.00    +0.003 A 
ATOM     20  C   UNL A   1      33.492 -32.966 -31.880  0.00  0.00    -0.052 A 
ATOM     21  C   UNL A   1      33.956 -32.119 -30.870  0.00  0.00    -0.061 A 
ATOM     22  C   UNL A   1      34.220 -32.616 -29.599  0.00  0.00    -0.060 A 
ATOM     23  C   UNL A   1      34.034 -33.969 -29.302  0.00  0.00    -0.038 A 
ATOM     24  C   UNL A   1      33.571 -34.818 -30.323  0.00  0.00    +0.050 A 
ATOM     25  C   UNL A   1      32.384 -35.465 -33.805  0.00  0.00    -0.025 C 
ATOM     26  C   UNL A   1      31.588 -36.747 -34.110  0.00  0.00    -0.049 C 
ATOM     27  C   UNL A   1      32.260 -37.996 -33.514  0.00  0.00    -0.047 C 
ATOM     28  C   UNL A   1      32.385 -37.914 -31.982  0.00  0.00    -0.012 C 
ENDBRANCH  15  16
ENDBRANCH   4  15
TORSDOF 4
ENDMDL
MODEL 4
REMARK VINA RESULT:    -8.088     17.286     19.682
REMARK INTER + INTRA:         -10.738
REMARK INTER:                 -10.227
REMARK INTRA:                  -0.511
REMARK UNBOUND:                -0.759
REMARK  Name = cpd358.pdb
REMARK  4 active torsions:
REMARK  status: ('A' for Active; 'I' for Inactive)
REMARK    1  A    between atoms: C_6  and  C_7
REMARK    2  A    between atoms: C_7  and  N_8
REMARK    3  A    between atoms: C_11  and  C_12
REMARK    4  A    between atoms: C_12  and  N_13
REMARK                            x       y       z     vdW  Elec       q    Type
REMARK                         _______ _______ _______ _____ _____    ______ ____
ROOT
ATOM      1  N   UNL A   1      38.239 -38.045 -28.751  0.00  0.00    -0.349 N 
ATOM      2  C   UNL A   1      37.491 -36.917 -28.784  0.00  0.00    +0.005 A 
ATOM      3  C   UNL A   1      36.101 -36.984 -28.789  0.00  0.00    -0.041 A 
ATOM      4  C   UNL A   1      35.460 -38.224 -28.747  0.00  0.00    -0.025 A 
ATOM      5  C   UNL A   1      36.259 -39.371 -28.735  0.00  0.00    -0.041 A 
ATOM      6  C   UNL A   1      37.645 -39.260 -28.727  0.00  0.00    +0.005 A 
ENDROOT
BRANCH   1   7
ATOM      7  C   UNL A   1      39.718 -37.946 -28.727  0.00  0.00    +0.048 C 
BRANCH   7  13
ATOM      8  F   UNL A   1      39.228 -35.516 -32.931  0.00  0.00    -0.205 F 
ATOM      9  C   UNL A   1      39.975 -36.305 -32.150  0.00  0.00    +0.124 A 
ATOM     10  C   UNL A   1      41.217 -36.736 -32.594  0.00  0.00    -0.026 A 
ATOM     11  C   UNL A   1      41.988 -37.558 -31.776  0.00  0.00    -0.059 A 
ATOM     12  C   UNL A   1      41.509 -37.948 -30.521  0.00  0.00    -0.057 A 
ATOM     13  C   UNL A   1      40.249 -37.516 -30.071  0.00  0.00    -0.025 A 
ATOM     14  C   UNL A   1      39.485 -36.683 -30.903  0.00  0.00    -0.022 A 
ENDBRANCH   7  13
ENDBRANCH   1   7
BRANCH   4  15
ATOM     15  C   UNL A   1      33.944 -38.300 -28.752  0.00  0.00    +0.049 C 
BRANCH  15  16
ATOM     16  N   UNL A   1      33.338 -37.241 -27.953  0.00  0.00    -0.339 N 
ATOM     17  C   UNL A   1      32.726 -36.117 -28.456  0.00  0.00    +0.023 A 
ATOM     18  C   UNL A   1      32.304 -35.345 -27.391  0.00  0.00    -0.019 A 
ATOM     19  C   UNL A   1      32.668 -36.019 -26.195  0.00  0.00    +0.003 A 
ATOM     20  C   UNL A   1      32.510 -35.726 -24.825  0.00  0.00    -0.052 A 
ATOM     21  C   UNL A   1      32.976 -36.630 -23.866  0.00  0.00    -0.061 A 
ATOM     22  C   UNL A   1      33.592 -37.814 -24.253  0.00  0.00    -0.060 A 
ATOM     23  C   UNL A   1      33.765 -38.128 -25.604  0.00  0.00    -0.038 A 
ATOM     24  C   UNL A   1      33.298 -37.213 -26.566  0.00  0.00    +0.050 A 
ATOM     25  C   UNL A   1      31.599 -34.040 -27.565  0.00  0.00    -0.025 C 
ATOM     26  C   UNL A   1      31.052 -33.891 -28.996  0.00  0.00    -0.049 C 
ATOM     27  C   UNL A   1      32.083 -34.322 -30.053  0.00  0.00    -0.047 C 
ATOM     28  C   UNL A   1      32.495 -35.797 -29.896  0.00  0.00    -0.012 C 
ENDBRANCH  15  16
ENDBRANCH   4  15
TORSDOF 4
ENDMDL
MODEL 5
REMARK VINA RESULT:    -7.975      4.225      8.843
REMARK INTER + INTRA:         -10.599
REMARK INTER:                  -9.477
REMARK INTRA:                  -1.122
REMARK UNBOUND:                -0.759
REMARK  Name = cpd358.pdb
REMARK  4 active torsions:
REMARK  status: ('A' for Active; 'I' for Inactive)
REMARK    1  A    between atoms: C_6  and  C_7
REMARK    2  A    between atoms: C_7  and  N_8
REMARK    3  A    between atoms: C_11  and  C_12
REMARK    4  A    between atoms: C_12  and  N_13
REMARK                            x       y       z     vdW  Elec       q    Type
REMARK                         _______ _______ _______ _____ _____    ______ ____
ROOT
ATOM      1  N   UNL A   1      42.623 -19.967 -34.498  0.00  0.00    -0.349 N 
ATOM      2  C   UNL A   1      43.716 -19.710 -33.742  0.00  0.00    +0.005 A 
ATOM      3  C   UNL A   1      44.995 -19.814 -34.280  0.00  0.00    -0.041 A 
ATOM      4  C   UNL A   1      45.164 -20.175 -35.619  0.00  0.00    -0.025 A 
ATOM      5  C   UNL A   1      44.017 -20.456 -36.368  0.00  0.00    -0.041 A 
ATOM      6  C   UNL A   1      42.757 -20.336 -35.792  0.00  0.00    +0.005 A 
ENDROOT
BRANCH   1   7
ATOM      7  C   UNL A   1      41.270 -19.831 -33.905  0.00  0.00    +0.048 C 
BRANCH   7  13
ATOM      8  F   UNL A   1      40.983 -24.213 -31.776  0.00  0.00    -0.205 F 
ATOM      9  C   UNL A   1      40.501 -23.349 -32.677  0.00  0.00    +0.124 A 
ATOM     10  C   UNL A   1      39.420 -23.710 -33.468  0.00  0.00    -0.026 A 
ATOM     11  C   UNL A   1      38.924 -22.805 -34.404  0.00  0.00    -0.059 A 
ATOM     12  C   UNL A   1      39.518 -21.546 -34.544  0.00  0.00    -0.057 A 
ATOM     13  C   UNL A   1      40.615 -21.180 -33.747  0.00  0.00    -0.025 A 
ATOM     14  C   UNL A   1      41.101 -22.098 -32.804  0.00  0.00    -0.022 A 
ENDBRANCH   7  13
ENDBRANCH   1   7
BRANCH   4  15
ATOM     15  C   UNL A   1      46.558 -20.288 -36.209  0.00  0.00    +0.049 C 
BRANCH  15  16
ATOM     16  N   UNL A   1      46.674 -19.586 -37.483  0.00  0.00    -0.339 N 
ATOM     17  C   UNL A   1      46.863 -18.233 -37.629  0.00  0.00    +0.023 A 
ATOM     18  C   UNL A   1      46.896 -17.947 -38.980  0.00  0.00    -0.019 A 
ATOM     19  C   UNL A   1      46.722 -19.168 -39.686  0.00  0.00    +0.003 A 
ATOM     20  C   UNL A   1      46.666 -19.504 -41.054  0.00  0.00    -0.052 A 
ATOM     21  C   UNL A   1      46.499 -20.838 -41.434  0.00  0.00    -0.061 A 
ATOM     22  C   UNL A   1      46.390 -21.837 -40.472  0.00  0.00    -0.060 A 
ATOM     23  C   UNL A   1      46.440 -21.532 -39.109  0.00  0.00    -0.038 A 
ATOM     24  C   UNL A   1      46.604 -20.187 -38.732  0.00  0.00    +0.050 A 
ATOM     25  C   UNL A   1      47.082 -16.565 -39.513  0.00  0.00    -0.025 C 
ATOM     26  C   UNL A   1      47.635 -15.622 -38.429  0.00  0.00    -0.049 C 
ATOM     27  C   UNL A   1      46.911 -15.806 -37.084  0.00  0.00    -0.047 C 
ATOM     28  C   UNL A   1      47.061 -17.236 -36.535  0.00  0.00    -0.012 C 
ENDBRANCH  15  16
ENDBRANCH   4  15
TORSDOF 4
ENDMDL
MODEL 6
REMARK VINA RESULT:    -7.840     16.658     20.580
REMARK INTER + INTRA:         -10.432
REMARK INTER:                  -9.227
REMARK INTRA:                  -1.205
REMARK UNBOUND:                -0.759
REMARK  Name = cpd358.pdb
REMARK  4 active torsions:
REMARK  status: ('A' for Active; 'I' for Inactive)
REMARK    1  A    between atoms: C_6  and  C_7
REMARK    2  A    between atoms: C_7  and  N_8
REMARK    3  A    between atoms: C_11  and  C_12
REMARK    4  A    between atoms: C_12  and  N_13
REMARK                            x       y       z     vdW  Elec       q    Type
REMARK                         _______ _______ _______ _____ _____    ______ ____
ROOT
ATOM      1  N   UNL A   1      33.935 -40.792 -30.597  0.00  0.00    -0.349 N 
ATOM      2  C   UNL A   1      35.283 -40.700 -30.685  0.00  0.00    +0.005 A 
ATOM      3  C   UNL A   1      35.972 -39.686 -30.027  0.00  0.00    -0.041 A 
ATOM      4  C   UNL A   1      35.276 -38.755 -29.252  0.00  0.00    -0.025 A 
ATOM      5  C   UNL A   1      33.883 -38.863 -29.199  0.00  0.00    -0.041 A 
ATOM      6  C   UNL A   1      33.234 -39.895 -29.869  0.00  0.00    +0.005 A 
ENDROOT
BRANCH   1   7
ATOM      7  C   UNL A   1      33.227 -41.893 -31.293  0.00  0.00    +0.048 C 
BRANCH   7  13
ATOM      8  F   UNL A   1      31.975 -39.029 -35.041  0.00  0.00    -0.205 F 
ATOM      9  C   UNL A   1      32.501 -40.182 -34.613  0.00  0.00    +0.124 A 
ATOM     10  C   UNL A   1      32.937 -41.124 -35.534  0.00  0.00    -0.026 A 
ATOM     11  C   UNL A   1      33.482 -42.323 -35.081  0.00  0.00    -0.059 A 
ATOM     12  C   UNL A   1      33.583 -42.573 -33.709  0.00  0.00    -0.057 A 
ATOM     13  C   UNL A   1      33.138 -41.623 -32.774  0.00  0.00    -0.025 A 
ATOM     14  C   UNL A   1      32.596 -40.417 -33.244  0.00  0.00    -0.022 A 
ENDBRANCH   7  13
ENDBRANCH   1   7
BRANCH   4  15
ATOM     15  C   UNL A   1      36.025 -37.648 -28.533  0.00  0.00    +0.049 C 
BRANCH  15  16
ATOM     16  N   UNL A   1      36.287 -36.507 -29.402  0.00  0.00    -0.339 N 
ATOM     17  C   UNL A   1      35.451 -35.429 -29.572  0.00  0.00    +0.023 A 
ATOM     18  C   UNL A   1      36.032 -34.575 -30.489  0.00  0.00    -0.019 A 
ATOM     19  C   UNL A   1      37.268 -35.148 -30.894  0.00  0.00    +0.003 A 
ATOM     20  C   UNL A   1      38.279 -34.750 -31.790  0.00  0.00    -0.052 A 
ATOM     21  C   UNL A   1      39.413 -35.550 -31.956  0.00  0.00    -0.061 A 
ATOM     22  C   UNL A   1      39.550 -36.735 -31.242  0.00  0.00    -0.060 A 
ATOM     23  C   UNL A   1      38.560 -37.156 -30.349  0.00  0.00    -0.038 A 
ATOM     24  C   UNL A   1      37.420 -36.349 -30.189  0.00  0.00    +0.050 A 
ATOM     25  C   UNL A   1      35.396 -33.295 -30.922  0.00  0.00    -0.025 C 
ATOM     26  C   UNL A   1      34.285 -32.869 -29.946  0.00  0.00    -0.049 C 
ATOM     27  C   UNL A   1      33.380 -34.051 -29.555  0.00  0.00    -0.047 C 
ATOM     28  C   UNL A   1      34.164 -35.177 -28.857  0.00  0.00    -0.012 C 
ENDBRANCH  15  16
ENDBRANCH   4  15
TORSDOF 4
ENDMDL
MODEL 7
REMARK VINA RESULT:    -7.731     17.214     21.363
REMARK INTER + INTRA:         -10.298
REMARK INTER:                  -9.155
REMARK INTRA:                  -1.143
REMARK UNBOUND:                -0.759
REMARK  Name = cpd358.pdb
REMARK  4 active torsions:
REMARK  status: ('A' for Active; 'I' for Inactive)
REMARK    1  A    between atoms: C_6  and  C_7
REMARK    2  A    between atoms: C_7  and  N_8
REMARK    3  A    between atoms: C_11  and  C_12
REMARK    4  A    between atoms: C_12  and  N_13
REMARK                            x       y       z     vdW  Elec       q    Type
REMARK                         _______ _______ _______ _____ _____    ______ ____
ROOT
ATOM      1  N   UNL A   1      34.242 -41.111 -29.397  0.00  0.00    -0.349 N 
ATOM      2  C   UNL A   1      33.940 -40.334 -28.330  0.00  0.00    +0.005 A 
ATOM      3  C   UNL A   1      34.824 -39.353 -27.890  0.00  0.00    -0.041 A 
ATOM      4  C   UNL A   1      36.035 -39.153 -28.556  0.00  0.00    -0.025 A 
ATOM      5  C   UNL A   1      36.328 -39.986 -29.640  0.00  0.00    -0.041 A 
ATOM      6  C   UNL A   1      35.415 -40.951 -30.050  0.00  0.00    +0.005 A 
ENDROOT
BRANCH   1   7
ATOM      7  C   UNL A   1      33.274 -42.136 -29.857  0.00  0.00    +0.048 C 
BRANCH   7  13
ATOM      8  F   UNL A   1      31.423 -38.835 -32.938  0.00  0.00    -0.205 F 
ATOM      9  C   UNL A   1      31.775 -40.104 -32.703  0.00  0.00    +0.124 A 
ATOM     10  C   UNL A   1      31.582 -41.065 -33.685  0.00  0.00    -0.026 A 
ATOM     11  C   UNL A   1      31.949 -42.385 -33.432  0.00  0.00    -0.059 A 
ATOM     12  C   UNL A   1      32.502 -42.734 -32.196  0.00  0.00    -0.057 A 
ATOM     13  C   UNL A   1      32.694 -41.763 -31.198  0.00  0.00    -0.025 A 
ATOM     14  C   UNL A   1      32.326 -40.436 -31.468  0.00  0.00    -0.022 A 
ENDBRANCH   7  13
ENDBRANCH   1   7
BRANCH   4  15
ATOM     15  C   UNL A   1      37.001 -38.084 -28.079  0.00  0.00    +0.049 C 
BRANCH  15  16
ATOM     16  N   UNL A   1      37.305 -37.112 -29.123  0.00  0.00    -0.339 N 
ATOM     17  C   UNL A   1      38.484 -37.047 -29.829  0.00  0.00    +0.023 A 
ATOM     18  C   UNL A   1      38.400 -35.983 -30.705  0.00  0.00    -0.019 A 
ATOM     19  C   UNL A   1      37.128 -35.376 -30.532  0.00  0.00    +0.003 A 
ATOM     20  C   UNL A   1      36.484 -34.274 -31.130  0.00  0.00    -0.052 A 
ATOM     21  C   UNL A   1      35.186 -33.935 -30.740  0.00  0.00    -0.061 A 
ATOM     22  C   UNL A   1      34.524 -34.677 -29.769  0.00  0.00    -0.060 A 
ATOM     23  C   UNL A   1      35.140 -35.774 -29.158  0.00  0.00    -0.038 A 
ATOM     24  C   UNL A   1      36.448 -36.108 -29.550  0.00  0.00    +0.050 A 
ATOM     25  C   UNL A   1      39.508 -35.608 -31.634  0.00  0.00    -0.025 C 
ATOM     26  C   UNL A   1      40.520 -36.758 -31.783  0.00  0.00    -0.049 C 
ATOM     27  C   UNL A   1      40.873 -37.393 -30.426  0.00  0.00    -0.047 C 
ATOM     28  C   UNL A   1      39.639 -37.987 -29.725  0.00  0.00    -0.012 C 
ENDBRANCH  15  16
ENDBRANCH   4  15
TORSDOF 4
ENDMDL
MODEL 8
REMARK VINA RESULT:    -7.726      2.515      3.859
REMARK INTER + INTRA:         -10.291
REMARK INTER:                  -9.403
REMARK INTRA:                  -0.888
REMARK UNBOUND:                -0.759
REMARK  Name = cpd358.pdb
REMARK  4 active torsions:
REMARK  status: ('A' for Active; 'I' for Inactive)
REMARK    1  A    between atoms: C_6  and  C_7
REMARK    2  A    between atoms: C_7  and  N_8
REMARK    3  A    between atoms: C_11  and  C_12
REMARK    4  A    between atoms: C_12  and  N_13
REMARK                            x       y       z     vdW  Elec       q    Type
REMARK                         _______ _______ _______ _____ _____    ______ ____
ROOT
ATOM      1  N   UNL A   1      43.437 -20.847 -41.168  0.00  0.00    -0.349 N 
ATOM      2  C   UNL A   1      43.610 -19.556 -40.797  0.00  0.00    +0.005 A 
ATOM      3  C   UNL A   1      42.861 -19.006 -39.761  0.00  0.00    -0.041 A 
ATOM      4  C   UNL A   1      41.926 -19.790 -39.081  0.00  0.00    -0.025 A 
ATOM      5  C   UNL A   1      41.754 -21.112 -39.502  0.00  0.00    -0.041 A 
ATOM      6  C   UNL A   1      42.526 -21.624 -40.539  0.00  0.00    +0.005 A 
ENDROOT
BRANCH   1   7
ATOM      7  C   UNL A   1      44.261 -21.414 -42.262  0.00  0.00    +0.048 C 
BRANCH   7  13
ATOM      8  F   UNL A   1      48.212 -24.239 -42.739  0.00  0.00    -0.205 F 
ATOM      9  C   UNL A   1      47.502 -23.388 -41.989  0.00  0.00    +0.124 A 
ATOM     10  C   UNL A   1      47.951 -23.048 -40.722  0.00  0.00    -0.026 A 
ATOM     11  C   UNL A   1      47.206 -22.163 -39.946  0.00  0.00    -0.059 A 
ATOM     12  C   UNL A   1      46.014 -21.627 -40.444  0.00  0.00    -0.057 A 
ATOM     13  C   UNL A   1      45.554 -21.973 -41.726  0.00  0.00    -0.025 A 
ATOM     14  C   UNL A   1      46.318 -22.862 -42.499  0.00  0.00    -0.022 A 
ENDBRANCH   7  13
ENDBRANCH   1   7
BRANCH   4  15
ATOM     15  C   UNL A   1      41.108 -19.193 -37.950  0.00  0.00    +0.049 C 
BRANCH  15  16
ATOM     16  N   UNL A   1      41.476 -19.748 -36.653  0.00  0.00    -0.339 N 
ATOM     17  C   UNL A   1      40.753 -20.687 -35.957  0.00  0.00    +0.023 A 
ATOM     18  C   UNL A   1      41.409 -20.939 -34.767  0.00  0.00    -0.019 A 
ATOM     19  C   UNL A   1      42.574 -20.127 -34.734  0.00  0.00    +0.003 A 
ATOM     20  C   UNL A   1      43.612 -19.950 -33.797  0.00  0.00    -0.052 A 
ATOM     21  C   UNL A   1      44.655 -19.064 -34.078  0.00  0.00    -0.061 A 
ATOM     22  C   UNL A   1      44.678 -18.358 -35.275  0.00  0.00    -0.060 A 
ATOM     23  C   UNL A   1      43.660 -18.512 -36.221  0.00  0.00    -0.038 A 
ATOM     24  C   UNL A   1      42.610 -19.402 -35.932  0.00  0.00    +0.050 A 
ATOM     25  C   UNL A   1      40.903 -21.910 -33.752  0.00  0.00    -0.025 C 
ATOM     26  C   UNL A   1      39.852 -22.855 -34.362  0.00  0.00    -0.049 C 
ATOM     27  C   UNL A   1      38.835 -22.096 -35.233  0.00  0.00    -0.047 C 
ATOM     28  C   UNL A   1      39.507 -21.373 -36.413  0.00  0.00    -0.012 C 
ENDBRANCH  15  16
ENDBRANCH   4  15
TORSDOF 4
ENDMDL
MODEL 9
REMARK VINA RESULT:    -7.669      3.648      8.315
REMARK INTER + INTRA:         -10.222
REMARK INTER:                  -9.303
REMARK INTRA:                  -0.919
REMARK UNBOUND:                -0.759
REMARK  Name = cpd358.pdb
REMARK  4 active torsions:
REMARK  status: ('A' for Active; 'I' for Inactive)
REMARK    1  A    between atoms: C_6  and  C_7
REMARK    2  A    between atoms: C_7  and  N_8
REMARK    3  A    between atoms: C_11  and  C_12
REMARK    4  A    between atoms: C_12  and  N_13
REMARK                            x       y       z     vdW  Elec       q    Type
REMARK                         _______ _______ _______ _____ _____    ______ ____
ROOT
ATOM      1  N   UNL A   1      42.121 -19.921 -35.287  0.00  0.00    -0.349 N 
ATOM      2  C   UNL A   1      42.050 -20.535 -36.492  0.00  0.00    +0.005 A 
ATOM      3  C   UNL A   1      43.150 -20.559 -37.344  0.00  0.00    -0.041 A 
ATOM      4  C   UNL A   1      44.349 -19.956 -36.957  0.00  0.00    -0.025 A 
ATOM      5  C   UNL A   1      44.383 -19.311 -35.717  0.00  0.00    -0.041 A 
ATOM      6  C   UNL A   1      43.263 -19.314 -34.894  0.00  0.00    +0.005 A 
ENDROOT
BRANCH   1   7
ATOM      7  C   UNL A   1      40.940 -19.926 -34.390  0.00  0.00    +0.048 C 
BRANCH   7  13
ATOM      8  F   UNL A   1      38.621 -24.219 -34.312  0.00  0.00    -0.205 F 
ATOM      9  C   UNL A   1      39.549 -23.414 -33.781  0.00  0.00    +0.124 A 
ATOM     10  C   UNL A   1      40.281 -23.838 -32.682  0.00  0.00    -0.026 A 
ATOM     11  C   UNL A   1      41.244 -22.995 -32.134  0.00  0.00    -0.059 A 
ATOM     12  C   UNL A   1      41.464 -21.729 -32.688  0.00  0.00    -0.057 A 
ATOM     13  C   UNL A   1      40.721 -21.295 -33.799  0.00  0.00    -0.025 A 
ATOM     14  C   UNL A   1      39.758 -22.158 -34.345  0.00  0.00    -0.022 A 
ENDBRANCH   7  13
ENDBRANCH   1   7
BRANCH   4  15
ATOM     15  C   UNL A   1      45.550 -19.981 -37.884  0.00  0.00    +0.049 C 
BRANCH  15  16
ATOM     16  N   UNL A   1      45.188 -19.664 -39.261  0.00  0.00    -0.339 N 
ATOM     17  C   UNL A   1      45.307 -20.519 -40.331  0.00  0.00    +0.023 A 
ATOM     18  C   UNL A   1      44.889 -19.849 -41.464  0.00  0.00    -0.019 A 
ATOM     19  C   UNL A   1      44.499 -18.539 -41.076  0.00  0.00    +0.003 A 
ATOM     20  C   UNL A   1      44.000 -17.423 -41.776  0.00  0.00    -0.052 A 
ATOM     21  C   UNL A   1      43.686 -16.252 -41.081  0.00  0.00    -0.061 A 
ATOM     22  C   UNL A   1      43.861 -16.181 -39.703  0.00  0.00    -0.060 A 
ATOM     23  C   UNL A   1      44.357 -17.273 -38.984  0.00  0.00    -0.038 A 
ATOM     24  C   UNL A   1      44.675 -18.447 -39.689  0.00  0.00    +0.050 A 
ATOM     25  C   UNL A   1      44.886 -20.474 -42.821  0.00  0.00    -0.025 C 
ATOM     26  C   UNL A   1      44.992 -22.006 -42.727  0.00  0.00    -0.049 C 
ATOM     27  C   UNL A   1      46.059 -22.447 -41.710  0.00  0.00    -0.047 C 
ATOM     28  C   UNL A   1      45.751 -21.944 -40.289  0.00  0.00    -0.012 C 
ENDBRANCH  15  16
ENDBRANCH   4  15
TORSDOF 4
ENDMDL
MODEL 10
REMARK VINA RESULT:    -7.641      2.636      3.548
REMARK INTER + INTRA:         -10.187
REMARK INTER:                  -9.042
REMARK INTRA:                  -1.145
REMARK UNBOUND:                -0.759
REMARK  Name = cpd358.pdb
REMARK  4 active torsions:
REMARK  status: ('A' for Active; 'I' for Inactive)
REMARK    1  A    between atoms: C_6  and  C_7
REMARK    2  A    between atoms: C_7  and  N_8
REMARK    3  A    between atoms: C_11  and  C_12
REMARK    4  A    between atoms: C_12  and  N_13
REMARK                            x       y       z     vdW  Elec       q    Type
REMARK                         _______ _______ _______ _____ _____    ______ ____
ROOT
ATOM      1  N   UNL A   1      44.215 -20.063 -41.330  0.00  0.00    -0.349 N 
ATOM      2  C   UNL A   1      43.367 -20.948 -40.756  0.00  0.00    +0.005 A 
ATOM      3  C   UNL A   1      42.494 -20.547 -39.748  0.00  0.00    -0.041 A 
ATOM      4  C   UNL A   1      42.477 -19.215 -39.326  0.00  0.00    -0.025 A 
ATOM      5  C   UNL A   1      43.380 -18.331 -39.923  0.00  0.00    -0.041 A 
ATOM      6  C   UNL A   1      44.232 -18.772 -40.930  0.00  0.00    +0.005 A 
ENDROOT
BRANCH   1   7
ATOM      7  C   UNL A   1      45.122 -20.512 -42.415  0.00  0.00    +0.048 C 
BRANCH   7  13
ATOM      8  F   UNL A   1      47.558 -24.730 -42.715  0.00  0.00    -0.205 F 
ATOM      9  C   UNL A   1      47.338 -23.584 -42.061  0.00  0.00    +0.124 A 
ATOM     10  C   UNL A   1      48.041 -23.310 -40.896  0.00  0.00    -0.026 A 
ATOM     11  C   UNL A   1      47.807 -22.116 -40.220  0.00  0.00    -0.059 A 
ATOM     12  C   UNL A   1      46.866 -21.205 -40.712  0.00  0.00    -0.057 A 
ATOM     13  C   UNL A   1      46.149 -21.481 -41.889  0.00  0.00    -0.025 A 
ATOM     14  C   UNL A   1      46.400 -22.686 -42.563  0.00  0.00    -0.022 A 
ENDBRANCH   7  13
ENDBRANCH   1   7
BRANCH   4  15
ATOM     15  C   UNL A   1      41.526 -18.775 -38.228  0.00  0.00    +0.049 C 
BRANCH  15  16
ATOM     16  N   UNL A   1      41.818 -19.424 -36.955  0.00  0.00    -0.339 N 
ATOM     17  C   UNL A   1      42.860 -19.100 -36.119  0.00  0.00    +0.023 A 
ATOM     18  C   UNL A   1      42.819 -19.952 -35.032  0.00  0.00    -0.019 A 
ATOM     19  C   UNL A   1      41.714 -20.827 -35.208  0.00  0.00    +0.003 A 
ATOM     20  C   UNL A   1      41.180 -21.888 -34.449  0.00  0.00    -0.052 A 
ATOM     21  C   UNL A   1      40.040 -22.558 -34.900  0.00  0.00    -0.061 A 
ATOM     22  C   UNL A   1      39.428 -22.185 -36.091  0.00  0.00    -0.060 A 
ATOM     23  C   UNL A   1      39.938 -21.138 -36.866  0.00  0.00    -0.038 A 
ATOM     24  C   UNL A   1      41.088 -20.470 -36.409  0.00  0.00    +0.050 A 
ATOM     25  C   UNL A   1      43.809 -19.890 -33.916  0.00  0.00    -0.025 C 
ATOM     26  C   UNL A   1      44.571 -18.553 -33.922  0.00  0.00    -0.049 C 
ATOM     27  C   UNL A   1      45.025 -18.158 -35.338  0.00  0.00    -0.047 C 
ATOM     28  C   UNL A   1      43.838 -17.987 -36.303  0.00  0.00    -0.012 C 
ENDBRANCH  15  16
ENDBRANCH   4  15
TORSDOF 4
ENDMDL
MODEL 11
REMARK VINA RESULT:    -7.624      2.868      8.075
REMARK INTER + INTRA:         -10.166
REMARK INTER:                  -9.142
REMARK INTRA:                  -1.023
REMARK UNBOUND:                -0.759
REMARK  Name = cpd358.pdb
REMARK  4 active torsions:
REMARK  status: ('A' for Active; 'I' for Inactive)
REMARK    1  A    between atoms: C_6  and  C_7
REMARK    2  A    between atoms: C_7  and  N_8
REMARK    3  A    between atoms: C_11  and  C_12
REMARK    4  A    between atoms: C_12  and  N_13
REMARK                            x       y       z     vdW  Elec       q    Type
REMARK                         _______ _______ _______ _____ _____    ______ ____
ROOT
ATOM      1  N   UNL A   1      40.349 -21.410 -37.889  0.00  0.00    -0.349 N 
ATOM      2  C   UNL A   1      40.378 -20.128 -38.324  0.00  0.00    +0.005 A 
ATOM      3  C   UNL A   1      41.317 -19.717 -39.266  0.00  0.00    -0.041 A 
ATOM      4  C   UNL A   1      42.237 -20.631 -39.783  0.00  0.00    -0.025 A 
ATOM      5  C   UNL A   1      42.196 -21.942 -39.297  0.00  0.00    -0.041 A 
ATOM      6  C   UNL A   1      41.239 -22.313 -38.359  0.00  0.00    +0.005 A 
ENDROOT
BRANCH   1   7
ATOM      7  C   UNL A   1      39.327 -21.827 -36.899  0.00  0.00    +0.048 C 
BRANCH   7  13
ATOM      8  F   UNL A   1      40.828 -23.996 -32.794  0.00  0.00    -0.205 F 
ATOM      9  C   UNL A   1      40.610 -22.863 -33.471  0.00  0.00    +0.124 A 
ATOM     10  C   UNL A   1      40.871 -21.640 -32.870  0.00  0.00    -0.026 A 
ATOM     11  C   UNL A   1      40.641 -20.465 -33.580  0.00  0.00    -0.059 A 
ATOM     12  C   UNL A   1      40.146 -20.521 -34.887  0.00  0.00    -0.057 A 
ATOM     13  C   UNL A   1      39.877 -21.758 -35.497  0.00  0.00    -0.025 A 
ATOM     14  C   UNL A   1      40.119 -22.935 -34.772  0.00  0.00    -0.022 A 
ENDBRANCH   7  13
ENDBRANCH   1   7
BRANCH   4  15
ATOM     15  C   UNL A   1      43.261 -20.186 -40.810  0.00  0.00    +0.049 C 
BRANCH  15  16
ATOM     16  N   UNL A   1      44.629 -20.395 -40.348  0.00  0.00    -0.339 N 
ATOM     17  C   UNL A   1      45.547 -21.231 -40.938  0.00  0.00    +0.023 A 
ATOM     18  C   UNL A   1      46.713 -21.178 -40.198  0.00  0.00    -0.019 A 
ATOM     19  C   UNL A   1      46.502 -20.278 -39.120  0.00  0.00    +0.003 A 
ATOM     20  C   UNL A   1      47.308 -19.828 -38.054  0.00  0.00    -0.052 A 
ATOM     21  C   UNL A   1      46.797 -18.898 -37.145  0.00  0.00    -0.061 A 
ATOM     22  C   UNL A   1      45.502 -18.412 -37.284  0.00  0.00    -0.060 A 
ATOM     23  C   UNL A   1      44.681 -18.843 -38.330  0.00  0.00    -0.038 A 
ATOM     24  C   UNL A   1      45.198 -19.783 -39.240  0.00  0.00    +0.050 A 
ATOM     25  C   UNL A   1      47.931 -21.968 -40.547  0.00  0.00    -0.025 C 
ATOM     26  C   UNL A   1      47.864 -22.483 -41.996  0.00  0.00    -0.049 C 
ATOM     27  C   UNL A   1      46.481 -23.065 -42.335  0.00  0.00    -0.047 C 
ATOM     28  C   UNL A   1      45.359 -22.021 -42.191  0.00  0.00    -0.012 C 
ENDBRANCH  15  16
ENDBRANCH   4  15
TORSDOF 4
ENDMDL
MODEL 12
REMARK VINA RESULT:    -7.585     16.243     18.905
REMARK INTER + INTRA:         -10.118
REMARK INTER:                  -9.351
REMARK INTRA:                  -0.767
REMARK UNBOUND:                -0.759
REMARK  Name = cpd358.pdb
REMARK  4 active torsions:
REMARK  status: ('A' for Active; 'I' for Inactive)
REMARK    1  A    between atoms: C_6  and  C_7
REMARK    2  A    between atoms: C_7  and  N_8
REMARK    3  A    between atoms: C_11  and  C_12
REMARK    4  A    between atoms: C_12  and  N_13
REMARK                            x       y       z     vdW  Elec       q    Type
REMARK                         _______ _______ _______ _____ _____    ______ ____
ROOT
ATOM      1  N   UNL A   1      37.166 -38.155 -28.719  0.00  0.00    -0.349 N 
ATOM      2  C   UNL A   1      36.625 -37.292 -27.828  0.00  0.00    +0.005 A 
ATOM      3  C   UNL A   1      35.285 -36.924 -27.916  0.00  0.00    -0.041 A 
ATOM      4  C   UNL A   1      34.478 -37.456 -28.925  0.00  0.00    -0.025 A 
ATOM      5  C   UNL A   1      35.072 -38.327 -29.843  0.00  0.00    -0.041 A 
ATOM      6  C   UNL A   1      36.413 -38.672 -29.716  0.00  0.00    +0.005 A 
ENDROOT
BRANCH   1   7
ATOM      7  C   UNL A   1      38.591 -38.546 -28.591  0.00  0.00    +0.048 C 
BRANCH   7  13
ATOM      8  F   UNL A   1      39.057 -35.524 -32.396  0.00  0.00    -0.205 F 
ATOM      9  C   UNL A   1      39.644 -36.297 -31.474  0.00  0.00    +0.124 A 
ATOM     10  C   UNL A   1      41.026 -36.416 -31.454  0.00  0.00    -0.026 A 
ATOM     11  C   UNL A   1      41.630 -37.223 -30.493  0.00  0.00    -0.059 A 
ATOM     12  C   UNL A   1      40.845 -37.910 -29.561  0.00  0.00    -0.057 A 
ATOM     13  C   UNL A   1      39.444 -37.795 -29.582  0.00  0.00    -0.025 A 
ATOM     14  C   UNL A   1      38.850 -36.973 -30.552  0.00  0.00    -0.022 A 
ENDBRANCH   7  13
ENDBRANCH   1   7
BRANCH   4  15
ATOM     15  C   UNL A   1      33.017 -37.057 -29.023  0.00  0.00    +0.049 C 
BRANCH  15  16
ATOM     16  N   UNL A   1      32.735 -36.300 -30.238  0.00  0.00    -0.339 N 
ATOM     17  C   UNL A   1      33.066 -34.982 -30.448  0.00  0.00    +0.023 A 
ATOM     18  C   UNL A   1      32.611 -34.620 -31.701  0.00  0.00    -0.019 A 
ATOM     19  C   UNL A   1      31.982 -35.755 -32.279  0.00  0.00    +0.003 A 
ATOM     20  C   UNL A   1      31.340 -35.991 -33.512  0.00  0.00    -0.052 A 
ATOM     21  C   UNL A   1      30.827 -37.259 -33.794  0.00  0.00    -0.061 A 
ATOM     22  C   UNL A   1      30.945 -38.290 -32.868  0.00  0.00    -0.060 A 
ATOM     23  C   UNL A   1      31.574 -38.083 -31.637  0.00  0.00    -0.038 A 
ATOM     24  C   UNL A   1      32.085 -36.803 -31.356  0.00  0.00    +0.050 A 
ATOM     25  C   UNL A   1      32.793 -33.249 -32.264  0.00  0.00    -0.025 C 
ATOM     26  C   UNL A   1      33.870 -32.468 -31.490  0.00  0.00    -0.049 C 
ATOM     27  C   UNL A   1      33.712 -32.629 -29.968  0.00  0.00    -0.047 C 
ATOM     28  C   UNL A   1      33.834 -34.097 -29.523  0.00  0.00    -0.012 C 
ENDBRANCH  15  16
ENDBRANCH   4  15
TORSDOF 4
ENDMDL
MODEL 13
REMARK VINA RESULT:    -7.524      4.128      4.829
REMARK INTER + INTRA:         -10.042
REMARK INTER:                  -9.017
REMARK INTRA:                  -1.026
REMARK UNBOUND:                -0.759
REMARK  Name = cpd358.pdb
REMARK  4 active torsions:
REMARK  status: ('A' for Active; 'I' for Inactive)
REMARK    1  A    between atoms: C_6  and  C_7
REMARK    2  A    between atoms: C_7  and  N_8
REMARK    3  A    between atoms: C_11  and  C_12
REMARK    4  A    between atoms: C_12  and  N_13
REMARK                            x       y       z     vdW  Elec       q    Type
REMARK                         _______ _______ _______ _____ _____    ______ ____
ROOT
ATOM      1  N   UNL A   1      44.852 -19.876 -38.479  0.00  0.00    -0.349 N 
ATOM      2  C   UNL A   1      43.661 -20.216 -37.933  0.00  0.00    +0.005 A 
ATOM      3  C   UNL A   1      43.527 -20.373 -36.557  0.00  0.00    -0.041 A 
ATOM      4  C   UNL A   1      44.625 -20.166 -35.719  0.00  0.00    -0.025 A 
ATOM      5  C   UNL A   1      45.847 -19.838 -36.314  0.00  0.00    -0.041 A 
ATOM      6  C   UNL A   1      45.936 -19.687 -37.693  0.00  0.00    +0.005 A 
ENDROOT
BRANCH   1   7
ATOM      7  C   UNL A   1      44.964 -19.697 -39.947  0.00  0.00    +0.048 C 
BRANCH   7  13
ATOM      8  F   UNL A   1      49.070 -20.473 -42.468  0.00  0.00    -0.205 F 
ATOM      9  C   UNL A   1      48.038 -20.981 -41.784  0.00  0.00    +0.124 A 
ATOM     10  C   UNL A   1      47.922 -22.355 -41.633  0.00  0.00    -0.026 A 
ATOM     11  C   UNL A   1      46.845 -22.877 -40.921  0.00  0.00    -0.059 A 
ATOM     12  C   UNL A   1      45.888 -22.019 -40.369  0.00  0.00    -0.057 A 
ATOM     13  C   UNL A   1      46.001 -20.627 -40.524  0.00  0.00    -0.025 A 
ATOM     14  C   UNL A   1      47.094 -20.114 -41.239  0.00  0.00    -0.022 A 
ENDBRANCH   7  13
ENDBRANCH   1   7
BRANCH   4  15
ATOM     15  C   UNL A   1      44.481 -20.336 -34.217  0.00  0.00    +0.049 C 
BRANCH  15  16
ATOM     16  N   UNL A   1      43.420 -19.499 -33.669  0.00  0.00    -0.339 N 
ATOM     17  C   UNL A   1      43.485 -18.135 -33.512  0.00  0.00    +0.023 A 
ATOM     18  C   UNL A   1      42.301 -17.712 -32.940  0.00  0.00    -0.019 A 
ATOM     19  C   UNL A   1      41.482 -18.855 -32.740  0.00  0.00    +0.003 A 
ATOM     20  C   UNL A   1      40.193 -19.049 -32.204  0.00  0.00    -0.052 A 
ATOM     21  C   UNL A   1      39.646 -20.334 -32.164  0.00  0.00    -0.061 A 
ATOM     22  C   UNL A   1      40.362 -21.422 -32.651  0.00  0.00    -0.060 A 
ATOM     23  C   UNL A   1      41.644 -21.258 -33.186  0.00  0.00    -0.038 A 
ATOM     24  C   UNL A   1      42.192 -19.964 -33.220  0.00  0.00    +0.050 A 
ATOM     25  C   UNL A   1      42.022 -16.280 -32.620  0.00  0.00    -0.025 C 
ATOM     26  C   UNL A   1      42.990 -15.345 -33.366  0.00  0.00    -0.049 C 
ATOM     27  C   UNL A   1      44.442 -15.849 -33.298  0.00  0.00    -0.047 C 
ATOM     28  C   UNL A   1      44.604 -17.241 -33.935  0.00  0.00    -0.012 C 
ENDBRANCH  15  16
ENDBRANCH   4  15
TORSDOF 4
ENDMDL
MODEL 14
REMARK VINA RESULT:    -7.519      2.800      4.467
REMARK INTER + INTRA:         -10.037
REMARK INTER:                  -9.001
REMARK INTRA:                  -1.036
REMARK UNBOUND:                -0.759
REMARK  Name = cpd358.pdb
REMARK  4 active torsions:
REMARK  status: ('A' for Active; 'I' for Inactive)
REMARK    1  A    between atoms: C_6  and  C_7
REMARK    2  A    between atoms: C_7  and  N_8
REMARK    3  A    between atoms: C_11  and  C_12
REMARK    4  A    between atoms: C_12  and  N_13
REMARK                            x       y       z     vdW  Elec       q    Type
REMARK                         _______ _______ _______ _____ _____    ______ ____
ROOT
ATOM      1  N   UNL A   1      43.471 -19.716 -37.797  0.00  0.00    -0.349 N 
ATOM      2  C   UNL A   1      44.091 -19.185 -36.718  0.00  0.00    +0.005 A 
ATOM      3  C   UNL A   1      43.725 -19.561 -35.429  0.00  0.00    -0.041 A 
ATOM      4  C   UNL A   1      42.715 -20.506 -35.236  0.00  0.00    -0.025 A 
ATOM      5  C   UNL A   1      42.078 -21.019 -36.369  0.00  0.00    -0.041 A 
ATOM      6  C   UNL A   1      42.477 -20.620 -37.640  0.00  0.00    +0.005 A 
ENDROOT
BRANCH   1   7
ATOM      7  C   UNL A   1      43.893 -19.312 -39.160  0.00  0.00    +0.048 C 
BRANCH   7  13
ATOM      8  F   UNL A   1      44.961 -22.296 -42.871  0.00  0.00    -0.205 F 
ATOM      9  C   UNL A   1      45.260 -21.847 -41.646  0.00  0.00    +0.124 A 
ATOM     10  C   UNL A   1      46.344 -22.378 -40.963  0.00  0.00    -0.026 A 
ATOM     11  C   UNL A   1      46.648 -21.906 -39.688  0.00  0.00    -0.059 A 
ATOM     12  C   UNL A   1      45.859 -20.910 -39.103  0.00  0.00    -0.057 A 
ATOM     13  C   UNL A   1      44.757 -20.374 -39.791  0.00  0.00    -0.025 A 
ATOM     14  C   UNL A   1      44.467 -20.853 -41.078  0.00  0.00    -0.022 A 
ENDBRANCH   7  13
ENDBRANCH   1   7
BRANCH   4  15
ATOM     15  C   UNL A   1      42.313 -20.918 -33.831  0.00  0.00    +0.049 C 
BRANCH  15  16
ATOM     16  N   UNL A   1      40.906 -20.647 -33.561  0.00  0.00    -0.339 N 
ATOM     17  C   UNL A   1      39.884 -21.561 -33.677  0.00  0.00    +0.023 A 
ATOM     18  C   UNL A   1      38.700 -20.923 -33.362  0.00  0.00    -0.019 A 
ATOM     19  C   UNL A   1      39.006 -19.574 -33.040  0.00  0.00    +0.003 A 
ATOM     20  C   UNL A   1      38.229 -18.464 -32.652  0.00  0.00    -0.052 A 
ATOM     21  C   UNL A   1      38.851 -17.242 -32.381  0.00  0.00    -0.061 A 
ATOM     22  C   UNL A   1      40.231 -17.114 -32.491  0.00  0.00    -0.060 A 
ATOM     23  C   UNL A   1      41.026 -18.198 -32.877  0.00  0.00    -0.038 A 
ATOM     24  C   UNL A   1      40.394 -19.424 -33.152  0.00  0.00    +0.050 A 
ATOM     25  C   UNL A   1      37.377 -21.613 -33.386  0.00  0.00    -0.025 C 
ATOM     26  C   UNL A   1      37.547 -23.143 -33.385  0.00  0.00    -0.049 C 
ATOM     27  C   UNL A   1      38.639 -23.599 -34.369  0.00  0.00    -0.047 C 
ATOM     28  C   UNL A   1      40.017 -23.007 -34.023  0.00  0.00    -0.012 C 
ENDBRANCH  15  16
ENDBRANCH   4  15
TORSDOF 4
ENDMDL
MODEL 15
REMARK VINA RESULT:    -7.418      2.980      4.080
REMARK INTER + INTRA:          -9.911
REMARK INTER:                  -8.834
REMARK INTRA:                  -1.077
REMARK UNBOUND:                -0.759
REMARK  Name = cpd358.pdb
REMARK  4 active torsions:
REMARK  status: ('A' for Active; 'I' for Inactive)
REMARK    1  A    between atoms: C_6  and  C_7
REMARK    2  A    between atoms: C_7  and  N_8
REMARK    3  A    between atoms: C_11  and  C_12
REMARK    4  A    between atoms: C_12  and  N_13
REMARK                            x       y       z     vdW  Elec       q    Type
REMARK                         _______ _______ _______ _____ _____    ______ ____
ROOT
ATOM      1  N   UNL A   1      43.677 -19.578 -37.497  0.00  0.00    -0.349 N 
ATOM      2  C   UNL A   1      42.704 -20.510 -37.361  0.00  0.00    +0.005 A 
ATOM      3  C   UNL A   1      42.276 -20.913 -36.100  0.00  0.00    -0.041 A 
ATOM      4  C   UNL A   1      42.841 -20.347 -34.955  0.00  0.00    -0.025 A 
ATOM      5  C   UNL A   1      43.859 -19.404 -35.128  0.00  0.00    -0.041 A 
ATOM      6  C   UNL A   1      44.254 -19.026 -36.406  0.00  0.00    +0.005 A 
ENDROOT
BRANCH   1   7
ATOM      7  C   UNL A   1      44.102 -19.153 -38.853  0.00  0.00    +0.048 C 
BRANCH   7  13
ATOM      8  F   UNL A   1      44.515 -22.229 -42.619  0.00  0.00    -0.205 F 
ATOM      9  C   UNL A   1      44.990 -21.790 -41.447  0.00  0.00    +0.124 A 
ATOM     10  C   UNL A   1      46.117 -22.382 -40.895  0.00  0.00    -0.026 A 
ATOM     11  C   UNL A   1      46.605 -21.920 -39.675  0.00  0.00    -0.059 A 
ATOM     12  C   UNL A   1      45.958 -20.871 -39.014  0.00  0.00    -0.057 A 
ATOM     13  C   UNL A   1      44.814 -20.272 -39.569  0.00  0.00    -0.025 A 
ATOM     14  C   UNL A   1      44.337 -20.743 -40.802  0.00  0.00    -0.022 A 
ENDBRANCH   7  13
ENDBRANCH   1   7
BRANCH   4  15
ATOM     15  C   UNL A   1      42.376 -20.784 -33.578  0.00  0.00    +0.049 C 
BRANCH  15  16
ATOM     16  N   UNL A   1      40.941 -20.591 -33.396  0.00  0.00    -0.339 N 
ATOM     17  C   UNL A   1      40.333 -19.396 -33.093  0.00  0.00    +0.023 A 
ATOM     18  C   UNL A   1      38.975 -19.622 -32.976  0.00  0.00    -0.019 A 
ATOM     19  C   UNL A   1      38.744 -21.003 -33.217  0.00  0.00    +0.003 A 
ATOM     20  C   UNL A   1      37.587 -21.809 -33.233  0.00  0.00    -0.052 A 
ATOM     21  C   UNL A   1      37.695 -23.170 -33.531  0.00  0.00    -0.061 A 
ATOM     22  C   UNL A   1      38.934 -23.734 -33.813  0.00  0.00    -0.060 A 
ATOM     23  C   UNL A   1      40.097 -22.959 -33.801  0.00  0.00    -0.038 A 
ATOM     24  C   UNL A   1      39.984 -21.591 -33.496  0.00  0.00    +0.050 A 
ATOM     25  C   UNL A   1      37.998 -18.542 -32.648  0.00  0.00    -0.025 C 
ATOM     26  C   UNL A   1      38.614 -17.149 -32.873  0.00  0.00    -0.049 C 
ATOM     27  C   UNL A   1      40.041 -17.054 -32.307  0.00  0.00    -0.047 C 
ATOM     28  C   UNL A   1      40.997 -18.064 -32.968  0.00  0.00    -0.012 C 
ENDBRANCH  15  16
ENDBRANCH   4  15
TORSDOF 4
ENDMDL
MODEL 16
REMARK VINA RESULT:    -7.356      3.056      8.059
REMARK INTER + INTRA:          -9.836
REMARK INTER:                  -8.679
REMARK INTRA:                  -1.156
REMARK UNBOUND:                -0.759
REMARK  Name = cpd358.pdb
REMARK  4 active torsions:
REMARK  status: ('A' for Active; 'I' for Inactive)
REMARK    1  A    between atoms: C_6  and  C_7
REMARK    2  A    between atoms: C_7  and  N_8
REMARK    3  A    between atoms: C_11  and  C_12
REMARK    4  A    between atoms: C_12  and  N_13
REMARK                            x       y       z     vdW  Elec       q    Type
REMARK                         _______ _______ _______ _____ _____    ______ ____
ROOT
ATOM      1  N   UNL A   1      40.187 -21.213 -37.682  0.00  0.00    -0.349 N 
ATOM      2  C   UNL A   1      41.192 -22.072 -37.971  0.00  0.00    +0.005 A 
ATOM      3  C   UNL A   1      42.220 -21.701 -38.832  0.00  0.00    -0.041 A 
ATOM      4  C   UNL A   1      42.231 -20.425 -39.402  0.00  0.00    -0.025 A 
ATOM      5  C   UNL A   1      41.167 -19.569 -39.101  0.00  0.00    -0.041 A 
ATOM      6  C   UNL A   1      40.162 -19.978 -38.232  0.00  0.00    +0.005 A 
ENDROOT
BRANCH   1   7
ATOM      7  C   UNL A   1      39.113 -21.626 -36.746  0.00  0.00    +0.048 C 
BRANCH   7  13
ATOM      8  F   UNL A   1      41.472 -20.060 -32.771  0.00  0.00    -0.205 F 
ATOM      9  C   UNL A   1      40.846 -21.057 -33.407  0.00  0.00    +0.124 A 
ATOM     10  C   UNL A   1      40.733 -22.299 -32.798  0.00  0.00    -0.026 A 
ATOM     11  C   UNL A   1      40.081 -23.332 -33.467  0.00  0.00    -0.059 A 
ATOM     12  C   UNL A   1      39.551 -23.117 -34.743  0.00  0.00    -0.057 A 
ATOM     13  C   UNL A   1      39.667 -21.861 -35.364  0.00  0.00    -0.025 A 
ATOM     14  C   UNL A   1      40.321 -20.827 -34.676  0.00  0.00    -0.022 A 
ENDBRANCH   7  13
ENDBRANCH   1   7
BRANCH   4  15
ATOM     15  C   UNL A   1      43.350 -20.017 -40.341  0.00  0.00    +0.049 C 
BRANCH  15  16
ATOM     16  N   UNL A   1      44.667 -20.230 -39.752  0.00  0.00    -0.339 N 
ATOM     17  C   UNL A   1      45.188 -19.523 -38.694  0.00  0.00    +0.023 A 
ATOM     18  C   UNL A   1      46.461 -19.997 -38.445  0.00  0.00    -0.019 A 
ATOM     19  C   UNL A   1      46.730 -21.032 -39.381  0.00  0.00    +0.003 A 
ATOM     20  C   UNL A   1      47.839 -21.869 -39.617  0.00  0.00    -0.052 A 
ATOM     21  C   UNL A   1      47.780 -22.827 -40.633  0.00  0.00    -0.061 A 
ATOM     22  C   UNL A   1      46.636 -22.961 -41.411  0.00  0.00    -0.060 A 
ATOM     23  C   UNL A   1      45.522 -22.142 -41.200  0.00  0.00    -0.038 A 
ATOM     24  C   UNL A   1      45.588 -21.177 -40.180  0.00  0.00    +0.050 A 
ATOM     25  C   UNL A   1      47.332 -19.453 -37.361  0.00  0.00    -0.025 C 
ATOM     26  C   UNL A   1      46.510 -18.643 -36.342  0.00  0.00    -0.049 C 
ATOM     27  C   UNL A   1      45.509 -17.700 -37.032  0.00  0.00    -0.047 C 
ATOM     28  C   UNL A   1      44.494 -18.465 -37.901  0.00  0.00    -0.012 C 
ENDBRANCH  15  16
ENDBRANCH   4  15
TORSDOF 4
ENDMDL
MODEL 17
REMARK VINA RESULT:    -7.327      4.059      8.866
REMARK INTER + INTRA:          -9.800
REMARK INTER:                  -8.685
REMARK INTRA:                  -1.115
REMARK UNBOUND:                -0.759
REMARK  Name = cpd358.pdb
REMARK  4 active torsions:
REMARK  status: ('A' for Active; 'I' for Inactive)
REMARK    1  A    between atoms: C_6  and  C_7
REMARK    2  A    between atoms: C_7  and  N_8
REMARK    3  A    between atoms: C_11  and  C_12
REMARK    4  A    between atoms: C_12  and  N_13
REMARK                            x       y       z     vdW  Elec       q    Type
REMARK                         _______ _______ _______ _____ _____    ______ ____
ROOT
ATOM      1  N   UNL A   1      43.005 -19.676 -34.373  0.00  0.00    -0.349 N 
ATOM      2  C   UNL A   1      42.834 -20.067 -35.658  0.00  0.00    +0.005 A 
ATOM      3  C   UNL A   1      43.931 -20.324 -36.475  0.00  0.00    -0.041 A 
ATOM      4  C   UNL A   1      45.226 -20.192 -35.971  0.00  0.00    -0.025 A 
ATOM      5  C   UNL A   1      45.370 -19.765 -34.647  0.00  0.00    -0.041 A 
ATOM      6  C   UNL A   1      44.247 -19.523 -33.863  0.00  0.00    +0.005 A 
ENDROOT
BRANCH   1   7
ATOM      7  C   UNL A   1      41.819 -19.427 -33.517  0.00  0.00    +0.048 C 
BRANCH   7  13
ATOM      8  F   UNL A   1      41.163 -24.116 -32.334  0.00  0.00    -0.205 F 
ATOM      9  C   UNL A   1      40.656 -22.986 -32.840  0.00  0.00    +0.124 A 
ATOM     10  C   UNL A   1      39.348 -22.963 -33.300  0.00  0.00    -0.026 A 
ATOM     11  C   UNL A   1      38.827 -21.783 -33.827  0.00  0.00    -0.059 A 
ATOM     12  C   UNL A   1      39.623 -20.635 -33.894  0.00  0.00    -0.057 A 
ATOM     13  C   UNL A   1      40.950 -20.656 -33.432  0.00  0.00    -0.025 A 
ATOM     14  C   UNL A   1      41.460 -21.850 -32.898  0.00  0.00    -0.022 A 
ENDBRANCH   7  13
ENDBRANCH   1   7
BRANCH   4  15
ATOM     15  C   UNL A   1      46.424 -20.472 -36.860  0.00  0.00    +0.049 C 
BRANCH  15  16
ATOM     16  N   UNL A   1      46.376 -19.708 -38.102  0.00  0.00    -0.339 N 
ATOM     17  C   UNL A   1      46.016 -20.211 -39.330  0.00  0.00    +0.023 A 
ATOM     18  C   UNL A   1      46.120 -19.193 -40.258  0.00  0.00    -0.019 A 
ATOM     19  C   UNL A   1      46.557 -18.026 -39.575  0.00  0.00    +0.003 A 
ATOM     20  C   UNL A   1      46.839 -16.707 -39.983  0.00  0.00    -0.052 A 
ATOM     21  C   UNL A   1      47.243 -15.761 -39.037  0.00  0.00    -0.061 A 
ATOM     22  C   UNL A   1      47.367 -16.112 -37.697  0.00  0.00    -0.060 A 
ATOM     23  C   UNL A   1      47.097 -17.414 -37.266  0.00  0.00    -0.038 A 
ATOM     24  C   UNL A   1      46.694 -18.363 -38.222  0.00  0.00    +0.050 A 
ATOM     25  C   UNL A   1      45.809 -19.381 -41.706  0.00  0.00    -0.025 C 
ATOM     26  C   UNL A   1      44.990 -20.664 -41.936  0.00  0.00    -0.049 C 
ATOM     27  C   UNL A   1      45.551 -21.854 -41.138  0.00  0.00    -0.047 C 
ATOM     28  C   UNL A   1      45.537 -21.595 -39.621  0.00  0.00    -0.012 C 
ENDBRANCH  15  16
ENDBRANCH   4  15
TORSDOF 4
ENDMDL
MODEL 18
REMARK VINA RESULT:    -7.123      2.067      3.001
REMARK INTER + INTRA:          -9.548
REMARK INTER:                  -8.500
REMARK INTRA:                  -1.048
REMARK UNBOUND:                -0.759
REMARK  Name = cpd358.pdb
REMARK  4 active torsions:
REMARK  status: ('A' for Active; 'I' for Inactive)
REMARK    1  A    between atoms: C_6  and  C_7
REMARK    2  A    between atoms: C_7  and  N_8
REMARK    3  A    between atoms: C_11  and  C_12
REMARK    4  A    between atoms: C_12  and  N_13
REMARK                            x       y       z     vdW  Elec       q    Type
REMARK                         _______ _______ _______ _____ _____    ______ ____
ROOT
ATOM      1  N   UNL A   1      44.482 -19.886 -39.077  0.00  0.00    -0.349 N 
ATOM      2  C   UNL A   1      43.818 -18.709 -39.152  0.00  0.00    +0.005 A 
ATOM      3  C   UNL A   1      42.487 -18.615 -38.754  0.00  0.00    -0.041 A 
ATOM      4  C   UNL A   1      41.824 -19.740 -38.257  0.00  0.00    -0.025 A 
ATOM      5  C   UNL A   1      42.531 -20.946 -38.213  0.00  0.00    -0.041 A 
ATOM      6  C   UNL A   1      43.861 -20.995 -38.616  0.00  0.00    +0.005 A 
ENDROOT
BRANCH   1   7
ATOM      7  C   UNL A   1      45.905 -19.954 -39.490  0.00  0.00    +0.048 C 
BRANCH   7  13
ATOM      8  F   UNL A   1      48.290 -23.851 -41.206  0.00  0.00    -0.205 F 
ATOM      9  C   UNL A   1      47.315 -22.948 -41.367  0.00  0.00    +0.124 A 
ATOM     10  C   UNL A   1      46.520 -22.988 -42.502  0.00  0.00    -0.026 A 
ATOM     11  C   UNL A   1      45.508 -22.045 -42.663  0.00  0.00    -0.059 A 
ATOM     12  C   UNL A   1      45.302 -21.064 -41.687  0.00  0.00    -0.057 A 
ATOM     13  C   UNL A   1      46.109 -21.019 -40.537  0.00  0.00    -0.025 A 
ATOM     14  C   UNL A   1      47.121 -21.979 -40.385  0.00  0.00    -0.022 A 
ENDBRANCH   7  13
ENDBRANCH   1   7
BRANCH   4  15
ATOM     15  C   UNL A   1      40.374 -19.641 -37.822  0.00  0.00    +0.049 C 
BRANCH  15  16
ATOM     16  N   UNL A   1      40.196 -19.999 -36.419  0.00  0.00    -0.339 N 
ATOM     17  C   UNL A   1      40.480 -19.184 -35.349  0.00  0.00    +0.023 A 
ATOM     18  C   UNL A   1      40.205 -19.886 -34.191  0.00  0.00    -0.019 A 
ATOM     19  C   UNL A   1      39.735 -21.174 -34.564  0.00  0.00    +0.003 A 
ATOM     20  C   UNL A   1      39.312 -22.304 -33.838  0.00  0.00    -0.052 A 
ATOM     21  C   UNL A   1      38.879 -23.444 -34.520  0.00  0.00    -0.061 A 
ATOM     22  C   UNL A   1      38.863 -23.470 -35.910  0.00  0.00    -0.060 A 
ATOM     23  C   UNL A   1      39.281 -22.364 -36.656  0.00  0.00    -0.038 A 
ATOM     24  C   UNL A   1      39.719 -21.220 -35.964  0.00  0.00    +0.050 A 
ATOM     25  C   UNL A   1      40.402 -19.309 -32.828  0.00  0.00    -0.025 C 
ATOM     26  C   UNL A   1      40.528 -17.776 -32.886  0.00  0.00    -0.049 C 
ATOM     27  C   UNL A   1      41.457 -17.320 -34.025  0.00  0.00    -0.047 C 
ATOM     28  C   UNL A   1      40.946 -17.767 -35.406  0.00  0.00    -0.012 C 
ENDBRANCH  15  16
ENDBRANCH   4  15
TORSDOF 4
ENDMDL
MODEL 19
REMARK VINA RESULT:    -7.050      4.244      5.594
REMARK INTER + INTRA:          -9.457
REMARK INTER:                  -8.359
REMARK INTRA:                  -1.099
REMARK UNBOUND:                -0.759
REMARK  Name = cpd358.pdb
REMARK  4 active torsions:
REMARK  status: ('A' for Active; 'I' for Inactive)
REMARK    1  A    between atoms: C_6  and  C_7
REMARK    2  A    between atoms: C_7  and  N_8
REMARK    3  A    between atoms: C_11  and  C_12
REMARK    4  A    between atoms: C_12  and  N_13
REMARK                            x       y       z     vdW  Elec       q    Type
REMARK                         _______ _______ _______ _____ _____    ______ ____
ROOT
ATOM      1  N   UNL A   1      45.633 -18.936 -38.414  0.00  0.00    -0.349 N 
ATOM      2  C   UNL A   1      46.606 -18.933 -37.472  0.00  0.00    +0.005 A 
ATOM      3  C   UNL A   1      46.322 -19.275 -36.154  0.00  0.00    -0.041 A 
ATOM      4  C   UNL A   1      45.024 -19.640 -35.789  0.00  0.00    -0.025 A 
ATOM      5  C   UNL A   1      44.037 -19.611 -36.779  0.00  0.00    -0.041 A 
ATOM      6  C   UNL A   1      44.364 -19.267 -38.086  0.00  0.00    +0.005 A 
ENDROOT
BRANCH   1   7
ATOM      7  C   UNL A   1      45.967 -18.585 -39.815  0.00  0.00    +0.048 C 
BRANCH   7  13
ATOM      8  F   UNL A   1      46.532 -23.177 -41.366  0.00  0.00    -0.205 F 
ATOM      9  C   UNL A   1      45.920 -21.995 -41.501  0.00  0.00    +0.124 A 
ATOM     10  C   UNL A   1      44.986 -21.815 -42.510  0.00  0.00    -0.026 A 
ATOM     11  C   UNL A   1      44.353 -20.582 -42.645  0.00  0.00    -0.059 A 
ATOM     12  C   UNL A   1      44.664 -19.535 -41.771  0.00  0.00    -0.057 A 
ATOM     13  C   UNL A   1      45.614 -19.713 -40.750  0.00  0.00    -0.025 A 
ATOM     14  C   UNL A   1      46.239 -20.963 -40.622  0.00  0.00    -0.022 A 
ENDBRANCH   7  13
ENDBRANCH   1   7
BRANCH   4  15
ATOM     15  C   UNL A   1      44.711 -20.014 -34.352  0.00  0.00    +0.049 C 
BRANCH  15  16
ATOM     16  N   UNL A   1      43.614 -19.225 -33.805  0.00  0.00    -0.339 N 
ATOM     17  C   UNL A   1      42.365 -19.709 -33.495  0.00  0.00    +0.023 A 
ATOM     18  C   UNL A   1      41.600 -18.656 -33.029  0.00  0.00    -0.019 A 
ATOM     19  C   UNL A   1      42.408 -17.488 -33.054  0.00  0.00    +0.003 A 
ATOM     20  C   UNL A   1      42.184 -16.141 -32.708  0.00  0.00    -0.052 A 
ATOM     21  C   UNL A   1      43.219 -15.211 -32.833  0.00  0.00    -0.061 A 
ATOM     22  C   UNL A   1      44.470 -15.607 -33.296  0.00  0.00    -0.060 A 
ATOM     23  C   UNL A   1      44.719 -16.936 -33.649  0.00  0.00    -0.038 A 
ATOM     24  C   UNL A   1      43.672 -17.867 -33.525  0.00  0.00    +0.050 A 
ATOM     25  C   UNL A   1      40.178 -18.815 -32.601  0.00  0.00    -0.025 C 
ATOM     26  C   UNL A   1      39.835 -20.294 -32.350  0.00  0.00    -0.049 C 
ATOM     27  C   UNL A   1      40.379 -21.206 -33.464  0.00  0.00    -0.047 C 
ATOM     28  C   UNL A   1      41.912 -21.129 -33.581  0.00  0.00    -0.012 C 
ENDBRANCH  15  16
ENDBRANCH   4  15
TORSDOF 4
ENDMDL
MODEL 20
REMARK VINA RESULT:    -6.778      3.030      4.307
REMARK INTER + INTRA:          -9.122
REMARK INTER:                  -8.259
REMARK INTRA:                  -0.863
REMARK UNBOUND:                -0.759
REMARK  Name = cpd358.pdb
REMARK  4 active torsions:
REMARK  status: ('A' for Active; 'I' for Inactive)
REMARK    1  A    between atoms: C_6  and  C_7
REMARK    2  A    between atoms: C_7  and  N_8
REMARK    3  A    between atoms: C_11  and  C_12
REMARK    4  A    between atoms: C_12  and  N_13
REMARK                            x       y       z     vdW  Elec       q    Type
REMARK                         _______ _______ _______ _____ _____    ______ ____
ROOT
ATOM      1  N   UNL A   1      44.432 -18.990 -39.713  0.00  0.00    -0.349 N 
ATOM      2  C   UNL A   1      44.185 -20.068 -38.933  0.00  0.00    +0.005 A 
ATOM      3  C   UNL A   1      43.045 -20.126 -38.137  0.00  0.00    -0.041 A 
ATOM      4  C   UNL A   1      42.132 -19.069 -38.146  0.00  0.00    -0.025 A 
ATOM      5  C   UNL A   1      42.426 -17.959 -38.944  0.00  0.00    -0.041 A 
ATOM      6  C   UNL A   1      43.575 -17.945 -39.728  0.00  0.00    +0.005 A 
ENDROOT
BRANCH   1   7
ATOM      7  C   UNL A   1      45.645 -18.963 -40.566  0.00  0.00    +0.048 C 
BRANCH   7  13
ATOM      8  F   UNL A   1      48.245 -23.026 -41.304  0.00  0.00    -0.205 F 
ATOM      9  C   UNL A   1      47.165 -22.294 -41.599  0.00  0.00    +0.124 A 
ATOM     10  C   UNL A   1      46.260 -22.752 -42.546  0.00  0.00    -0.026 A 
ATOM     11  C   UNL A   1      45.139 -21.984 -42.849  0.00  0.00    -0.059 A 
ATOM     12  C   UNL A   1      44.933 -20.759 -42.206  0.00  0.00    -0.057 A 
ATOM     13  C   UNL A   1      45.851 -20.290 -41.250  0.00  0.00    -0.025 A 
ATOM     14  C   UNL A   1      46.973 -21.077 -40.949  0.00  0.00    -0.022 A 
ENDBRANCH   7  13
ENDBRANCH   1   7
BRANCH   4  15
ATOM     15  C   UNL A   1      40.887 -19.128 -37.279  0.00  0.00    +0.049 C 
BRANCH  15  16
ATOM     16  N   UNL A   1      41.187 -19.547 -35.915  0.00  0.00    -0.339 N 
ATOM     17  C   UNL A   1      40.726 -20.696 -35.317  0.00  0.00    +0.023 A 
ATOM     18  C   UNL A   1      41.203 -20.728 -34.021  0.00  0.00    -0.019 A 
ATOM     19  C   UNL A   1      41.984 -19.559 -33.818  0.00  0.00    +0.003 A 
ATOM     20  C   UNL A   1      42.708 -19.049 -32.721  0.00  0.00    -0.052 A 
ATOM     21  C   UNL A   1      43.408 -17.846 -32.852  0.00  0.00    -0.061 A 
ATOM     22  C   UNL A   1      43.396 -17.151 -34.055  0.00  0.00    -0.060 A 
ATOM     23  C   UNL A   1      42.685 -17.632 -35.158  0.00  0.00    -0.038 A 
ATOM     24  C   UNL A   1      41.979 -18.841 -35.021  0.00  0.00    +0.050 A 
ATOM     25  C   UNL A   1      40.895 -21.837 -33.070  0.00  0.00    -0.025 C 
ATOM     26  C   UNL A   1      40.369 -23.077 -33.815  0.00  0.00    -0.049 C 
ATOM     27  C   UNL A   1      39.326 -22.706 -34.883  0.00  0.00    -0.047 C 
ATOM     28  C   UNL A   1      39.902 -21.765 -35.956  0.00  0.00    -0.012 C 
ENDBRANCH  15  16
ENDBRANCH   4  15
TORSDOF 4
ENDMDL
