MODEL 1
REMARK VINA RESULT:    -7.822      0.000      0.000
REMARK INTER + INTRA:         -13.928
REMARK INTER:                 -13.080
REMARK INTRA:                  -0.848
REMARK UNBOUND:                -0.848
REMARK  Name = cpd364.pdb
REMARK  12 active torsions:
REMARK  status: ('A' for Active; 'I' for Inactive)
REMARK    1  A    between atoms: C_2  and  C_3
REMARK    2  A    between atoms: C_3  and  S_4
REMARK    3  A    between atoms: S_4  and  C_5
REMARK    4  A    between atoms: C_5  and  C_6
REMARK    5  A    between atoms: C_6  and  N_7
REMARK    6  A    between atoms: C_6  and  C_8
REMARK    7  A    between atoms: N_10  and  C_11
REMARK    8  A    between atoms: C_11  and  C_12
REMARK    9  A    between atoms: C_12  and  C_13
REMARK   10  A    between atoms: C_13  and  C_14
REMARK   11  A    between atoms: C_14  and  N_15
REMARK   12  A    between atoms: N_15  and  C_16
REMARK                            x       y       z     vdW  Elec       q    Type
REMARK                         _______ _______ _______ _____ _____    ______ ____
ROOT
ATOM      1  C   UNL     1      35.173 -33.061 -30.525  0.00  0.00    -0.036 C 
ENDROOT
BRANCH   1   2
ATOM      2  C   UNL     1      34.355 -32.229 -31.512  0.00  0.00    -0.036 C 
BRANCH   2   3
ATOM      3  C   UNL     1      32.862 -32.533 -31.406  0.00  0.00    +0.012 C 
BRANCH   3   6
ATOM      4  C   UNL     1      31.109 -32.043 -29.722  0.00  0.00    +0.231 C 
ATOM      5  O   UNL     1      30.683 -33.194 -29.740  0.00  0.00    -0.274 OA
ATOM      6  N   UNL     1      32.193 -31.640 -30.483  0.00  0.00    -0.314 N 
ATOM      7  H   UNL     1      32.519 -30.715 -30.395  0.00  0.00    +0.000 HD
BRANCH   4   8
ATOM      8  C   UNL     1      30.488 -30.898 -28.889  0.00  0.00    +0.091 C 
BRANCH   8   9
ATOM      9  N   UNL     1      31.455 -29.795 -28.710  0.00  0.00    -0.319 N 
ATOM     10  H   UNL     1      30.986 -28.999 -28.278  0.00  0.00    +0.000 HD
ATOM     11  H   UNL     1      31.827 -29.518 -29.619  0.00  0.00    +0.000 HD
ATOM     12  H   UNL     1      32.219 -30.107 -28.111  0.00  0.00    +0.000 HD
ENDBRANCH   8   9
BRANCH   8  13
ATOM     13  C   UNL     1      29.203 -30.411 -29.573  0.00  0.00    +0.018 C 
BRANCH  13  14
ATOM     14  S   UNL     1      29.582 -29.225 -30.921  0.00  0.00    -0.146 S 
BRANCH  14  15
ATOM     15  C   UNL     1      28.485 -29.892 -32.210  0.00  0.00    +0.055 C 
BRANCH  15  17
ATOM     16  C   UNL     1      28.912 -32.482 -32.689  0.00  0.00    -0.118 C 
ATOM     17  C   UNL     1      28.712 -31.317 -32.470  0.00  0.00    -0.095 C 
ENDBRANCH  15  17
ENDBRANCH  14  15
ENDBRANCH  13  14
ENDBRANCH   8  13
ENDBRANCH   4   8
ENDBRANCH   3   6
ENDBRANCH   2   3
ENDBRANCH   1   2
BRANCH   1  18
ATOM     18  C   UNL     1      36.493 -33.532 -31.143  0.00  0.00    +0.009 C 
BRANCH  18  19
ATOM     19  N   UNL     1      36.353 -34.928 -31.582  0.00  0.00    -0.343 N 
ATOM     20  H   UNL     1      35.740 -35.220 -32.294  0.00  0.00    +0.000 HD
BRANCH  19  21
ATOM     21  C   UNL     1      37.210 -35.812 -30.857  0.00  0.00    +0.041 A 
ATOM     22  C   UNL     1      38.537 -36.021 -31.289  0.00  0.00    -0.005 A 
ATOM     23  C   UNL     1      39.348 -36.853 -30.512  0.00  0.00    +0.047 A 
ATOM     24  N   UNL     1      38.942 -37.408 -29.346  0.00  0.00    -0.251 NA
ATOM     25  C   UNL     1      37.685 -37.201 -28.931  0.00  0.00    +0.073 A 
ATOM     26  C   UNL     1      37.286 -37.792 -27.739  0.00  0.00    -0.036 A 
ATOM     27  C   UNL     1      35.990 -37.655 -27.241  0.00  0.00    -0.060 A 
ATOM     28  C   UNL     1      35.058 -36.919 -27.957  0.00  0.00    -0.061 A 
ATOM     29  C   UNL     1      35.438 -36.315 -29.155  0.00  0.00    -0.051 A 
ATOM     30  C   UNL     1      36.761 -36.422 -29.652  0.00  0.00    +0.021 A 
ATOM     31  C   UNL     1      40.774 -37.157 -30.894  0.00  0.00    -0.010 C 
ATOM     32  C   UNL     1      41.058 -36.928 -32.374  0.00  0.00    -0.047 C 
ATOM     33  C   UNL     1      40.566 -35.547 -32.776  0.00  0.00    -0.049 C 
ATOM     34  C   UNL     1      39.054 -35.435 -32.583  0.00  0.00    -0.024 C 
ENDBRANCH  19  21
ENDBRANCH  18  19
ENDBRANCH   1  18
TORSDOF 12
ENDMDL
MODEL 2
REMARK VINA RESULT:    -7.550      2.090      2.875
REMARK INTER + INTRA:         -13.473
REMARK INTER:                 -11.805
REMARK INTRA:                  -1.668
REMARK UNBOUND:                -0.848
REMARK  Name = cpd364.pdb
REMARK  12 active torsions:
REMARK  status: ('A' for Active; 'I' for Inactive)
REMARK    1  A    between atoms: C_2  and  C_3
REMARK    2  A    between atoms: C_3  and  S_4
REMARK    3  A    between atoms: S_4  and  C_5
REMARK    4  A    between atoms: C_5  and  C_6
REMARK    5  A    between atoms: C_6  and  N_7
REMARK    6  A    between atoms: C_6  and  C_8
REMARK    7  A    between atoms: N_10  and  C_11
REMARK    8  A    between atoms: C_11  and  C_12
REMARK    9  A    between atoms: C_12  and  C_13
REMARK   10  A    between atoms: C_13  and  C_14
REMARK   11  A    between atoms: C_14  and  N_15
REMARK   12  A    between atoms: N_15  and  C_16
REMARK                            x       y       z     vdW  Elec       q    Type
REMARK                         _______ _______ _______ _____ _____    ______ ____
ROOT
ATOM      1  C   UNL     1      34.986 -33.356 -31.139  0.00  0.00    -0.036 C 
ENDROOT
BRANCH   1   2
ATOM      2  C   UNL     1      34.569 -32.713 -29.817  0.00  0.00    -0.036 C 
BRANCH   2   3
ATOM      3  C   UNL     1      33.396 -31.751 -30.001  0.00  0.00    +0.012 C 
BRANCH   3   6
ATOM      4  C   UNL     1      31.129 -32.753 -29.933  0.00  0.00    +0.231 C 
ATOM      5  O   UNL     1      31.115 -32.956 -31.143  0.00  0.00    -0.274 OA
ATOM      6  N   UNL     1      32.218 -32.196 -29.286  0.00  0.00    -0.314 N 
ATOM      7  H   UNL     1      32.190 -32.097 -28.306  0.00  0.00    +0.000 HD
BRANCH   4   8
ATOM      8  C   UNL     1      29.943 -33.054 -28.987  0.00  0.00    +0.091 C 
BRANCH   8   9
ATOM      9  N   UNL     1      28.728 -33.387 -29.758  0.00  0.00    -0.319 N 
ATOM     10  H   UNL     1      28.461 -32.588 -30.333  0.00  0.00    +0.000 HD
ATOM     11  H   UNL     1      27.969 -33.613 -29.116  0.00  0.00    +0.000 HD
ATOM     12  H   UNL     1      28.916 -34.191 -30.358  0.00  0.00    +0.000 HD
ENDBRANCH   8   9
BRANCH   8  13
ATOM     13  C   UNL     1      30.331 -34.193 -28.033  0.00  0.00    +0.018 C 
BRANCH  13  14
ATOM     14  S   UNL     1      30.078 -35.830 -28.822  0.00  0.00    -0.146 S 
BRANCH  14  15
ATOM     15  C   UNL     1      31.815 -36.342 -28.991  0.00  0.00    +0.055 C 
BRANCH  15  17
ATOM     16  C   UNL     1      32.685 -36.191 -31.509  0.00  0.00    -0.118 C 
ATOM     17  C   UNL     1      32.300 -36.262 -30.372  0.00  0.00    -0.095 C 
ENDBRANCH  15  17
ENDBRANCH  14  15
ENDBRANCH  13  14
ENDBRANCH   8  13
ENDBRANCH   4   8
ENDBRANCH   3   6
ENDBRANCH   2   3
ENDBRANCH   1   2
BRANCH   1  18
ATOM     18  C   UNL     1      36.460 -33.773 -31.124  0.00  0.00    +0.009 C 
BRANCH  18  19
ATOM     19  N   UNL     1      36.595 -35.103 -31.736  0.00  0.00    -0.343 N 
ATOM     20  H   UNL     1      36.127 -35.379 -32.557  0.00  0.00    +0.000 HD
BRANCH  19  21
ATOM     21  C   UNL     1      37.483 -35.948 -31.002  0.00  0.00    +0.041 A 
ATOM     22  C   UNL     1      38.808 -36.137 -31.451  0.00  0.00    -0.005 A 
ATOM     23  C   UNL     1      39.651 -36.930 -30.666  0.00  0.00    +0.047 A 
ATOM     24  N   UNL     1      39.275 -37.465 -29.481  0.00  0.00    -0.251 NA
ATOM     25  C   UNL     1      38.020 -37.276 -29.050  0.00  0.00    +0.073 A 
ATOM     26  C   UNL     1      37.654 -37.846 -27.838  0.00  0.00    -0.036 A 
ATOM     27  C   UNL     1      36.362 -37.727 -27.323  0.00  0.00    -0.060 A 
ATOM     28  C   UNL     1      35.402 -37.031 -28.042  0.00  0.00    -0.061 A 
ATOM     29  C   UNL     1      35.750 -36.448 -29.261  0.00  0.00    -0.051 A 
ATOM     30  C   UNL     1      37.067 -36.538 -29.776  0.00  0.00    +0.021 A 
ATOM     31  C   UNL     1      41.077 -37.210 -31.064  0.00  0.00    -0.010 C 
ATOM     32  C   UNL     1      41.332 -37.012 -32.552  0.00  0.00    -0.047 C 
ATOM     33  C   UNL     1      40.802 -35.654 -32.981  0.00  0.00    -0.049 C 
ATOM     34  C   UNL     1      39.291 -35.572 -32.767  0.00  0.00    -0.024 C 
ENDBRANCH  19  21
ENDBRANCH  18  19
ENDBRANCH   1  18
TORSDOF 12
ENDMDL
MODEL 3
REMARK VINA RESULT:    -7.310      3.407      5.298
REMARK INTER + INTRA:         -13.072
REMARK INTER:                 -10.720
REMARK INTRA:                  -2.353
REMARK UNBOUND:                -0.848
REMARK  Name = cpd364.pdb
REMARK  12 active torsions:
REMARK  status: ('A' for Active; 'I' for Inactive)
REMARK    1  A    between atoms: C_2  and  C_3
REMARK    2  A    between atoms: C_3  and  S_4
REMARK    3  A    between atoms: S_4  and  C_5
REMARK    4  A    between atoms: C_5  and  C_6
REMARK    5  A    between atoms: C_6  and  N_7
REMARK    6  A    between atoms: C_6  and  C_8
REMARK    7  A    between atoms: N_10  and  C_11
REMARK    8  A    between atoms: C_11  and  C_12
REMARK    9  A    between atoms: C_12  and  C_13
REMARK   10  A    between atoms: C_13  and  C_14
REMARK   11  A    between atoms: C_14  and  N_15
REMARK   12  A    between atoms: N_15  and  C_16
REMARK                            x       y       z     vdW  Elec       q    Type
REMARK                         _______ _______ _______ _____ _____    ______ ____
ROOT
ATOM      1  C   UNL     1      34.992 -32.850 -31.303  0.00  0.00    -0.036 C 
ENDROOT
BRANCH   1   2
ATOM      2  C   UNL     1      33.725 -33.418 -30.666  0.00  0.00    -0.036 C 
BRANCH   2   3
ATOM      3  C   UNL     1      32.645 -33.700 -31.710  0.00  0.00    +0.012 C 
BRANCH   3   6
ATOM      4  C   UNL     1      32.701 -36.137 -32.164  0.00  0.00    +0.231 C 
ATOM      5  O   UNL     1      33.757 -36.059 -32.785  0.00  0.00    -0.274 OA
ATOM      6  N   UNL     1      32.102 -35.036 -31.578  0.00  0.00    -0.314 N 
ATOM      7  H   UNL     1      31.279 -35.165 -31.054  0.00  0.00    +0.000 HD
BRANCH   4   8
ATOM      8  C   UNL     1      31.893 -37.442 -31.983  0.00  0.00    +0.091 C 
BRANCH   8   9
ATOM      9  N   UNL     1      30.495 -37.259 -32.424  0.00  0.00    -0.319 N 
ATOM     10  H   UNL     1      30.349 -37.755 -33.303  0.00  0.00    +0.000 HD
ATOM     11  H   UNL     1      30.308 -36.266 -32.559  0.00  0.00    +0.000 HD
ATOM     12  H   UNL     1      29.863 -37.630 -31.714  0.00  0.00    +0.000 HD
ENDBRANCH   8   9
BRANCH   8  13
ATOM     13  C   UNL     1      32.580 -38.578 -32.754  0.00  0.00    +0.018 C 
BRANCH  13  14
ATOM     14  S   UNL     1      33.144 -39.902 -31.616  0.00  0.00    -0.146 S 
BRANCH  14  15
ATOM     15  C   UNL     1      34.911 -39.480 -31.534  0.00  0.00    +0.055 C 
BRANCH  15  17
ATOM     16  C   UNL     1      36.245 -40.952 -29.752  0.00  0.00    -0.118 C 
ATOM     17  C   UNL     1      35.643 -40.283 -30.549  0.00  0.00    -0.095 C 
ENDBRANCH  15  17
ENDBRANCH  14  15
ENDBRANCH  13  14
ENDBRANCH   8  13
ENDBRANCH   4   8
ENDBRANCH   3   6
ENDBRANCH   2   3
ENDBRANCH   1   2
BRANCH   1  18
ATOM     18  C   UNL     1      36.245 -33.595 -30.827  0.00  0.00    +0.009 C 
BRANCH  18  19
ATOM     19  N   UNL     1      36.295 -34.918 -31.467  0.00  0.00    -0.343 N 
ATOM     20  H   UNL     1      35.864 -35.128 -32.326  0.00  0.00    +0.000 HD
BRANCH  19  21
ATOM     21  C   UNL     1      37.042 -35.862 -30.698  0.00  0.00    +0.041 A 
ATOM     22  C   UNL     1      38.416 -36.056 -30.959  0.00  0.00    -0.005 A 
ATOM     23  C   UNL     1      39.111 -36.952 -30.142  0.00  0.00    +0.047 A 
ATOM     24  N   UNL     1      38.547 -37.585 -29.087  0.00  0.00    -0.251 NA
ATOM     25  C   UNL     1      37.246 -37.392 -28.832  0.00  0.00    +0.073 A 
ATOM     26  C   UNL     1      36.686 -38.063 -27.752  0.00  0.00    -0.036 A 
ATOM     27  C   UNL     1      35.334 -37.947 -27.428  0.00  0.00    -0.060 A 
ATOM     28  C   UNL     1      34.510 -37.149 -28.209  0.00  0.00    -0.061 A 
ATOM     29  C   UNL     1      35.053 -36.465 -29.296  0.00  0.00    -0.051 A 
ATOM     30  C   UNL     1      36.431 -36.552 -29.614  0.00  0.00    +0.021 A 
ATOM     31  C   UNL     1      40.575 -37.245 -30.347  0.00  0.00    -0.010 C 
ATOM     32  C   UNL     1      41.059 -36.913 -31.753  0.00  0.00    -0.047 C 
ATOM     33  C   UNL     1      40.631 -35.501 -32.117  0.00  0.00    -0.049 C 
ATOM     34  C   UNL     1      39.107 -35.384 -32.124  0.00  0.00    -0.024 C 
ENDBRANCH  19  21
ENDBRANCH  18  19
ENDBRANCH   1  18
TORSDOF 12
ENDMDL
MODEL 4
REMARK VINA RESULT:    -7.023      2.487      2.885
REMARK INTER + INTRA:         -12.592
REMARK INTER:                 -11.361
REMARK INTRA:                  -1.231
REMARK UNBOUND:                -0.848
REMARK  Name = cpd364.pdb
REMARK  12 active torsions:
REMARK  status: ('A' for Active; 'I' for Inactive)
REMARK    1  A    between atoms: C_2  and  C_3
REMARK    2  A    between atoms: C_3  and  S_4
REMARK    3  A    between atoms: S_4  and  C_5
REMARK    4  A    between atoms: C_5  and  C_6
REMARK    5  A    between atoms: C_6  and  N_7
REMARK    6  A    between atoms: C_6  and  C_8
REMARK    7  A    between atoms: N_10  and  C_11
REMARK    8  A    between atoms: C_11  and  C_12
REMARK    9  A    between atoms: C_12  and  C_13
REMARK   10  A    between atoms: C_13  and  C_14
REMARK   11  A    between atoms: C_14  and  N_15
REMARK   12  A    between atoms: N_15  and  C_16
REMARK                            x       y       z     vdW  Elec       q    Type
REMARK                         _______ _______ _______ _____ _____    ______ ____
ROOT
ATOM      1  C   UNL     1      34.953 -32.907 -31.204  0.00  0.00    -0.036 C 
ENDROOT
BRANCH   1   2
ATOM      2  C   UNL     1      34.348 -32.346 -29.917  0.00  0.00    -0.036 C 
BRANCH   2   3
ATOM      3  C   UNL     1      32.828 -32.498 -29.895  0.00  0.00    +0.012 C 
BRANCH   3   6
ATOM      4  C   UNL     1      31.870 -34.114 -28.277  0.00  0.00    +0.231 C 
ATOM      5  O   UNL     1      31.635 -33.239 -27.448  0.00  0.00    -0.274 OA
ATOM      6  N   UNL     1      32.425 -33.835 -29.513  0.00  0.00    -0.314 N 
ATOM      7  H   UNL     1      32.550 -34.571 -30.156  0.00  0.00    +0.000 HD
BRANCH   4   8
ATOM      8  C   UNL     1      31.615 -35.621 -28.046  0.00  0.00    +0.091 C 
BRANCH   8   9
ATOM      9  N   UNL     1      31.766 -35.966 -26.617  0.00  0.00    -0.319 N 
ATOM     10  H   UNL     1      30.894 -35.766 -26.126  0.00  0.00    +0.000 HD
ATOM     11  H   UNL     1      32.520 -35.413 -26.211  0.00  0.00    +0.000 HD
ATOM     12  H   UNL     1      31.987 -36.958 -26.529  0.00  0.00    +0.000 HD
ENDBRANCH   8   9
BRANCH   8  13
ATOM     13  C   UNL     1      30.218 -35.987 -28.567  0.00  0.00    +0.018 C 
BRANCH  13  14
ATOM     14  S   UNL     1      28.926 -35.582 -27.329  0.00  0.00    -0.146 S 
BRANCH  14  15
ATOM     15  C   UNL     1      27.723 -34.764 -28.422  0.00  0.00    +0.055 C 
BRANCH  15  17
ATOM     16  C   UNL     1      28.789 -32.774 -29.844  0.00  0.00    -0.118 C 
ATOM     17  C   UNL     1      28.312 -33.667 -29.196  0.00  0.00    -0.095 C 
ENDBRANCH  15  17
ENDBRANCH  14  15
ENDBRANCH  13  14
ENDBRANCH   8  13
ENDBRANCH   4   8
ENDBRANCH   3   6
ENDBRANCH   2   3
ENDBRANCH   1   2
BRANCH   1  18
ATOM     18  C   UNL     1      36.335 -33.522 -30.956  0.00  0.00    +0.009 C 
BRANCH  18  19
ATOM     19  N   UNL     1      36.399 -34.845 -31.595  0.00  0.00    -0.343 N 
ATOM     20  H   UNL     1      35.921 -35.078 -32.424  0.00  0.00    +0.000 HD
BRANCH  19  21
ATOM     21  C   UNL     1      37.234 -35.754 -30.874  0.00  0.00    +0.041 A 
ATOM     22  C   UNL     1      38.554 -35.996 -31.310  0.00  0.00    -0.005 A 
ATOM     23  C   UNL     1      39.345 -36.851 -30.538  0.00  0.00    +0.047 A 
ATOM     24  N   UNL     1      38.926 -37.400 -29.374  0.00  0.00    -0.251 NA
ATOM     25  C   UNL     1      37.676 -37.161 -28.955  0.00  0.00    +0.073 A 
ATOM     26  C   UNL     1      37.265 -37.746 -27.764  0.00  0.00    -0.036 A 
ATOM     27  C   UNL     1      35.973 -37.578 -27.263  0.00  0.00    -0.060 A 
ATOM     28  C   UNL     1      35.059 -36.815 -27.974  0.00  0.00    -0.061 A 
ATOM     29  C   UNL     1      35.453 -36.216 -29.171  0.00  0.00    -0.051 A 
ATOM     30  C   UNL     1      36.771 -36.356 -29.671  0.00  0.00    +0.021 A 
ATOM     31  C   UNL     1      40.761 -37.190 -30.924  0.00  0.00    -0.010 C 
ATOM     32  C   UNL     1      41.048 -36.963 -32.403  0.00  0.00    -0.047 C 
ATOM     33  C   UNL     1      40.592 -35.569 -32.800  0.00  0.00    -0.049 C 
ATOM     34  C   UNL     1      39.084 -35.418 -32.604  0.00  0.00    -0.024 C 
ENDBRANCH  19  21
ENDBRANCH  18  19
ENDBRANCH   1  18
TORSDOF 12
ENDMDL
MODEL 5
REMARK VINA RESULT:    -6.991      3.875      6.718
REMARK INTER + INTRA:         -12.538
REMARK INTER:                 -10.758
REMARK INTRA:                  -1.780
REMARK UNBOUND:                -0.848
REMARK  Name = cpd364.pdb
REMARK  12 active torsions:
REMARK  status: ('A' for Active; 'I' for Inactive)
REMARK    1  A    between atoms: C_2  and  C_3
REMARK    2  A    between atoms: C_3  and  S_4
REMARK    3  A    between atoms: S_4  and  C_5
REMARK    4  A    between atoms: C_5  and  C_6
REMARK    5  A    between atoms: C_6  and  N_7
REMARK    6  A    between atoms: C_6  and  C_8
REMARK    7  A    between atoms: N_10  and  C_11
REMARK    8  A    between atoms: C_11  and  C_12
REMARK    9  A    between atoms: C_12  and  C_13
REMARK   10  A    between atoms: C_13  and  C_14
REMARK   11  A    between atoms: C_14  and  N_15
REMARK   12  A    between atoms: N_15  and  C_16
REMARK                            x       y       z     vdW  Elec       q    Type
REMARK                         _______ _______ _______ _____ _____    ______ ____
ROOT
ATOM      1  C   UNL     1      34.160 -33.511 -31.040  0.00  0.00    -0.036 C 
ENDROOT
BRANCH   1   2
ATOM      2  C   UNL     1      33.465 -34.441 -32.033  0.00  0.00    -0.036 C 
BRANCH   2   3
ATOM      3  C   UNL     1      32.370 -35.268 -31.362  0.00  0.00    +0.012 C 
BRANCH   3   6
ATOM      4  C   UNL     1      31.978 -37.646 -30.778  0.00  0.00    +0.231 C 
ATOM      5  O   UNL     1      31.256 -37.358 -29.828  0.00  0.00    -0.274 OA
ATOM      6  N   UNL     1      32.540 -36.686 -31.601  0.00  0.00    -0.314 N 
ATOM      7  H   UNL     1      33.075 -36.977 -32.375  0.00  0.00    +0.000 HD
BRANCH   4   8
ATOM      8  C   UNL     1      32.379 -39.090 -31.160  0.00  0.00    +0.091 C 
BRANCH   8   9
ATOM      9  N   UNL     1      31.191 -39.882 -31.537  0.00  0.00    -0.319 N 
ATOM     10  H   UNL     1      31.457 -40.860 -31.651  0.00  0.00    +0.000 HD
ATOM     11  H   UNL     1      30.810 -39.528 -32.415  0.00  0.00    +0.000 HD
ATOM     12  H   UNL     1      30.484 -39.805 -30.805  0.00  0.00    +0.000 HD
ENDBRANCH   8   9
BRANCH   8  13
ATOM     13  C   UNL     1      33.408 -39.047 -32.298  0.00  0.00    +0.018 C 
BRANCH  13  14
ATOM     14  S   UNL     1      34.297 -40.646 -32.444  0.00  0.00    -0.146 S 
BRANCH  14  15
ATOM     15  C   UNL     1      35.772 -40.248 -31.457  0.00  0.00    +0.055 C 
BRANCH  15  17
ATOM     16  C   UNL     1      35.627 -41.147 -28.948  0.00  0.00    -0.118 C 
ATOM     17  C   UNL     1      35.688 -40.749 -30.081  0.00  0.00    -0.095 C 
ENDBRANCH  15  17
ENDBRANCH  14  15
ENDBRANCH  13  14
ENDBRANCH   8  13
ENDBRANCH   4   8
ENDBRANCH   3   6
ENDBRANCH   2   3
ENDBRANCH   1   2
BRANCH   1  18
ATOM     18  C   UNL     1      35.665 -33.789 -30.965  0.00  0.00    +0.009 C 
BRANCH  18  19
ATOM     19  N   UNL     1      35.951 -35.087 -31.593  0.00  0.00    -0.343 N 
ATOM     20  H   UNL     1      35.533 -35.396 -32.428  0.00  0.00    +0.000 HD
BRANCH  19  21
ATOM     21  C   UNL     1      36.905 -35.849 -30.850  0.00  0.00    +0.041 A 
ATOM     22  C   UNL     1      36.506 -36.534 -29.682  0.00  0.00    -0.005 A 
ATOM     23  C   UNL     1      37.467 -37.307 -29.024  0.00  0.00    +0.047 A 
ATOM     24  N   UNL     1      38.728 -37.476 -29.487  0.00  0.00    -0.251 NA
ATOM     25  C   UNL     1      39.103 -36.834 -30.602  0.00  0.00    +0.073 A 
ATOM     26  C   UNL     1      40.406 -37.012 -31.049  0.00  0.00    -0.036 A 
ATOM     27  C   UNL     1      40.894 -36.362 -32.184  0.00  0.00    -0.060 A 
ATOM     28  C   UNL     1      40.066 -35.501 -32.887  0.00  0.00    -0.061 A 
ATOM     29  C   UNL     1      38.754 -35.310 -32.456  0.00  0.00    -0.051 A 
ATOM     30  C   UNL     1      38.239 -35.989 -31.324  0.00  0.00    +0.021 A 
ATOM     31  C   UNL     1      37.150 -38.063 -27.760  0.00  0.00    -0.010 C 
ATOM     32  C   UNL     1      35.933 -37.515 -27.025  0.00  0.00    -0.047 C 
ATOM     33  C   UNL     1      34.773 -37.378 -27.997  0.00  0.00    -0.049 C 
ATOM     34  C   UNL     1      35.115 -36.386 -29.108  0.00  0.00    -0.024 C 
ENDBRANCH  19  21
ENDBRANCH  18  19
ENDBRANCH   1  18
TORSDOF 12
ENDMDL
MODEL 6
REMARK VINA RESULT:    -6.799     17.282     19.593
REMARK INTER + INTRA:         -12.217
REMARK INTER:                 -11.055
REMARK INTRA:                  -1.163
REMARK UNBOUND:                -0.848
REMARK  Name = cpd364.pdb
REMARK  12 active torsions:
REMARK  status: ('A' for Active; 'I' for Inactive)
REMARK    1  A    between atoms: C_2  and  C_3
REMARK    2  A    between atoms: C_3  and  S_4
REMARK    3  A    between atoms: S_4  and  C_5
REMARK    4  A    between atoms: C_5  and  C_6
REMARK    5  A    between atoms: C_6  and  N_7
REMARK    6  A    between atoms: C_6  and  C_8
REMARK    7  A    between atoms: N_10  and  C_11
REMARK    8  A    between atoms: C_11  and  C_12
REMARK    9  A    between atoms: C_12  and  C_13
REMARK   10  A    between atoms: C_13  and  C_14
REMARK   11  A    between atoms: C_14  and  N_15
REMARK   12  A    between atoms: N_15  and  C_16
REMARK                            x       y       z     vdW  Elec       q    Type
REMARK                         _______ _______ _______ _____ _____    ______ ____
ROOT
ATOM      1  C   UNL     1      46.372 -17.694 -38.050  0.00  0.00    -0.036 C 
ENDROOT
BRANCH   1   2
ATOM      2  C   UNL     1      47.222 -17.002 -36.986  0.00  0.00    -0.036 C 
BRANCH   2   3
ATOM      3  C   UNL     1      46.451 -16.818 -35.679  0.00  0.00    +0.012 C 
BRANCH   3   6
ATOM      4  C   UNL     1      45.916 -19.101 -34.874  0.00  0.00    +0.231 C 
ATOM      5  O   UNL     1      47.063 -19.299 -34.484  0.00  0.00    -0.274 OA
ATOM      6  N   UNL     1      45.521 -17.903 -35.444  0.00  0.00    -0.314 N 
ATOM      7  H   UNL     1      44.577 -17.785 -35.698  0.00  0.00    +0.000 HD
BRANCH   4   8
ATOM      8  C   UNL     1      44.784 -20.153 -34.817  0.00  0.00    +0.091 C 
BRANCH   8   9
ATOM      9  N   UNL     1      44.980 -21.073 -33.678  0.00  0.00    -0.319 N 
ATOM     10  H   UNL     1      45.919 -21.469 -33.719  0.00  0.00    +0.000 HD
ATOM     11  H   UNL     1      44.291 -21.824 -33.726  0.00  0.00    +0.000 HD
ATOM     12  H   UNL     1      44.864 -20.562 -32.803  0.00  0.00    +0.000 HD
ENDBRANCH   8   9
BRANCH   8  13
ATOM     13  C   UNL     1      43.428 -19.436 -34.730  0.00  0.00    +0.018 C 
BRANCH  13  14
ATOM     14  S   UNL     1      43.005 -19.033 -32.991  0.00  0.00    -0.146 S 
BRANCH  14  15
ATOM     15  C   UNL     1      41.314 -19.703 -32.942  0.00  0.00    +0.055 C 
BRANCH  15  17
ATOM     16  C   UNL     1      41.242 -22.295 -32.308  0.00  0.00    -0.118 C 
ATOM     17  C   UNL     1      41.275 -21.125 -32.586  0.00  0.00    -0.095 C 
ENDBRANCH  15  17
ENDBRANCH  14  15
ENDBRANCH  13  14
ENDBRANCH   8  13
ENDBRANCH   4   8
ENDBRANCH   3   6
ENDBRANCH   2   3
ENDBRANCH   1   2
BRANCH   1  18
ATOM     18  C   UNL     1      47.126 -18.855 -38.707  0.00  0.00    +0.009 C 
BRANCH  18  19
ATOM     19  N   UNL     1      46.565 -20.129 -38.233  0.00  0.00    -0.343 N 
ATOM     20  H   UNL     1      46.590 -20.423 -37.294  0.00  0.00    +0.000 HD
BRANCH  19  21
ATOM     21  C   UNL     1      45.979 -20.889 -39.291  0.00  0.00    +0.041 A 
ATOM     22  C   UNL     1      44.605 -20.753 -39.582  0.00  0.00    -0.005 A 
ATOM     23  C   UNL     1      44.095 -21.479 -40.662  0.00  0.00    +0.047 A 
ATOM     24  N   UNL     1      44.864 -22.247 -41.469  0.00  0.00    -0.251 NA
ATOM     25  C   UNL     1      46.171 -22.368 -41.199  0.00  0.00    +0.073 A 
ATOM     26  C   UNL     1      46.937 -23.173 -42.033  0.00  0.00    -0.036 A 
ATOM     27  C   UNL     1      48.300 -23.381 -41.814  0.00  0.00    -0.060 A 
ATOM     28  C   UNL     1      48.916 -22.781 -40.727  0.00  0.00    -0.061 A 
ATOM     29  C   UNL     1      48.166 -21.967 -39.879  0.00  0.00    -0.051 A 
ATOM     30  C   UNL     1      46.789 -21.725 -40.111  0.00  0.00    +0.021 A 
ATOM     31  C   UNL     1      42.639 -21.418 -41.045  0.00  0.00    -0.010 C 
ATOM     32  C   UNL     1      41.741 -20.954 -39.906  0.00  0.00    -0.047 C 
ATOM     33  C   UNL     1      42.300 -19.673 -39.309  0.00  0.00    -0.049 C 
ATOM     34  C   UNL     1      43.689 -19.915 -38.719  0.00  0.00    -0.024 C 
ENDBRANCH  19  21
ENDBRANCH  18  19
ENDBRANCH   1  18
TORSDOF 12
ENDMDL
MODEL 7
REMARK VINA RESULT:    -6.703      1.904      4.294
REMARK INTER + INTRA:         -12.056
REMARK INTER:                 -11.340
REMARK INTRA:                  -0.717
REMARK UNBOUND:                -0.848
REMARK  Name = cpd364.pdb
REMARK  12 active torsions:
REMARK  status: ('A' for Active; 'I' for Inactive)
REMARK    1  A    between atoms: C_2  and  C_3
REMARK    2  A    between atoms: C_3  and  S_4
REMARK    3  A    between atoms: S_4  and  C_5
REMARK    4  A    between atoms: C_5  and  C_6
REMARK    5  A    between atoms: C_6  and  N_7
REMARK    6  A    between atoms: C_6  and  C_8
REMARK    7  A    between atoms: N_10  and  C_11
REMARK    8  A    between atoms: C_11  and  C_12
REMARK    9  A    between atoms: C_12  and  C_13
REMARK   10  A    between atoms: C_13  and  C_14
REMARK   11  A    between atoms: C_14  and  N_15
REMARK   12  A    between atoms: N_15  and  C_16
REMARK                            x       y       z     vdW  Elec       q    Type
REMARK                         _______ _______ _______ _____ _____    ______ ____
ROOT
ATOM      1  C   UNL     1      33.263 -34.861 -31.962  0.00  0.00    -0.036 C 
ENDROOT
BRANCH   1   2
ATOM      2  C   UNL     1      33.241 -33.681 -30.990  0.00  0.00    -0.036 C 
BRANCH   2   3
ATOM      3  C   UNL     1      32.449 -32.502 -31.552  0.00  0.00    +0.012 C 
BRANCH   3   6
ATOM      4  C   UNL     1      30.691 -31.677 -30.010  0.00  0.00    +0.231 C 
ATOM      5  O   UNL     1      29.879 -32.517 -30.389  0.00  0.00    -0.274 OA
ATOM      6  N   UNL     1      31.982 -31.618 -30.504  0.00  0.00    -0.314 N 
ATOM      7  H   UNL     1      32.604 -30.951 -30.131  0.00  0.00    +0.000 HD
BRANCH   4   8
ATOM      8  C   UNL     1      30.380 -30.572 -28.975  0.00  0.00    +0.091 C 
BRANCH   8   9
ATOM      9  N   UNL     1      31.599 -29.803 -28.647  0.00  0.00    -0.319 N 
ATOM     10  H   UNL     1      31.335 -28.900 -28.253  0.00  0.00    +0.000 HD
ATOM     11  H   UNL     1      32.147 -29.657 -29.495  0.00  0.00    +0.000 HD
ATOM     12  H   UNL     1      32.156 -30.322 -27.968  0.00  0.00    +0.000 HD
ENDBRANCH   8   9
BRANCH   8  13
ATOM     13  C   UNL     1      29.273 -29.660 -29.521  0.00  0.00    +0.018 C 
BRANCH  13  14
ATOM     14  S   UNL     1      28.238 -28.991 -28.162  0.00  0.00    -0.146 S 
BRANCH  14  15
ATOM     15  C   UNL     1      28.345 -27.219 -28.561  0.00  0.00    +0.055 C 
BRANCH  15  17
ATOM     16  C   UNL     1      27.879 -25.664 -26.443  0.00  0.00    -0.118 C 
ATOM     17  C   UNL     1      28.093 -26.358 -27.401  0.00  0.00    -0.095 C 
ENDBRANCH  15  17
ENDBRANCH  14  15
ENDBRANCH  13  14
ENDBRANCH   8  13
ENDBRANCH   4   8
ENDBRANCH   3   6
ENDBRANCH   2   3
ENDBRANCH   1   2
BRANCH   1  18
ATOM     18  C   UNL     1      34.661 -35.480 -32.066  0.00  0.00    +0.009 C 
BRANCH  18  19
ATOM     19  N   UNL     1      35.588 -34.734 -31.201  0.00  0.00    -0.343 N 
ATOM     20  H   UNL     1      35.576 -33.755 -31.100  0.00  0.00    +0.000 HD
BRANCH  19  21
ATOM     21  C   UNL     1      36.506 -35.594 -30.524  0.00  0.00    +0.041 A 
ATOM     22  C   UNL     1      36.082 -36.332 -29.397  0.00  0.00    -0.005 A 
ATOM     23  C   UNL     1      37.006 -37.199 -28.806  0.00  0.00    +0.047 A 
ATOM     24  N   UNL     1      38.250 -37.406 -29.297  0.00  0.00    -0.251 NA
ATOM     25  C   UNL     1      38.648 -36.713 -30.372  0.00  0.00    +0.073 A 
ATOM     26  C   UNL     1      39.935 -36.931 -30.850  0.00  0.00    -0.036 A 
ATOM     27  C   UNL     1      40.446 -36.236 -31.946  0.00  0.00    -0.060 A 
ATOM     28  C   UNL     1      39.659 -35.285 -32.579  0.00  0.00    -0.061 A 
ATOM     29  C   UNL     1      38.364 -35.052 -32.118  0.00  0.00    -0.051 A 
ATOM     30  C   UNL     1      37.826 -35.776 -31.025  0.00  0.00    +0.021 A 
ATOM     31  C   UNL     1      36.661 -38.019 -27.590  0.00  0.00    -0.010 C 
ATOM     32  C   UNL     1      35.484 -37.455 -26.803  0.00  0.00    -0.047 C 
ATOM     33  C   UNL     1      34.324 -37.190 -27.747  0.00  0.00    -0.049 C 
ATOM     34  C   UNL     1      34.708 -36.147 -28.796  0.00  0.00    -0.024 C 
ENDBRANCH  19  21
ENDBRANCH  18  19
ENDBRANCH   1  18
TORSDOF 12
ENDMDL
MODEL 8
REMARK VINA RESULT:    -6.689      1.243      3.498
REMARK INTER + INTRA:         -12.033
REMARK INTER:                 -11.248
REMARK INTRA:                  -0.785
REMARK UNBOUND:                -0.848
REMARK  Name = cpd364.pdb
REMARK  12 active torsions:
REMARK  status: ('A' for Active; 'I' for Inactive)
REMARK    1  A    between atoms: C_2  and  C_3
REMARK    2  A    between atoms: C_3  and  S_4
REMARK    3  A    between atoms: S_4  and  C_5
REMARK    4  A    between atoms: C_5  and  C_6
REMARK    5  A    between atoms: C_6  and  N_7
REMARK    6  A    between atoms: C_6  and  C_8
REMARK    7  A    between atoms: N_10  and  C_11
REMARK    8  A    between atoms: C_11  and  C_12
REMARK    9  A    between atoms: C_12  and  C_13
REMARK   10  A    between atoms: C_13  and  C_14
REMARK   11  A    between atoms: C_14  and  N_15
REMARK   12  A    between atoms: N_15  and  C_16
REMARK                            x       y       z     vdW  Elec       q    Type
REMARK                         _______ _______ _______ _____ _____    ______ ____
ROOT
ATOM      1  C   UNL     1      35.449 -32.781 -31.604  0.00  0.00    -0.036 C 
ENDROOT
BRANCH   1   2
ATOM      2  C   UNL     1      34.058 -32.306 -31.186  0.00  0.00    -0.036 C 
BRANCH   2   3
ATOM      3  C   UNL     1      33.499 -33.139 -30.034  0.00  0.00    +0.012 C 
BRANCH   3   6
ATOM      4  C   UNL     1      31.310 -32.188 -29.359  0.00  0.00    +0.231 C 
ATOM      5  O   UNL     1      30.715 -32.750 -30.274  0.00  0.00    -0.274 OA
ATOM      6  N   UNL     1      32.669 -32.348 -29.150  0.00  0.00    -0.314 N 
ATOM      7  H   UNL     1      33.085 -31.908 -28.373  0.00  0.00    +0.000 HD
BRANCH   4   8
ATOM      8  C   UNL     1      30.646 -31.218 -28.356  0.00  0.00    +0.091 C 
BRANCH   8   9
ATOM      9  N   UNL     1      31.118 -29.835 -28.572  0.00  0.00    -0.319 N 
ATOM     10  H   UNL     1      30.755 -29.233 -27.833  0.00  0.00    +0.000 HD
ATOM     11  H   UNL     1      30.787 -29.501 -29.477  0.00  0.00    +0.000 HD
ATOM     12  H   UNL     1      32.138 -29.817 -28.556  0.00  0.00    +0.000 HD
ENDBRANCH   8   9
BRANCH   8  13
ATOM     13  C   UNL     1      29.119 -31.316 -28.487  0.00  0.00    +0.018 C 
BRANCH  13  14
ATOM     14  S   UNL     1      28.335 -29.666 -28.319  0.00  0.00    -0.146 S 
BRANCH  14  15
ATOM     15  C   UNL     1      27.434 -29.611 -29.898  0.00  0.00    +0.055 C 
BRANCH  15  17
ATOM     16  C   UNL     1      28.988 -30.133 -32.004  0.00  0.00    -0.118 C 
ATOM     17  C   UNL     1      28.289 -29.906 -31.053  0.00  0.00    -0.095 C 
ENDBRANCH  15  17
ENDBRANCH  14  15
ENDBRANCH  13  14
ENDBRANCH   8  13
ENDBRANCH   4   8
ENDBRANCH   3   6
ENDBRANCH   2   3
ENDBRANCH   1   2
BRANCH   1  18
ATOM     18  C   UNL     1      35.927 -33.954 -30.741  0.00  0.00    +0.009 C 
BRANCH  18  19
ATOM     19  N   UNL     1      36.450 -35.016 -31.613  0.00  0.00    -0.343 N 
ATOM     20  H   UNL     1      36.222 -35.105 -32.566  0.00  0.00    +0.000 HD
BRANCH  19  21
ATOM     21  C   UNL     1      37.327 -35.904 -30.917  0.00  0.00    +0.041 A 
ATOM     22  C   UNL     1      36.797 -36.973 -30.164  0.00  0.00    -0.005 A 
ATOM     23  C   UNL     1      37.701 -37.843 -29.548  0.00  0.00    +0.047 A 
ATOM     24  N   UNL     1      39.043 -37.743 -29.692  0.00  0.00    -0.251 NA
ATOM     25  C   UNL     1      39.546 -36.733 -30.416  0.00  0.00    +0.073 A 
ATOM     26  C   UNL     1      40.927 -36.643 -30.538  0.00  0.00    -0.036 A 
ATOM     27  C   UNL     1      41.542 -35.611 -31.249  0.00  0.00    -0.060 A 
ATOM     28  C   UNL     1      40.761 -34.632 -31.845  0.00  0.00    -0.061 A 
ATOM     29  C   UNL     1      39.372 -34.706 -31.736  0.00  0.00    -0.051 A 
ATOM     30  C   UNL     1      38.738 -35.767 -31.044  0.00  0.00    +0.021 A 
ATOM     31  C   UNL     1      37.240 -39.005 -28.707  0.00  0.00    -0.010 C 
ATOM     32  C   UNL     1      35.818 -38.839 -28.186  0.00  0.00    -0.047 C 
ATOM     33  C   UNL     1      34.896 -38.475 -29.337  0.00  0.00    -0.049 C 
ATOM     34  C   UNL     1      35.308 -37.141 -29.959  0.00  0.00    -0.024 C 
ENDBRANCH  19  21
ENDBRANCH  18  19
ENDBRANCH   1  18
TORSDOF 12
ENDMDL
MODEL 9
REMARK VINA RESULT:    -6.676     17.344     19.588
REMARK INTER + INTRA:         -12.012
REMARK INTER:                 -11.062
REMARK INTRA:                  -0.950
REMARK UNBOUND:                -0.848
REMARK  Name = cpd364.pdb
REMARK  12 active torsions:
REMARK  status: ('A' for Active; 'I' for Inactive)
REMARK    1  A    between atoms: C_2  and  C_3
REMARK    2  A    between atoms: C_3  and  S_4
REMARK    3  A    between atoms: S_4  and  C_5
REMARK    4  A    between atoms: C_5  and  C_6
REMARK    5  A    between atoms: C_6  and  N_7
REMARK    6  A    between atoms: C_6  and  C_8
REMARK    7  A    between atoms: N_10  and  C_11
REMARK    8  A    between atoms: C_11  and  C_12
REMARK    9  A    between atoms: C_12  and  C_13
REMARK   10  A    between atoms: C_13  and  C_14
REMARK   11  A    between atoms: C_14  and  N_15
REMARK   12  A    between atoms: N_15  and  C_16
REMARK                            x       y       z     vdW  Elec       q    Type
REMARK                         _______ _______ _______ _____ _____    ______ ____
ROOT
ATOM      1  C   UNL     1      46.501 -18.474 -36.381  0.00  0.00    -0.036 C 
ENDROOT
BRANCH   1   2
ATOM      2  C   UNL     1      46.492 -18.985 -34.941  0.00  0.00    -0.036 C 
BRANCH   2   3
ATOM      3  C   UNL     1      45.951 -20.411 -34.851  0.00  0.00    +0.012 C 
BRANCH   3   6
ATOM      4  C   UNL     1      43.495 -20.454 -34.506  0.00  0.00    +0.231 C 
ATOM      5  O   UNL     1      43.264 -20.406 -35.711  0.00  0.00    -0.274 OA
ATOM      6  N   UNL     1      44.783 -20.491 -33.999  0.00  0.00    -0.314 N 
ATOM      7  H   UNL     1      44.908 -20.575 -33.026  0.00  0.00    +0.000 HD
BRANCH   4   8
ATOM      8  C   UNL     1      42.406 -20.446 -33.409  0.00  0.00    +0.091 C 
BRANCH   8   9
ATOM      9  N   UNL     1      42.331 -19.125 -32.754  0.00  0.00    -0.319 N 
ATOM     10  H   UNL     1      43.043 -18.509 -33.147  0.00  0.00    +0.000 HD
ATOM     11  H   UNL     1      42.488 -19.232 -31.752  0.00  0.00    +0.000 HD
ATOM     12  H   UNL     1      41.407 -18.720 -32.911  0.00  0.00    +0.000 HD
ENDBRANCH   8   9
BRANCH   8  13
ATOM     13  C   UNL     1      41.058 -20.843 -34.028  0.00  0.00    +0.018 C 
BRANCH  13  14
ATOM     14  S   UNL     1      40.611 -22.567 -33.588  0.00  0.00    -0.146 S 
BRANCH  14  15
ATOM     15  C   UNL     1      41.423 -22.671 -31.964  0.00  0.00    +0.055 C 
BRANCH  15  17
ATOM     16  C   UNL     1      41.504 -25.160 -31.006  0.00  0.00    -0.118 C 
ATOM     17  C   UNL     1      41.461 -24.038 -31.433  0.00  0.00    -0.095 C 
ENDBRANCH  15  17
ENDBRANCH  14  15
ENDBRANCH  13  14
ENDBRANCH   8  13
ENDBRANCH   4   8
ENDBRANCH   3   6
ENDBRANCH   2   3
ENDBRANCH   1   2
BRANCH   1  18
ATOM     18  C   UNL     1      46.556 -19.628 -37.389  0.00  0.00    +0.009 C 
BRANCH  18  19
ATOM     19  N   UNL     1      47.260 -19.182 -38.600  0.00  0.00    -0.343 N 
ATOM     20  H   UNL     1      48.185 -18.846 -38.604  0.00  0.00    +0.000 HD
BRANCH  19  21
ATOM     21  C   UNL     1      46.448 -19.294 -39.770  0.00  0.00    +0.041 A 
ATOM     22  C   UNL     1      46.387 -20.517 -40.473  0.00  0.00    -0.005 A 
ATOM     23  C   UNL     1      45.536 -20.587 -41.579  0.00  0.00    +0.047 A 
ATOM     24  N   UNL     1      44.730 -19.568 -41.961  0.00  0.00    -0.251 NA
ATOM     25  C   UNL     1      44.781 -18.411 -41.288  0.00  0.00    +0.073 A 
ATOM     26  C   UNL     1      43.955 -17.375 -41.708  0.00  0.00    -0.036 A 
ATOM     27  C   UNL     1      43.959 -16.126 -41.085  0.00  0.00    -0.060 A 
ATOM     28  C   UNL     1      44.818 -15.896 -40.021  0.00  0.00    -0.061 A 
ATOM     29  C   UNL     1      45.653 -16.923 -39.582  0.00  0.00    -0.051 A 
ATOM     30  C   UNL     1      45.634 -18.204 -40.188  0.00  0.00    +0.021 A 
ATOM     31  C   UNL     1      45.410 -21.839 -42.408  0.00  0.00    -0.010 C 
ATOM     32  C   UNL     1      46.607 -22.771 -42.267  0.00  0.00    -0.047 C 
ATOM     33  C   UNL     1      46.897 -23.004 -40.794  0.00  0.00    -0.049 C 
ATOM     34  C   UNL     1      47.262 -21.692 -40.101  0.00  0.00    -0.024 C 
ENDBRANCH  19  21
ENDBRANCH  18  19
ENDBRANCH   1  18
TORSDOF 12
ENDMDL
MODEL 10
REMARK VINA RESULT:    -6.595      4.531      7.846
REMARK INTER + INTRA:         -11.877
REMARK INTER:                 -10.941
REMARK INTRA:                  -0.936
REMARK UNBOUND:                -0.848
REMARK  Name = cpd364.pdb
REMARK  12 active torsions:
REMARK  status: ('A' for Active; 'I' for Inactive)
REMARK    1  A    between atoms: C_2  and  C_3
REMARK    2  A    between atoms: C_3  and  S_4
REMARK    3  A    between atoms: S_4  and  C_5
REMARK    4  A    between atoms: C_5  and  C_6
REMARK    5  A    between atoms: C_6  and  N_7
REMARK    6  A    between atoms: C_6  and  C_8
REMARK    7  A    between atoms: N_10  and  C_11
REMARK    8  A    between atoms: C_11  and  C_12
REMARK    9  A    between atoms: C_12  and  C_13
REMARK   10  A    between atoms: C_13  and  C_14
REMARK   11  A    between atoms: C_14  and  N_15
REMARK   12  A    between atoms: N_15  and  C_16
REMARK                            x       y       z     vdW  Elec       q    Type
REMARK                         _______ _______ _______ _____ _____    ______ ____
ROOT
ATOM      1  C   UNL     1      36.300 -39.361 -29.888  0.00  0.00    -0.036 C 
ENDROOT
BRANCH   1   2
ATOM      2  C   UNL     1      34.950 -39.878 -29.393  0.00  0.00    -0.036 C 
BRANCH   2   3
ATOM      3  C   UNL     1      34.992 -40.234 -27.908  0.00  0.00    +0.012 C 
BRANCH   3   6
ATOM      4  C   UNL     1      34.212 -38.461 -26.359  0.00  0.00    +0.231 C 
ATOM      5  O   UNL     1      35.329 -37.960 -26.273  0.00  0.00    -0.274 OA
ATOM      6  N   UNL     1      33.951 -39.559 -27.161  0.00  0.00    -0.314 N 
ATOM      7  H   UNL     1      33.026 -39.891 -27.226  0.00  0.00    +0.000 HD
BRANCH   4   8
ATOM      8  C   UNL     1      32.974 -37.969 -25.574  0.00  0.00    +0.091 C 
BRANCH   8   9
ATOM      9  N   UNL     1      32.271 -39.103 -24.939  0.00  0.00    -0.319 N 
ATOM     10  H   UNL     1      32.721 -39.328 -24.052  0.00  0.00    +0.000 HD
ATOM     11  H   UNL     1      32.308 -39.914 -25.555  0.00  0.00    +0.000 HD
ATOM     12  H   UNL     1      31.297 -38.848 -24.771  0.00  0.00    +0.000 HD
ENDBRANCH   8   9
BRANCH   8  13
ATOM     13  C   UNL     1      33.412 -36.928 -24.534  0.00  0.00    +0.018 C 
BRANCH  13  14
ATOM     14  S   UNL     1      32.351 -37.002 -23.039  0.00  0.00    -0.146 S 
BRANCH  14  15
ATOM     15  C   UNL     1      33.565 -37.661 -21.855  0.00  0.00    +0.055 C 
BRANCH  15  17
ATOM     16  C   UNL     1      32.432 -38.759 -19.703  0.00  0.00    -0.118 C 
ATOM     17  C   UNL     1      32.938 -38.257 -20.671  0.00  0.00    -0.095 C 
ENDBRANCH  15  17
ENDBRANCH  14  15
ENDBRANCH  13  14
ENDBRANCH   8  13
ENDBRANCH   4   8
ENDBRANCH   3   6
ENDBRANCH   2   3
ENDBRANCH   1   2
BRANCH   1  18
ATOM     18  C   UNL     1      37.324 -39.279 -28.751  0.00  0.00    +0.009 C 
BRANCH  18  19
ATOM     19  N   UNL     1      37.445 -37.883 -28.305  0.00  0.00    -0.343 N 
ATOM     20  H   UNL     1      37.386 -37.601 -27.364  0.00  0.00    +0.000 HD
BRANCH  19  21
ATOM     21  C   UNL     1      37.657 -36.984 -29.396  0.00  0.00    +0.041 A 
ATOM     22  C   UNL     1      36.652 -36.062 -29.756  0.00  0.00    -0.005 A 
ATOM     23  C   UNL     1      36.933 -35.170 -30.795  0.00  0.00    +0.047 A 
ATOM     24  N   UNL     1      38.133 -35.111 -31.418  0.00  0.00    -0.251 NA
ATOM     25  C   UNL     1      39.091 -35.980 -31.068  0.00  0.00    +0.073 A 
ATOM     26  C   UNL     1      40.310 -35.909 -31.732  0.00  0.00    -0.036 A 
ATOM     27  C   UNL     1      41.356 -36.790 -31.455  0.00  0.00    -0.060 A 
ATOM     28  C   UNL     1      41.181 -37.779 -30.499  0.00  0.00    -0.061 A 
ATOM     29  C   UNL     1      39.967 -37.866 -29.819  0.00  0.00    -0.051 A 
ATOM     30  C   UNL     1      38.910 -36.956 -30.071  0.00  0.00    +0.021 A 
ATOM     31  C   UNL     1      35.923 -34.157 -31.269  0.00  0.00    -0.010 C 
ATOM     32  C   UNL     1      34.490 -34.528 -30.907  0.00  0.00    -0.047 C 
ATOM     33  C   UNL     1      34.413 -34.866 -29.427  0.00  0.00    -0.049 C 
ATOM     34  C   UNL     1      35.288 -36.076 -29.104  0.00  0.00    -0.024 C 
ENDBRANCH  19  21
ENDBRANCH  18  19
ENDBRANCH   1  18
TORSDOF 12
ENDMDL
MODEL 11
REMARK VINA RESULT:    -6.533     15.658     17.587
REMARK INTER + INTRA:         -11.772
REMARK INTER:                 -10.185
REMARK INTRA:                  -1.587
REMARK UNBOUND:                -0.848
REMARK  Name = cpd364.pdb
REMARK  12 active torsions:
REMARK  status: ('A' for Active; 'I' for Inactive)
REMARK    1  A    between atoms: C_2  and  C_3
REMARK    2  A    between atoms: C_3  and  S_4
REMARK    3  A    between atoms: S_4  and  C_5
REMARK    4  A    between atoms: C_5  and  C_6
REMARK    5  A    between atoms: C_6  and  N_7
REMARK    6  A    between atoms: C_6  and  C_8
REMARK    7  A    between atoms: N_10  and  C_11
REMARK    8  A    between atoms: C_11  and  C_12
REMARK    9  A    between atoms: C_12  and  C_13
REMARK   10  A    between atoms: C_13  and  C_14
REMARK   11  A    between atoms: C_14  and  N_15
REMARK   12  A    between atoms: N_15  and  C_16
REMARK                            x       y       z     vdW  Elec       q    Type
REMARK                         _______ _______ _______ _____ _____    ______ ____
ROOT
ATOM      1  C   UNL     1      40.225 -21.061 -39.014  0.00  0.00    -0.036 C 
ENDROOT
BRANCH   1   2
ATOM      2  C   UNL     1      39.941 -21.386 -37.548  0.00  0.00    -0.036 C 
BRANCH   2   3
ATOM      3  C   UNL     1      40.905 -22.439 -37.005  0.00  0.00    +0.012 C 
BRANCH   3   6
ATOM      4  C   UNL     1      40.403 -22.872 -34.615  0.00  0.00    +0.231 C 
ATOM      5  O   UNL     1      39.496 -23.654 -34.884  0.00  0.00    -0.274 OA
ATOM      6  N   UNL     1      41.166 -22.255 -35.592  0.00  0.00    -0.314 N 
ATOM      7  H   UNL     1      41.910 -21.672 -35.317  0.00  0.00    +0.000 HD
BRANCH   4   8
ATOM      8  C   UNL     1      40.791 -22.450 -33.180  0.00  0.00    +0.091 C 
BRANCH   8   9
ATOM      9  N   UNL     1      41.665 -23.462 -32.553  0.00  0.00    -0.319 N 
ATOM     10  H   UNL     1      41.542 -24.357 -33.026  0.00  0.00    +0.000 HD
ATOM     11  H   UNL     1      41.418 -23.562 -31.568  0.00  0.00    +0.000 HD
ATOM     12  H   UNL     1      42.638 -23.167 -32.630  0.00  0.00    +0.000 HD
ENDBRANCH   8   9
BRANCH   8  13
ATOM     13  C   UNL     1      41.470 -21.073 -33.221  0.00  0.00    +0.018 C 
BRANCH  13  14
ATOM     14  S   UNL     1      40.339 -19.762 -32.614  0.00  0.00    -0.146 S 
BRANCH  14  15
ATOM     15  C   UNL     1      41.314 -18.299 -33.080  0.00  0.00    +0.055 C 
BRANCH  15  17
ATOM     16  C   UNL     1      41.147 -17.713 -35.679  0.00  0.00    -0.118 C 
ATOM     17  C   UNL     1      41.222 -17.985 -34.510  0.00  0.00    -0.095 C 
ENDBRANCH  15  17
ENDBRANCH  14  15
ENDBRANCH  13  14
ENDBRANCH   8  13
ENDBRANCH   4   8
ENDBRANCH   3   6
ENDBRANCH   2   3
ENDBRANCH   1   2
BRANCH   1  18
ATOM     18  C   UNL     1      41.591 -21.597 -39.455  0.00  0.00    +0.009 C 
BRANCH  18  19
ATOM     19  N   UNL     1      42.479 -20.466 -39.762  0.00  0.00    -0.343 N 
ATOM     20  H   UNL     1      42.165 -19.601 -40.112  0.00  0.00    +0.000 HD
BRANCH  19  21
ATOM     21  C   UNL     1      43.850 -20.767 -39.495  0.00  0.00    +0.041 A 
ATOM     22  C   UNL     1      44.677 -21.266 -40.524  0.00  0.00    -0.005 A 
ATOM     23  C   UNL     1      46.023 -21.493 -40.222  0.00  0.00    +0.047 A 
ATOM     24  N   UNL     1      46.574 -21.198 -39.021  0.00  0.00    -0.251 NA
ATOM     25  C   UNL     1      45.791 -20.715 -38.047  0.00  0.00    +0.073 A 
ATOM     26  C   UNL     1      46.376 -20.434 -36.819  0.00  0.00    -0.036 A 
ATOM     27  C   UNL     1      45.634 -19.954 -35.738  0.00  0.00    -0.060 A 
ATOM     28  C   UNL     1      44.269 -19.759 -35.879  0.00  0.00    -0.061 A 
ATOM     29  C   UNL     1      43.662 -20.033 -37.105  0.00  0.00    -0.051 A 
ATOM     30  C   UNL     1      44.411 -20.491 -38.217  0.00  0.00    +0.021 A 
ATOM     31  C   UNL     1      46.986 -22.040 -41.243  0.00  0.00    -0.010 C 
ATOM     32  C   UNL     1      46.294 -22.777 -42.383  0.00  0.00    -0.047 C 
ATOM     33  C   UNL     1      45.186 -21.905 -42.950  0.00  0.00    -0.049 C 
ATOM     34  C   UNL     1      44.126 -21.620 -41.887  0.00  0.00    -0.024 C 
ENDBRANCH  19  21
ENDBRANCH  18  19
ENDBRANCH   1  18
TORSDOF 12
ENDMDL
MODEL 12
REMARK VINA RESULT:    -6.521     16.227     18.396
REMARK INTER + INTRA:         -11.753
REMARK INTER:                 -10.928
REMARK INTRA:                  -0.825
REMARK UNBOUND:                -0.848
REMARK  Name = cpd364.pdb
REMARK  12 active torsions:
REMARK  status: ('A' for Active; 'I' for Inactive)
REMARK    1  A    between atoms: C_2  and  C_3
REMARK    2  A    between atoms: C_3  and  S_4
REMARK    3  A    between atoms: S_4  and  C_5
REMARK    4  A    between atoms: C_5  and  C_6
REMARK    5  A    between atoms: C_6  and  N_7
REMARK    6  A    between atoms: C_6  and  C_8
REMARK    7  A    between atoms: N_10  and  C_11
REMARK    8  A    between atoms: C_11  and  C_12
REMARK    9  A    between atoms: C_12  and  C_13
REMARK   10  A    between atoms: C_13  and  C_14
REMARK   11  A    between atoms: C_14  and  N_15
REMARK   12  A    between atoms: N_15  and  C_16
REMARK                            x       y       z     vdW  Elec       q    Type
REMARK                         _______ _______ _______ _____ _____    ______ ____
ROOT
ATOM      1  C   UNL     1      42.129 -21.061 -40.894  0.00  0.00    -0.036 C 
ENDROOT
BRANCH   1   2
ATOM      2  C   UNL     1      41.654 -22.067 -39.847  0.00  0.00    -0.036 C 
BRANCH   2   3
ATOM      3  C   UNL     1      40.455 -21.540 -39.060  0.00  0.00    +0.012 C 
BRANCH   3   6
ATOM      4  C   UNL     1      40.608 -22.251 -36.689  0.00  0.00    +0.231 C 
ATOM      5  O   UNL     1      40.208 -23.384 -36.939  0.00  0.00    -0.274 OA
ATOM      6  N   UNL     1      40.787 -21.293 -37.672  0.00  0.00    -0.314 N 
ATOM      7  H   UNL     1      41.152 -20.414 -37.419  0.00  0.00    +0.000 HD
BRANCH   4   8
ATOM      8  C   UNL     1      40.926 -21.734 -35.267  0.00  0.00    +0.091 C 
BRANCH   8   9
ATOM      9  N   UNL     1      42.312 -21.226 -35.192  0.00  0.00    -0.319 N 
ATOM     10  H   UNL     1      42.962 -22.012 -35.206  0.00  0.00    +0.000 HD
ATOM     11  H   UNL     1      42.434 -20.699 -34.328  0.00  0.00    +0.000 HD
ATOM     12  H   UNL     1      42.495 -20.618 -35.990  0.00  0.00    +0.000 HD
ENDBRANCH   8   9
BRANCH   8  13
ATOM     13  C   UNL     1      39.911 -20.649 -34.881  0.00  0.00    +0.018 C 
BRANCH  13  14
ATOM     14  S   UNL     1      38.932 -21.155 -33.414  0.00  0.00    -0.146 S 
BRANCH  14  15
ATOM     15  C   UNL     1      39.555 -22.854 -33.221  0.00  0.00    +0.055 C 
BRANCH  15  17
ATOM     16  C   UNL     1      37.792 -24.690 -34.022  0.00  0.00    -0.118 C 
ATOM     17  C   UNL     1      38.587 -23.867 -33.654  0.00  0.00    -0.095 C 
ENDBRANCH  15  17
ENDBRANCH  14  15
ENDBRANCH  13  14
ENDBRANCH   8  13
ENDBRANCH   4   8
ENDBRANCH   3   6
ENDBRANCH   2   3
ENDBRANCH   1   2
BRANCH   1  18
ATOM     18  C   UNL     1      43.164 -21.678 -41.841  0.00  0.00    +0.009 C 
BRANCH  18  19
ATOM     19  N   UNL     1      44.129 -20.646 -42.246  0.00  0.00    -0.343 N 
ATOM     20  H   UNL     1      44.001 -20.047 -43.016  0.00  0.00    +0.000 HD
BRANCH  19  21
ATOM     21  C   UNL     1      45.275 -20.612 -41.392  0.00  0.00    +0.041 A 
ATOM     22  C   UNL     1      45.394 -19.604 -40.411  0.00  0.00    -0.005 A 
ATOM     23  C   UNL     1      46.508 -19.650 -39.568  0.00  0.00    +0.047 A 
ATOM     24  N   UNL     1      47.429 -20.640 -39.608  0.00  0.00    -0.251 NA
ATOM     25  C   UNL     1      47.310 -21.603 -40.532  0.00  0.00    +0.073 A 
ATOM     26  C   UNL     1      48.275 -22.601 -40.563  0.00  0.00    -0.036 A 
ATOM     27  C   UNL     1      48.249 -23.629 -41.507  0.00  0.00    -0.060 A 
ATOM     28  C   UNL     1      47.239 -23.657 -42.457  0.00  0.00    -0.061 A 
ATOM     29  C   UNL     1      46.258 -22.666 -42.442  0.00  0.00    -0.051 A 
ATOM     30  C   UNL     1      46.259 -21.637 -41.468  0.00  0.00    +0.021 A 
ATOM     31  C   UNL     1      46.740 -18.612 -38.500  0.00  0.00    -0.010 C 
ATOM     32  C   UNL     1      45.995 -17.309 -38.761  0.00  0.00    -0.047 C 
ATOM     33  C   UNL     1      44.534 -17.611 -39.055  0.00  0.00    -0.049 C 
ATOM     34  C   UNL     1      44.403 -18.466 -40.314  0.00  0.00    -0.024 C 
ENDBRANCH  19  21
ENDBRANCH  18  19
ENDBRANCH   1  18
TORSDOF 12
ENDMDL
MODEL 13
REMARK VINA RESULT:    -6.348     17.923     20.171
REMARK INTER + INTRA:         -11.463
REMARK INTER:                  -9.355
REMARK INTRA:                  -2.108
REMARK UNBOUND:                -0.848
REMARK  Name = cpd364.pdb
REMARK  12 active torsions:
REMARK  status: ('A' for Active; 'I' for Inactive)
REMARK    1  A    between atoms: C_2  and  C_3
REMARK    2  A    between atoms: C_3  and  S_4
REMARK    3  A    between atoms: S_4  and  C_5
REMARK    4  A    between atoms: C_5  and  C_6
REMARK    5  A    between atoms: C_6  and  N_7
REMARK    6  A    between atoms: C_6  and  C_8
REMARK    7  A    between atoms: N_10  and  C_11
REMARK    8  A    between atoms: C_11  and  C_12
REMARK    9  A    between atoms: C_12  and  C_13
REMARK   10  A    between atoms: C_13  and  C_14
REMARK   11  A    between atoms: C_14  and  N_15
REMARK   12  A    between atoms: N_15  and  C_16
REMARK                            x       y       z     vdW  Elec       q    Type
REMARK                         _______ _______ _______ _____ _____    ______ ____
ROOT
ATOM      1  C   UNL     1      47.072 -18.833 -36.544  0.00  0.00    -0.036 C 
ENDROOT
BRANCH   1   2
ATOM      2  C   UNL     1      45.895 -18.774 -35.571  0.00  0.00    -0.036 C 
BRANCH   2   3
ATOM      3  C   UNL     1      45.588 -20.146 -34.972  0.00  0.00    +0.012 C 
BRANCH   3   6
ATOM      4  C   UNL     1      43.210 -20.151 -34.267  0.00  0.00    +0.231 C 
ATOM      5  O   UNL     1      43.435 -19.442 -33.291  0.00  0.00    -0.274 OA
ATOM      6  N   UNL     1      44.202 -20.519 -35.160  0.00  0.00    -0.314 N 
ATOM      7  H   UNL     1      43.956 -21.053 -35.950  0.00  0.00    +0.000 HD
BRANCH   4   8
ATOM      8  C   UNL     1      41.826 -20.749 -34.609  0.00  0.00    +0.091 C 
BRANCH   8   9
ATOM      9  N   UNL     1      40.742 -19.851 -34.162  0.00  0.00    -0.319 N 
ATOM     10  H   UNL     1      40.484 -19.224 -34.924  0.00  0.00    +0.000 HD
ATOM     11  H   UNL     1      41.062 -19.303 -33.364  0.00  0.00    +0.000 HD
ATOM     12  H   UNL     1      39.931 -20.407 -33.890  0.00  0.00    +0.000 HD
ENDBRANCH   8   9
BRANCH   8  13
ATOM     13  C   UNL     1      41.747 -21.014 -36.119  0.00  0.00    +0.018 C 
BRANCH  13  14
ATOM     14  S   UNL     1      41.200 -19.516 -37.025  0.00  0.00    -0.146 S 
BRANCH  14  15
ATOM     15  C   UNL     1      42.567 -19.382 -38.217  0.00  0.00    +0.055 C 
BRANCH  15  17
ATOM     16  C   UNL     1      42.944 -21.627 -39.609  0.00  0.00    -0.118 C 
ATOM     17  C   UNL     1      42.781 -20.617 -38.978  0.00  0.00    -0.095 C 
ENDBRANCH  15  17
ENDBRANCH  14  15
ENDBRANCH  13  14
ENDBRANCH   8  13
ENDBRANCH   4   8
ENDBRANCH   3   6
ENDBRANCH   2   3
ENDBRANCH   1   2
BRANCH   1  18
ATOM     18  C   UNL     1      46.804 -19.811 -37.693  0.00  0.00    +0.009 C 
BRANCH  18  19
ATOM     19  N   UNL     1      47.302 -19.232 -38.949  0.00  0.00    -0.343 N 
ATOM     20  H   UNL     1      48.212 -18.875 -39.066  0.00  0.00    +0.000 HD
BRANCH  19  21
ATOM     21  C   UNL     1      46.314 -19.250 -39.982  0.00  0.00    +0.041 A 
ATOM     22  C   UNL     1      45.516 -18.108 -40.214  0.00  0.00    -0.005 A 
ATOM     23  C   UNL     1      44.603 -18.161 -41.270  0.00  0.00    +0.047 A 
ATOM     24  N   UNL     1      44.497 -19.218 -42.109  0.00  0.00    -0.251 NA
ATOM     25  C   UNL     1      45.262 -20.297 -41.894  0.00  0.00    +0.073 A 
ATOM     26  C   UNL     1      45.126 -21.376 -42.759  0.00  0.00    -0.036 A 
ATOM     27  C   UNL     1      45.860 -22.552 -42.598  0.00  0.00    -0.060 A 
ATOM     28  C   UNL     1      46.747 -22.663 -41.538  0.00  0.00    -0.061 A 
ATOM     29  C   UNL     1      46.901 -21.591 -40.660  0.00  0.00    -0.051 A 
ATOM     30  C   UNL     1      46.183 -20.382 -40.834  0.00  0.00    +0.021 A 
ATOM     31  C   UNL     1      43.692 -17.005 -41.592  0.00  0.00    -0.010 C 
ATOM     32  C   UNL     1      43.492 -16.057 -40.416  0.00  0.00    -0.047 C 
ATOM     33  C   UNL     1      44.845 -15.666 -39.844  0.00  0.00    -0.049 C 
ATOM     34  C   UNL     1      45.581 -16.896 -39.313  0.00  0.00    -0.024 C 
ENDBRANCH  19  21
ENDBRANCH  18  19
ENDBRANCH   1  18
TORSDOF 12
ENDMDL
MODEL 14
REMARK VINA RESULT:    -6.331      2.515      3.892
REMARK INTER + INTRA:         -11.434
REMARK INTER:                 -10.031
REMARK INTRA:                  -1.403
REMARK UNBOUND:                -0.848
REMARK  Name = cpd364.pdb
REMARK  12 active torsions:
REMARK  status: ('A' for Active; 'I' for Inactive)
REMARK    1  A    between atoms: C_2  and  C_3
REMARK    2  A    between atoms: C_3  and  S_4
REMARK    3  A    between atoms: S_4  and  C_5
REMARK    4  A    between atoms: C_5  and  C_6
REMARK    5  A    between atoms: C_6  and  N_7
REMARK    6  A    between atoms: C_6  and  C_8
REMARK    7  A    between atoms: N_10  and  C_11
REMARK    8  A    between atoms: C_11  and  C_12
REMARK    9  A    between atoms: C_12  and  C_13
REMARK   10  A    between atoms: C_13  and  C_14
REMARK   11  A    between atoms: C_14  and  N_15
REMARK   12  A    between atoms: N_15  and  C_16
REMARK                            x       y       z     vdW  Elec       q    Type
REMARK                         _______ _______ _______ _____ _____    ______ ____
ROOT
ATOM      1  C   UNL     1      34.837 -33.406 -31.055  0.00  0.00    -0.036 C 
ENDROOT
BRANCH   1   2
ATOM      2  C   UNL     1      34.360 -32.827 -29.724  0.00  0.00    -0.036 C 
BRANCH   2   3
ATOM      3  C   UNL     1      33.023 -32.102 -29.870  0.00  0.00    +0.012 C 
BRANCH   3   6
ATOM      4  C   UNL     1      31.122 -33.689 -29.998  0.00  0.00    +0.231 C 
ATOM      5  O   UNL     1      31.301 -33.903 -31.194  0.00  0.00    -0.274 OA
ATOM      6  N   UNL     1      31.937 -32.845 -29.265  0.00  0.00    -0.314 N 
ATOM      7  H   UNL     1      31.773 -32.746 -28.299  0.00  0.00    +0.000 HD
BRANCH   4   8
ATOM      8  C   UNL     1      29.965 -34.294 -29.170  0.00  0.00    +0.091 C 
BRANCH   8   9
ATOM      9  N   UNL     1      29.007 -35.002 -30.045  0.00  0.00    -0.319 N 
ATOM     10  H   UNL     1      28.595 -34.341 -30.703  0.00  0.00    +0.000 HD
ATOM     11  H   UNL     1      28.271 -35.419 -29.475  0.00  0.00    +0.000 HD
ATOM     12  H   UNL     1      29.495 -35.735 -30.559  0.00  0.00    +0.000 HD
ENDBRANCH   8   9
BRANCH   8  13
ATOM     13  C   UNL     1      30.541 -35.229 -28.098  0.00  0.00    +0.018 C 
BRANCH  13  14
ATOM     14  S   UNL     1      31.511 -36.588 -28.860  0.00  0.00    -0.146 S 
BRANCH  14  15
ATOM     15  C   UNL     1      31.707 -37.657 -27.402  0.00  0.00    +0.055 C 
BRANCH  15  17
ATOM     16  C   UNL     1      33.760 -36.921 -25.864  0.00  0.00    -0.118 C 
ATOM     17  C   UNL     1      32.834 -37.259 -26.551  0.00  0.00    -0.095 C 
ENDBRANCH  15  17
ENDBRANCH  14  15
ENDBRANCH  13  14
ENDBRANCH   8  13
ENDBRANCH   4   8
ENDBRANCH   3   6
ENDBRANCH   2   3
ENDBRANCH   1   2
BRANCH   1  18
ATOM     18  C   UNL     1      36.317 -33.800 -31.000  0.00  0.00    +0.009 C 
BRANCH  18  19
ATOM     19  N   UNL     1      36.526 -35.016 -31.799  0.00  0.00    -0.343 N 
ATOM     20  H   UNL     1      36.141 -35.157 -32.694  0.00  0.00    +0.000 HD
BRANCH  19  21
ATOM     21  C   UNL     1      37.352 -35.969 -31.127  0.00  0.00    +0.041 A 
ATOM     22  C   UNL     1      38.757 -35.875 -31.221  0.00  0.00    -0.005 A 
ATOM     23  C   UNL     1      39.518 -36.800 -30.501  0.00  0.00    +0.047 A 
ATOM     24  N   UNL     1      38.974 -37.729 -29.679  0.00  0.00    -0.251 NA
ATOM     25  C   UNL     1      37.640 -37.811 -29.582  0.00  0.00    +0.073 A 
ATOM     26  C   UNL     1      37.106 -38.780 -28.743  0.00  0.00    -0.036 A 
ATOM     27  C   UNL     1      35.729 -38.959 -28.600  0.00  0.00    -0.060 A 
ATOM     28  C   UNL     1      34.858 -38.157 -29.322  0.00  0.00    -0.061 A 
ATOM     29  C   UNL     1      35.374 -37.176 -30.168  0.00  0.00    -0.051 A 
ATOM     30  C   UNL     1      36.769 -36.967 -30.296  0.00  0.00    +0.021 A 
ATOM     31  C   UNL     1      41.024 -36.799 -30.546  0.00  0.00    -0.010 C 
ATOM     32  C   UNL     1      41.584 -36.098 -31.777  0.00  0.00    -0.047 C 
ATOM     33  C   UNL     1      40.937 -34.730 -31.919  0.00  0.00    -0.049 C 
ATOM     34  C   UNL     1      39.429 -34.865 -32.123  0.00  0.00    -0.024 C 
ENDBRANCH  19  21
ENDBRANCH  18  19
ENDBRANCH   1  18
TORSDOF 12
ENDMDL
MODEL 15
REMARK VINA RESULT:    -6.309     16.525     19.111
REMARK INTER + INTRA:         -11.398
REMARK INTER:                  -9.879
REMARK INTRA:                  -1.519
REMARK UNBOUND:                -0.848
REMARK  Name = cpd364.pdb
REMARK  12 active torsions:
REMARK  status: ('A' for Active; 'I' for Inactive)
REMARK    1  A    between atoms: C_2  and  C_3
REMARK    2  A    between atoms: C_3  and  S_4
REMARK    3  A    between atoms: S_4  and  C_5
REMARK    4  A    between atoms: C_5  and  C_6
REMARK    5  A    between atoms: C_6  and  N_7
REMARK    6  A    between atoms: C_6  and  C_8
REMARK    7  A    between atoms: N_10  and  C_11
REMARK    8  A    between atoms: C_11  and  C_12
REMARK    9  A    between atoms: C_12  and  C_13
REMARK   10  A    between atoms: C_13  and  C_14
REMARK   11  A    between atoms: C_14  and  N_15
REMARK   12  A    between atoms: N_15  and  C_16
REMARK                            x       y       z     vdW  Elec       q    Type
REMARK                         _______ _______ _______ _____ _____    ______ ____
ROOT
ATOM      1  C   UNL     1      44.849 -18.330 -35.026  0.00  0.00    -0.036 C 
ENDROOT
BRANCH   1   2
ATOM      2  C   UNL     1      46.354 -18.420 -35.279  0.00  0.00    -0.036 C 
BRANCH   2   3
ATOM      3  C   UNL     1      46.772 -17.594 -36.494  0.00  0.00    +0.012 C 
BRANCH   3   6
ATOM      4  C   UNL     1      45.882 -18.512 -38.619  0.00  0.00    +0.231 C 
ATOM      5  O   UNL     1      44.837 -17.875 -38.528  0.00  0.00    -0.274 OA
ATOM      6  N   UNL     1      46.897 -18.411 -37.684  0.00  0.00    -0.314 N 
ATOM      7  H   UNL     1      47.732 -18.911 -37.832  0.00  0.00    +0.000 HD
BRANCH   4   8
ATOM      8  C   UNL     1      46.191 -19.520 -39.750  0.00  0.00    +0.091 C 
BRANCH   8   9
ATOM      9  N   UNL     1      47.389 -19.106 -40.509  0.00  0.00    -0.319 N 
ATOM     10  H   UNL     1      48.110 -19.821 -40.421  0.00  0.00    +0.000 HD
ATOM     11  H   UNL     1      47.738 -18.223 -40.139  0.00  0.00    +0.000 HD
ATOM     12  H   UNL     1      47.144 -18.989 -41.493  0.00  0.00    +0.000 HD
ENDBRANCH   8   9
BRANCH   8  13
ATOM     13  C   UNL     1      46.365 -20.921 -39.148  0.00  0.00    +0.018 C 
BRANCH  13  14
ATOM     14  S   UNL     1      47.703 -21.843 -40.001  0.00  0.00    -0.146 S 
BRANCH  14  15
ATOM     15  C   UNL     1      46.685 -22.981 -40.991  0.00  0.00    +0.055 C 
BRANCH  15  17
ATOM     16  C   UNL     1      45.036 -21.723 -42.670  0.00  0.00    -0.118 C 
ATOM     17  C   UNL     1      45.782 -22.282 -41.911  0.00  0.00    -0.095 C 
ENDBRANCH  15  17
ENDBRANCH  14  15
ENDBRANCH  13  14
ENDBRANCH   8  13
ENDBRANCH   4   8
ENDBRANCH   3   6
ENDBRANCH   2   3
ENDBRANCH   1   2
BRANCH   1  18
ATOM     18  C   UNL     1      44.145 -19.656 -35.334  0.00  0.00    +0.009 C 
BRANCH  18  19
ATOM     19  N   UNL     1      42.759 -19.386 -35.744  0.00  0.00    -0.343 N 
ATOM     20  H   UNL     1      42.369 -18.484 -35.799  0.00  0.00    +0.000 HD
BRANCH  19  21
ATOM     21  C   UNL     1      42.044 -20.584 -36.053  0.00  0.00    +0.041 A 
ATOM     22  C   UNL     1      41.358 -21.279 -35.034  0.00  0.00    -0.005 A 
ATOM     23  C   UNL     1      40.630 -22.415 -35.401  0.00  0.00    +0.047 A 
ATOM     24  N   UNL     1      40.504 -22.833 -36.683  0.00  0.00    -0.251 NA
ATOM     25  C   UNL     1      41.147 -22.167 -37.651  0.00  0.00    +0.073 A 
ATOM     26  C   UNL     1      41.014 -22.624 -38.956  0.00  0.00    -0.036 A 
ATOM     27  C   UNL     1      41.668 -22.010 -40.026  0.00  0.00    -0.060 A 
ATOM     28  C   UNL     1      42.489 -20.918 -39.789  0.00  0.00    -0.061 A 
ATOM     29  C   UNL     1      42.634 -20.442 -38.486  0.00  0.00    -0.051 A 
ATOM     30  C   UNL     1      41.949 -21.038 -37.398  0.00  0.00    +0.021 A 
ATOM     31  C   UNL     1      39.877 -23.239 -34.389  0.00  0.00    -0.010 C 
ATOM     32  C   UNL     1      40.386 -23.049 -32.966  0.00  0.00    -0.047 C 
ATOM     33  C   UNL     1      40.468 -21.564 -32.651  0.00  0.00    -0.049 C 
ATOM     34  C   UNL     1      41.459 -20.868 -33.583  0.00  0.00    -0.024 C 
ENDBRANCH  19  21
ENDBRANCH  18  19
ENDBRANCH   1  18
TORSDOF 12
ENDMDL
MODEL 16
REMARK VINA RESULT:    -6.258     15.920     17.871
REMARK INTER + INTRA:         -11.312
REMARK INTER:                  -9.647
REMARK INTRA:                  -1.665
REMARK UNBOUND:                -0.848
REMARK  Name = cpd364.pdb
REMARK  12 active torsions:
REMARK  status: ('A' for Active; 'I' for Inactive)
REMARK    1  A    between atoms: C_2  and  C_3
REMARK    2  A    between atoms: C_3  and  S_4
REMARK    3  A    between atoms: S_4  and  C_5
REMARK    4  A    between atoms: C_5  and  C_6
REMARK    5  A    between atoms: C_6  and  N_7
REMARK    6  A    between atoms: C_6  and  C_8
REMARK    7  A    between atoms: N_10  and  C_11
REMARK    8  A    between atoms: C_11  and  C_12
REMARK    9  A    between atoms: C_12  and  C_13
REMARK   10  A    between atoms: C_13  and  C_14
REMARK   11  A    between atoms: C_14  and  N_15
REMARK   12  A    between atoms: N_15  and  C_16
REMARK                            x       y       z     vdW  Elec       q    Type
REMARK                         _______ _______ _______ _____ _____    ______ ____
ROOT
ATOM      1  C   UNL     1      41.321 -20.329 -39.604  0.00  0.00    -0.036 C 
ENDROOT
BRANCH   1   2
ATOM      2  C   UNL     1      39.895 -20.507 -39.086  0.00  0.00    -0.036 C 
BRANCH   2   3
ATOM      3  C   UNL     1      39.647 -21.931 -38.593  0.00  0.00    +0.012 C 
BRANCH   3   6
ATOM      4  C   UNL     1      40.336 -22.493 -36.277  0.00  0.00    +0.231 C 
ATOM      5  O   UNL     1      41.438 -22.897 -36.638  0.00  0.00    -0.274 OA
ATOM      6  N   UNL     1      39.409 -21.974 -37.165  0.00  0.00    -0.314 N 
ATOM      7  H   UNL     1      38.559 -21.623 -36.813  0.00  0.00    +0.000 HD
BRANCH   4   8
ATOM      8  C   UNL     1      39.829 -22.536 -34.818  0.00  0.00    +0.091 C 
BRANCH   8   9
ATOM      9  N   UNL     1      40.900 -22.978 -33.902  0.00  0.00    -0.319 N 
ATOM     10  H   UNL     1      40.683 -23.910 -33.550  0.00  0.00    +0.000 HD
ATOM     11  H   UNL     1      40.970 -22.327 -33.121  0.00  0.00    +0.000 HD
ATOM     12  H   UNL     1      41.788 -23.003 -34.405  0.00  0.00    +0.000 HD
ENDBRANCH   8   9
BRANCH   8  13
ATOM     13  C   UNL     1      39.292 -21.152 -34.425  0.00  0.00    +0.018 C 
BRANCH  13  14
ATOM     14  S   UNL     1      39.041 -21.033 -32.611  0.00  0.00    -0.146 S 
BRANCH  14  15
ATOM     15  C   UNL     1      39.891 -19.453 -32.305  0.00  0.00    +0.055 C 
BRANCH  15  17
ATOM     16  C   UNL     1      42.468 -19.506 -32.995  0.00  0.00    -0.118 C 
ATOM     17  C   UNL     1      41.305 -19.483 -32.692  0.00  0.00    -0.095 C 
ENDBRANCH  15  17
ENDBRANCH  14  15
ENDBRANCH  13  14
ENDBRANCH   8  13
ENDBRANCH   4   8
ENDBRANCH   3   6
ENDBRANCH   2   3
ENDBRANCH   1   2
BRANCH   1  18
ATOM     18  C   UNL     1      42.285 -19.935 -38.480  0.00  0.00    +0.009 C 
BRANCH  18  19
ATOM     19  N   UNL     1      43.171 -21.069 -38.180  0.00  0.00    -0.343 N 
ATOM     20  H   UNL     1      42.852 -21.949 -37.877  0.00  0.00    +0.000 HD
BRANCH  19  21
ATOM     21  C   UNL     1      44.549 -20.746 -38.379  0.00  0.00    +0.041 A 
ATOM     22  C   UNL     1      45.149 -20.960 -39.639  0.00  0.00    -0.005 A 
ATOM     23  C   UNL     1      46.484 -20.576 -39.794  0.00  0.00    +0.047 A 
ATOM     24  N   UNL     1      47.197 -19.960 -38.823  0.00  0.00    -0.251 NA
ATOM     25  C   UNL     1      46.624 -19.748 -37.630  0.00  0.00    +0.073 A 
ATOM     26  C   UNL     1      47.381 -19.127 -36.644  0.00  0.00    -0.036 A 
ATOM     27  C   UNL     1      46.878 -18.890 -35.364  0.00  0.00    -0.060 A 
ATOM     28  C   UNL     1      45.589 -19.295 -35.051  0.00  0.00    -0.061 A 
ATOM     29  C   UNL     1      44.812 -19.918 -36.027  0.00  0.00    -0.051 A 
ATOM     30  C   UNL     1      45.302 -20.134 -37.339  0.00  0.00    +0.021 A 
ATOM     31  C   UNL     1      47.223 -20.777 -41.092  0.00  0.00    -0.010 C 
ATOM     32  C   UNL     1      46.596 -21.845 -41.978  0.00  0.00    -0.047 C 
ATOM     33  C   UNL     1      45.108 -21.573 -42.124  0.00  0.00    -0.049 C 
ATOM     34  C   UNL     1      44.410 -21.646 -40.766  0.00  0.00    -0.024 C 
ENDBRANCH  19  21
ENDBRANCH  18  19
ENDBRANCH   1  18
TORSDOF 12
ENDMDL
MODEL 17
REMARK VINA RESULT:    -6.248     18.284     20.609
REMARK INTER + INTRA:         -11.296
REMARK INTER:                  -9.345
REMARK INTRA:                  -1.951
REMARK UNBOUND:                -0.848
REMARK  Name = cpd364.pdb
REMARK  12 active torsions:
REMARK  status: ('A' for Active; 'I' for Inactive)
REMARK    1  A    between atoms: C_2  and  C_3
REMARK    2  A    between atoms: C_3  and  S_4
REMARK    3  A    between atoms: S_4  and  C_5
REMARK    4  A    between atoms: C_5  and  C_6
REMARK    5  A    between atoms: C_6  and  N_7
REMARK    6  A    between atoms: C_6  and  C_8
REMARK    7  A    between atoms: N_10  and  C_11
REMARK    8  A    between atoms: C_11  and  C_12
REMARK    9  A    between atoms: C_12  and  C_13
REMARK   10  A    between atoms: C_13  and  C_14
REMARK   11  A    between atoms: C_14  and  N_15
REMARK   12  A    between atoms: N_15  and  C_16
REMARK                            x       y       z     vdW  Elec       q    Type
REMARK                         _______ _______ _______ _____ _____    ______ ____
ROOT
ATOM      1  C   UNL     1      41.915 -21.439 -39.470  0.00  0.00    -0.036 C 
ENDROOT
BRANCH   1   2
ATOM      2  C   UNL     1      42.257 -21.931 -38.064  0.00  0.00    -0.036 C 
BRANCH   2   3
ATOM      3  C   UNL     1      41.429 -21.215 -36.998  0.00  0.00    +0.012 C 
BRANCH   3   6
ATOM      4  C   UNL     1      42.917 -19.702 -35.715  0.00  0.00    +0.231 C 
ATOM      5  O   UNL     1      42.866 -18.825 -36.572  0.00  0.00    -0.274 OA
ATOM      6  N   UNL     1      42.219 -20.892 -35.828  0.00  0.00    -0.314 N 
ATOM      7  H   UNL     1      42.261 -21.541 -35.088  0.00  0.00    +0.000 HD
BRANCH   4   8
ATOM      8  C   UNL     1      43.775 -19.617 -34.432  0.00  0.00    +0.091 C 
BRANCH   8   9
ATOM      9  N   UNL     1      44.033 -20.964 -33.882  0.00  0.00    -0.319 N 
ATOM     10  H   UNL     1      44.964 -20.988 -33.466  0.00  0.00    +0.000 HD
ATOM     11  H   UNL     1      43.977 -21.653 -34.632  0.00  0.00    +0.000 HD
ATOM     12  H   UNL     1      43.335 -21.180 -33.170  0.00  0.00    +0.000 HD
ENDBRANCH   8   9
BRANCH   8  13
ATOM     13  C   UNL     1      45.084 -18.879 -34.744  0.00  0.00    +0.018 C 
BRANCH  13  14
ATOM     14  S   UNL     1      46.232 -19.947 -35.698  0.00  0.00    -0.146 S 
BRANCH  14  15
ATOM     15  C   UNL     1      47.725 -18.910 -35.620  0.00  0.00    +0.055 C 
BRANCH  15  17
ATOM     16  C   UNL     1      47.371 -16.496 -36.702  0.00  0.00    -0.118 C 
ATOM     17  C   UNL     1      47.526 -17.581 -36.208  0.00  0.00    -0.095 C 
ENDBRANCH  15  17
ENDBRANCH  14  15
ENDBRANCH  13  14
ENDBRANCH   8  13
ENDBRANCH   4   8
ENDBRANCH   3   6
ENDBRANCH   2   3
ENDBRANCH   1   2
BRANCH   1  18
ATOM     18  C   UNL     1      42.740 -20.206 -39.853  0.00  0.00    +0.009 C 
BRANCH  18  19
ATOM     19  N   UNL     1      44.001 -20.212 -39.096  0.00  0.00    -0.343 N 
ATOM     20  H   UNL     1      44.075 -20.492 -38.156  0.00  0.00    +0.000 HD
BRANCH  19  21
ATOM     21  C   UNL     1      45.106 -19.765 -39.884  0.00  0.00    +0.041 A 
ATOM     22  C   UNL     1      45.370 -18.384 -40.011  0.00  0.00    -0.005 A 
ATOM     23  C   UNL     1      46.494 -18.004 -40.749  0.00  0.00    +0.047 A 
ATOM     24  N   UNL     1      47.365 -18.891 -41.285  0.00  0.00    -0.251 NA
ATOM     25  C   UNL     1      47.120 -20.202 -41.155  0.00  0.00    +0.073 A 
ATOM     26  C   UNL     1      48.020 -21.093 -41.726  0.00  0.00    -0.036 A 
ATOM     27  C   UNL     1      47.834 -22.475 -41.666  0.00  0.00    -0.060 A 
ATOM     28  C   UNL     1      46.712 -22.985 -41.031  0.00  0.00    -0.061 A 
ATOM     29  C   UNL     1      45.797 -22.108 -40.449  0.00  0.00    -0.051 A 
ATOM     30  C   UNL     1      45.995 -20.705 -40.477  0.00  0.00    +0.021 A 
ATOM     31  C   UNL     1      46.855 -16.556 -40.960  0.00  0.00    -0.010 C 
ATOM     32  C   UNL     1      45.675 -15.612 -40.770  0.00  0.00    -0.047 C 
ATOM     33  C   UNL     1      44.991 -15.916 -39.447  0.00  0.00    -0.049 C 
ATOM     34  C   UNL     1      44.436 -17.340 -39.441  0.00  0.00    -0.024 C 
ENDBRANCH  19  21
ENDBRANCH  18  19
ENDBRANCH   1  18
TORSDOF 12
ENDMDL
MODEL 18
REMARK VINA RESULT:    -6.129     16.389     18.496
REMARK INTER + INTRA:         -11.098
REMARK INTER:                  -9.564
REMARK INTRA:                  -1.534
REMARK UNBOUND:                -0.848
REMARK  Name = cpd364.pdb
REMARK  12 active torsions:
REMARK  status: ('A' for Active; 'I' for Inactive)
REMARK    1  A    between atoms: C_2  and  C_3
REMARK    2  A    between atoms: C_3  and  S_4
REMARK    3  A    between atoms: S_4  and  C_5
REMARK    4  A    between atoms: C_5  and  C_6
REMARK    5  A    between atoms: C_6  and  N_7
REMARK    6  A    between atoms: C_6  and  C_8
REMARK    7  A    between atoms: N_10  and  C_11
REMARK    8  A    between atoms: C_11  and  C_12
REMARK    9  A    between atoms: C_12  and  C_13
REMARK   10  A    between atoms: C_13  and  C_14
REMARK   11  A    between atoms: C_14  and  N_15
REMARK   12  A    between atoms: N_15  and  C_16
REMARK                            x       y       z     vdW  Elec       q    Type
REMARK                         _______ _______ _______ _____ _____    ______ ____
ROOT
ATOM      1  C   UNL     1      41.312 -19.195 -38.427  0.00  0.00    -0.036 C 
ENDROOT
BRANCH   1   2
ATOM      2  C   UNL     1      41.716 -19.432 -36.972  0.00  0.00    -0.036 C 
BRANCH   2   3
ATOM      3  C   UNL     1      42.359 -20.804 -36.781  0.00  0.00    +0.012 C 
BRANCH   3   6
ATOM      4  C   UNL     1      40.802 -22.560 -35.979  0.00  0.00    +0.231 C 
ATOM      5  O   UNL     1      40.514 -22.912 -37.119  0.00  0.00    -0.274 OA
ATOM      6  N   UNL     1      41.720 -21.557 -35.721  0.00  0.00    -0.314 N 
ATOM      7  H   UNL     1      41.945 -21.347 -34.786  0.00  0.00    +0.000 HD
BRANCH   4   8
ATOM      8  C   UNL     1      40.169 -23.152 -34.699  0.00  0.00    +0.091 C 
BRANCH   8   9
ATOM      9  N   UNL     1      41.145 -23.170 -33.590  0.00  0.00    -0.319 N 
ATOM     10  H   UNL     1      40.678 -22.908 -32.722  0.00  0.00    +0.000 HD
ATOM     11  H   UNL     1      41.894 -22.507 -33.786  0.00  0.00    +0.000 HD
ATOM     12  H   UNL     1      41.537 -24.107 -33.497  0.00  0.00    +0.000 HD
ENDBRANCH   8   9
BRANCH   8  13
ATOM     13  C   UNL     1      38.917 -22.344 -34.330  0.00  0.00    +0.018 C 
BRANCH  13  14
ATOM     14  S   UNL     1      39.118 -21.523 -32.702  0.00  0.00    -0.146 S 
BRANCH  14  15
ATOM     15  C   UNL     1      39.550 -19.850 -33.272  0.00  0.00    +0.055 C 
BRANCH  15  17
ATOM     16  C   UNL     1      42.083 -19.188 -32.758  0.00  0.00    -0.118 C 
ATOM     17  C   UNL     1      40.943 -19.493 -32.985  0.00  0.00    -0.095 C 
ENDBRANCH  15  17
ENDBRANCH  14  15
ENDBRANCH  13  14
ENDBRANCH   8  13
ENDBRANCH   4   8
ENDBRANCH   3   6
ENDBRANCH   2   3
ENDBRANCH   1   2
BRANCH   1  18
ATOM     18  C   UNL     1      42.184 -20.003 -39.394  0.00  0.00    +0.009 C 
BRANCH  18  19
ATOM     19  N   UNL     1      43.152 -19.105 -40.041  0.00  0.00    -0.343 N 
ATOM     20  H   UNL     1      42.902 -18.282 -40.518  0.00  0.00    +0.000 HD
BRANCH  19  21
ATOM     21  C   UNL     1      44.497 -19.566 -39.896  0.00  0.00    +0.041 A 
ATOM     22  C   UNL     1      45.298 -19.084 -38.839  0.00  0.00    -0.005 A 
ATOM     23  C   UNL     1      46.588 -19.608 -38.712  0.00  0.00    +0.047 A 
ATOM     24  N   UNL     1      47.072 -20.589 -39.509  0.00  0.00    -0.251 NA
ATOM     25  C   UNL     1      46.307 -21.054 -40.506  0.00  0.00    +0.073 A 
ATOM     26  C   UNL     1      46.830 -22.051 -41.320  0.00  0.00    -0.036 A 
ATOM     27  C   UNL     1      46.118 -22.577 -42.399  0.00  0.00    -0.060 A 
ATOM     28  C   UNL     1      44.853 -22.087 -42.686  0.00  0.00    -0.061 A 
ATOM     29  C   UNL     1      44.308 -21.088 -41.880  0.00  0.00    -0.051 A 
ATOM     30  C   UNL     1      45.010 -20.571 -40.764  0.00  0.00    +0.021 A 
ATOM     31  C   UNL     1      47.530 -19.149 -37.630  0.00  0.00    -0.010 C 
ATOM     32  C   UNL     1      47.171 -17.780 -37.066  0.00  0.00    -0.047 C 
ATOM     33  C   UNL     1      45.700 -17.759 -36.686  0.00  0.00    -0.049 C 
ATOM     34  C   UNL     1      44.821 -17.986 -37.915  0.00  0.00    -0.024 C 
ENDBRANCH  19  21
ENDBRANCH  18  19
ENDBRANCH   1  18
TORSDOF 12
ENDMDL
MODEL 19
REMARK VINA RESULT:    -6.115      2.753      4.552
REMARK INTER + INTRA:         -11.074
REMARK INTER:                 -10.006
REMARK INTRA:                  -1.068
REMARK UNBOUND:                -0.848
REMARK  Name = cpd364.pdb
REMARK  12 active torsions:
REMARK  status: ('A' for Active; 'I' for Inactive)
REMARK    1  A    between atoms: C_2  and  C_3
REMARK    2  A    between atoms: C_3  and  S_4
REMARK    3  A    between atoms: S_4  and  C_5
REMARK    4  A    between atoms: C_5  and  C_6
REMARK    5  A    between atoms: C_6  and  N_7
REMARK    6  A    between atoms: C_6  and  C_8
REMARK    7  A    between atoms: N_10  and  C_11
REMARK    8  A    between atoms: C_11  and  C_12
REMARK    9  A    between atoms: C_12  and  C_13
REMARK   10  A    between atoms: C_13  and  C_14
REMARK   11  A    between atoms: C_14  and  N_15
REMARK   12  A    between atoms: N_15  and  C_16
REMARK                            x       y       z     vdW  Elec       q    Type
REMARK                         _______ _______ _______ _____ _____    ______ ____
ROOT
ATOM      1  C   UNL     1      35.410 -32.749 -31.528  0.00  0.00    -0.036 C 
ENDROOT
BRANCH   1   2
ATOM      2  C   UNL     1      34.219 -32.015 -30.913  0.00  0.00    -0.036 C 
BRANCH   2   3
ATOM      3  C   UNL     1      33.662 -32.758 -29.700  0.00  0.00    +0.012 C 
BRANCH   3   6
ATOM      4  C   UNL     1      31.797 -34.307 -29.176  0.00  0.00    +0.231 C 
ATOM      5  O   UNL     1      32.363 -34.748 -28.179  0.00  0.00    -0.274 OA
ATOM      6  N   UNL     1      32.348 -33.309 -29.961  0.00  0.00    -0.314 N 
ATOM      7  H   UNL     1      31.830 -32.963 -30.723  0.00  0.00    +0.000 HD
BRANCH   4   8
ATOM      8  C   UNL     1      30.436 -34.817 -29.701  0.00  0.00    +0.091 C 
BRANCH   8   9
ATOM      9  N   UNL     1      29.412 -33.755 -29.624  0.00  0.00    -0.319 N 
ATOM     10  H   UNL     1      28.622 -34.084 -29.070  0.00  0.00    +0.000 HD
ATOM     11  H   UNL     1      29.095 -33.520 -30.564  0.00  0.00    +0.000 HD
ATOM     12  H   UNL     1      29.815 -32.926 -29.185  0.00  0.00    +0.000 HD
ENDBRANCH   8   9
BRANCH   8  13
ATOM     13  C   UNL     1      30.605 -35.329 -31.139  0.00  0.00    +0.018 C 
BRANCH  13  14
ATOM     14  S   UNL     1      31.712 -36.791 -31.193  0.00  0.00    -0.146 S 
BRANCH  14  15
ATOM     15  C   UNL     1      32.752 -36.315 -32.608  0.00  0.00    +0.055 C 
BRANCH  15  17
ATOM     16  C   UNL     1      31.572 -36.802 -34.952  0.00  0.00    -0.118 C 
ATOM     17  C   UNL     1      32.110 -36.580 -33.900  0.00  0.00    -0.095 C 
ENDBRANCH  15  17
ENDBRANCH  14  15
ENDBRANCH  13  14
ENDBRANCH   8  13
ENDBRANCH   4   8
ENDBRANCH   3   6
ENDBRANCH   2   3
ENDBRANCH   1   2
BRANCH   1  18
ATOM     18  C   UNL     1      35.807 -33.974 -30.697  0.00  0.00    +0.009 C 
BRANCH  18  19
ATOM     19  N   UNL     1      36.347 -35.011 -31.589  0.00  0.00    -0.343 N 
ATOM     20  H   UNL     1      36.113 -35.091 -32.541  0.00  0.00    +0.000 HD
BRANCH  19  21
ATOM     21  C   UNL     1      37.250 -35.889 -30.913  0.00  0.00    +0.041 A 
ATOM     22  C   UNL     1      36.749 -36.966 -30.151  0.00  0.00    -0.005 A 
ATOM     23  C   UNL     1      37.677 -37.825 -29.556  0.00  0.00    +0.047 A 
ATOM     24  N   UNL     1      39.015 -37.708 -29.729  0.00  0.00    -0.251 NA
ATOM     25  C   UNL     1      39.489 -36.691 -30.461  0.00  0.00    +0.073 A 
ATOM     26  C   UNL     1      40.866 -36.582 -30.612  0.00  0.00    -0.036 A 
ATOM     27  C   UNL     1      41.452 -35.541 -31.333  0.00  0.00    -0.060 A 
ATOM     28  C   UNL     1      40.646 -34.571 -31.910  0.00  0.00    -0.061 A 
ATOM     29  C   UNL     1      39.261 -34.663 -31.773  0.00  0.00    -0.051 A 
ATOM     30  C   UNL     1      38.656 -35.733 -31.069  0.00  0.00    +0.021 A 
ATOM     31  C   UNL     1      37.249 -38.995 -28.708  0.00  0.00    -0.010 C 
ATOM     32  C   UNL     1      35.837 -38.847 -28.157  0.00  0.00    -0.047 C 
ATOM     33  C   UNL     1      34.885 -38.493 -29.288  0.00  0.00    -0.049 C 
ATOM     34  C   UNL     1      35.268 -37.154 -29.915  0.00  0.00    -0.024 C 
ENDBRANCH  19  21
ENDBRANCH  18  19
ENDBRANCH   1  18
TORSDOF 12
ENDMDL
MODEL 20
REMARK VINA RESULT:    -6.089      1.910      2.423
REMARK INTER + INTRA:         -11.030
REMARK INTER:                 -10.338
REMARK INTRA:                  -0.692
REMARK UNBOUND:                -0.848
REMARK  Name = cpd364.pdb
REMARK  12 active torsions:
REMARK  status: ('A' for Active; 'I' for Inactive)
REMARK    1  A    between atoms: C_2  and  C_3
REMARK    2  A    between atoms: C_3  and  S_4
REMARK    3  A    between atoms: S_4  and  C_5
REMARK    4  A    between atoms: C_5  and  C_6
REMARK    5  A    between atoms: C_6  and  N_7
REMARK    6  A    between atoms: C_6  and  C_8
REMARK    7  A    between atoms: N_10  and  C_11
REMARK    8  A    between atoms: C_11  and  C_12
REMARK    9  A    between atoms: C_12  and  C_13
REMARK   10  A    between atoms: C_13  and  C_14
REMARK   11  A    between atoms: C_14  and  N_15
REMARK   12  A    between atoms: N_15  and  C_16
REMARK                            x       y       z     vdW  Elec       q    Type
REMARK                         _______ _______ _______ _____ _____    ______ ____
ROOT
ATOM      1  C   UNL     1      33.896 -34.321 -30.159  0.00  0.00    -0.036 C 
ENDROOT
BRANCH   1   2
ATOM      2  C   UNL     1      33.320 -32.980 -29.706  0.00  0.00    -0.036 C 
BRANCH   2   3
ATOM      3  C   UNL     1      33.289 -31.965 -30.848  0.00  0.00    +0.012 C 
BRANCH   3   6
ATOM      4  C   UNL     1      31.016 -30.974 -30.831  0.00  0.00    +0.231 C 
ATOM      5  O   UNL     1      30.497 -32.004 -31.250  0.00  0.00    -0.274 OA
ATOM      6  N   UNL     1      32.373 -30.876 -30.577  0.00  0.00    -0.314 N 
ATOM      7  H   UNL     1      32.727 -30.038 -30.200  0.00  0.00    +0.000 HD
BRANCH   4   8
ATOM      8  C   UNL     1      30.248 -29.658 -30.568  0.00  0.00    +0.091 C 
BRANCH   8   9
ATOM      9  N   UNL     1      29.388 -29.312 -31.718  0.00  0.00    -0.319 N 
ATOM     10  H   UNL     1      29.372 -30.091 -32.376  0.00  0.00    +0.000 HD
ATOM     11  H   UNL     1      29.757 -28.483 -32.182  0.00  0.00    +0.000 HD
ATOM     12  H   UNL     1      28.441 -29.124 -31.389  0.00  0.00    +0.000 HD
ENDBRANCH   8   9
BRANCH   8  13
ATOM     13  C   UNL     1      29.429 -29.797 -29.277  0.00  0.00    +0.018 C 
BRANCH  13  14
ATOM     14  S   UNL     1      27.629 -29.721 -29.627  0.00  0.00    -0.146 S 
BRANCH  14  15
ATOM     15  C   UNL     1      27.203 -28.255 -28.638  0.00  0.00    +0.055 C 
BRANCH  15  17
ATOM     16  C   UNL     1      28.530 -26.068 -29.400  0.00  0.00    -0.118 C 
ATOM     17  C   UNL     1      27.939 -27.055 -29.052  0.00  0.00    -0.095 C 
ENDBRANCH  15  17
ENDBRANCH  14  15
ENDBRANCH  13  14
ENDBRANCH   8  13
ENDBRANCH   4   8
ENDBRANCH   3   6
ENDBRANCH   2   3
ENDBRANCH   1   2
BRANCH   1  18
ATOM     18  C   UNL     1      35.418 -34.253 -30.327  0.00  0.00    +0.009 C 
BRANCH  18  19
ATOM     19  N   UNL     1      35.836 -35.221 -31.352  0.00  0.00    -0.343 N 
ATOM     20  H   UNL     1      35.426 -35.287 -32.244  0.00  0.00    +0.000 HD
BRANCH  19  21
ATOM     21  C   UNL     1      36.908 -36.053 -30.905  0.00  0.00    +0.041 A 
ATOM     22  C   UNL     1      38.246 -35.669 -31.141  0.00  0.00    -0.005 A 
ATOM     23  C   UNL     1      39.256 -36.493 -30.635  0.00  0.00    +0.047 A 
ATOM     24  N   UNL     1      39.010 -37.592 -29.884  0.00  0.00    -0.251 NA
ATOM     25  C   UNL     1      37.740 -37.950 -29.651  0.00  0.00    +0.073 A 
ATOM     26  C   UNL     1      37.513 -39.090 -28.890  0.00  0.00    -0.036 A 
ATOM     27  C   UNL     1      36.226 -39.555 -28.618  0.00  0.00    -0.060 A 
ATOM     28  C   UNL     1      35.132 -38.874 -29.130  0.00  0.00    -0.061 A 
ATOM     29  C   UNL     1      35.337 -37.726 -29.895  0.00  0.00    -0.051 A 
ATOM     30  C   UNL     1      36.639 -37.228 -30.149  0.00  0.00    +0.021 A 
ATOM     31  C   UNL     1      40.715 -36.184 -30.847  0.00  0.00    -0.010 C 
ATOM     32  C   UNL     1      40.964 -35.260 -32.032  0.00  0.00    -0.047 C 
ATOM     33  C   UNL     1      40.060 -34.042 -31.924  0.00  0.00    -0.049 C 
ATOM     34  C   UNL     1      38.590 -34.456 -31.975  0.00  0.00    -0.024 C 
ENDBRANCH  19  21
ENDBRANCH  18  19
ENDBRANCH   1  18
TORSDOF 12
ENDMDL
