REMARK  Name = cpd364.pdb
REMARK  12 active torsions:
REMARK  status: ('A' for Active; 'I' for Inactive)
REMARK    1  A    between atoms: C_2  and  C_3
REMARK    2  A    between atoms: C_3  and  S_4
REMARK    3  A    between atoms: S_4  and  C_5
REMARK    4  A    between atoms: C_5  and  C_6
REMARK    5  A    between atoms: C_6  and  N_7
REMARK    6  A    between atoms: C_6  and  C_8
REMARK    7  A    between atoms: N_10  and  C_11
REMARK    8  A    between atoms: C_11  and  C_12
REMARK    9  A    between atoms: C_12  and  C_13
REMARK   10  A    between atoms: C_13  and  C_14
REMARK   11  A    between atoms: C_14  and  N_15
REMARK   12  A    between atoms: N_15  and  C_16
REMARK                            x       y       z     vdW  Elec       q    Type
REMARK                         _______ _______ _______ _____ _____    ______ ____
ROOT
ATOM      1  C   UNL     1       2.357  -2.487  -0.334  0.00  0.00    -0.036 C 
ENDROOT
BRANCH   1   2
ATOM      2  C   UNL     1       3.670  -3.163   0.059  0.00  0.00    -0.036 C 
BRANCH   2   3
ATOM      3  C   UNL     1       3.583  -4.683  -0.069  0.00  0.00    +0.012 C 
BRANCH   3   6
ATOM      4  C   UNL     1       5.761  -5.373   0.896  0.00  0.00    +0.231 C 
ATOM      5  O   UNL     1       5.455  -4.986   2.020  0.00  0.00    -0.274 OA
ATOM      6  N   UNL     1       4.893  -5.291  -0.179  0.00  0.00    -0.314 N 
ATOM      7  H   UNL     1       5.176  -5.658  -1.048  0.00  0.00    +0.000 HD
BRANCH   4   8
ATOM      8  C   UNL     1       7.141  -5.962   0.524  0.00  0.00    +0.091 C 
BRANCH   8   9
ATOM      9  N   UNL     1       8.154  -5.607   1.539  0.00  0.00    -0.319 N 
ATOM     10  H   UNL     1       7.878  -5.990   2.443  0.00  0.00    +0.000 HD
ATOM     11  H   UNL     1       8.226  -4.592   1.607  0.00  0.00    +0.000 HD
ATOM     12  H   UNL     1       9.058  -5.994   1.267  0.00  0.00    +0.000 HD
ENDBRANCH   8   9
BRANCH   8  13
ATOM     13  C   UNL     1       7.018  -7.484   0.364  0.00  0.00    +0.018 C 
BRANCH  13  14
ATOM     14  S   UNL     1       8.512  -8.186  -0.437  0.00  0.00    -0.146 S 
BRANCH  14  15
ATOM     15  C   UNL     1       8.326  -9.922   0.074  0.00  0.00    +0.055 C 
BRANCH  15  17
ATOM     16  C   UNL     1       6.114 -11.066  -0.885  0.00  0.00    -0.118 C 
ATOM     17  C   UNL     1       7.110 -10.545  -0.459  0.00  0.00    -0.095 C 
ENDBRANCH  15  17
ENDBRANCH  14  15
ENDBRANCH  13  14
ENDBRANCH   8  13
ENDBRANCH   4   8
ENDBRANCH   3   6
ENDBRANCH   2   3
ENDBRANCH   1   2
BRANCH   1  18
ATOM     18  C   UNL     1       2.383  -0.985  -0.030  0.00  0.00    +0.009 C 
BRANCH  18  19
ATOM     19  N   UNL     1       1.592  -0.271  -1.043  0.00  0.00    -0.343 N 
ATOM     20  H   UNL     1       1.264  -0.684  -1.874  0.00  0.00    +0.000 HD
BRANCH  19  21
ATOM     21  C   UNL     1       1.354   1.091  -0.682  0.00  0.00    +0.041 A 
ATOM     22  C   UNL     1       0.112   1.467  -0.126  0.00  0.00    -0.005 A 
ATOM     23  C   UNL     1      -0.048   2.801   0.259  0.00  0.00    +0.047 A 
ATOM     24  N   UNL     1       0.943   3.720   0.182  0.00  0.00    -0.251 NA
ATOM     25  C   UNL     1       2.125   3.360  -0.336  0.00  0.00    +0.073 A 
ATOM     26  C   UNL     1       3.122   4.324  -0.418  0.00  0.00    -0.036 A 
ATOM     27  C   UNL     1       4.375   4.049  -0.968  0.00  0.00    -0.060 A 
ATOM     28  C   UNL     1       4.640   2.781  -1.463  0.00  0.00    -0.061 A 
ATOM     29  C   UNL     1       3.654   1.798  -1.388  0.00  0.00    -0.051 A 
ATOM     30  C   UNL     1       2.390   2.059  -0.803  0.00  0.00    +0.021 A 
ATOM     31  C   UNL     1      -1.339   3.310   0.846  0.00  0.00    -0.010 C 
ATOM     32  C   UNL     1      -2.537   2.433   0.505  0.00  0.00    -0.047 C 
ATOM     33  C   UNL     1      -2.213   0.984   0.829  0.00  0.00    -0.049 C 
ATOM     34  C   UNL     1      -1.038   0.492  -0.015  0.00  0.00    -0.024 C 
ENDBRANCH  19  21
ENDBRANCH  18  19
ENDBRANCH   1  18
TORSDOF 12
