@<TRIPOS>MOLECULE
*****
 25 27 0 0 0
SMALL
GASTEIGER

@<TRIPOS>ATOM
      1 C          -2.7266   -2.1045    0.0000 C.3     1  UNL1        0.0518
      2 C          -3.5926   -1.6045    0.0000 C.ar    1  UNL1        0.0580
      3 N          -4.4586   -2.1045    0.0000 N.ar    1  UNL1       -0.2498
      4 C          -5.3246   -1.6045    0.0000 C.ar    1  UNL1        0.0830
      5 C          -6.1907   -2.1045    0.0000 C.ar    1  UNL1        0.0192
      6 C          -7.0567   -1.6045    0.0000 C.ar    1  UNL1        0.0024
      7 C          -7.0567   -0.6045    0.0000 C.ar    1  UNL1        0.0115
      8 C          -6.1907   -0.1045    0.0000 C.ar    1  UNL1        0.0604
      9 CL         -6.1907    0.8955    0.0000 Cl      1  UNL1       -0.0822
     10 C          -5.3246   -0.6045    0.0000 C.ar    1  UNL1        0.0447
     11 C          -4.4586   -0.1045    0.0000 C.ar    1  UNL1        0.0898
     12 N          -4.4586    0.8955    0.0000 N.pl3   1  UNL1       -0.1282
     13 C          -3.5926   -0.6045    0.0000 C.ar    1  UNL1        0.0257
     14 C          -2.7266   -0.1045    0.0000 C.3     1  UNL1        0.1212
     15 N          -1.8605   -0.6045    0.0000 N.3     1  UNL1       -0.1723
     16 C          -0.9945   -0.1045    0.0000 C.3     1  UNL1        0.2842
     17 C          -0.9945   -1.1045    0.0000 C.3     1  UNL1        0.4460
     18 F          -0.4945   -1.9706    0.0000 F       1  UNL1       -0.1653
     19 F           0.0055   -1.1045    0.0000 F       1  UNL1       -0.1653
     20 F          -1.8605   -1.6045    0.0000 F       1  UNL1       -0.1653
     21 C          -1.4013    0.8090    0.0000 C.3     1  UNL1        0.0781
     22 C          -0.6581    1.4781    0.0000 C.3     1  UNL1        0.1150
     23 C           0.2079    0.9781    0.0000 C.2     1  UNL1        0.3184
     24 O           1.1215    1.3849    0.0000 O.2     1  UNL1       -0.2501
     25 O          -0.0000   -0.0000    0.0000 O.3     1  UNL1       -0.4310
@<TRIPOS>BOND
     1     1     2    1
     2     2     3   ar
     3     3     4   ar
     4     4     5   ar
     5     5     6   ar
     6     6     7   ar
     7     7     8   ar
     8     8     9    1
     9     8    10   ar
    10     4    10   ar
    11    10    11   ar
    12    11    12    1
    13    11    13   ar
    14     2    13   ar
    15    13    14    1
    16    14    15    1
    17    15    16    1
    18    16    17    1
    19    17    18    1
    20    17    19    1
    21    17    20    1
    22    16    21    1
    23    21    22    1
    24    22    23    1
    25    23    24    2
    26    23    25    1
    27    16    25    1
