MODEL 1
REMARK VINA RESULT:    -8.291      0.000      0.000
REMARK INTER + INTRA:         -11.502
REMARK INTER:                 -10.472
REMARK INTRA:                  -1.030
REMARK UNBOUND:                -1.030
REMARK  Name = cpd203.pdb
REMARK  6 active torsions:
REMARK  status: ('A' for Active; 'I' for Inactive)
REMARK    1  A    between atoms: C_1  and  C_2
REMARK    2  A    between atoms: C_11  and  N_12
REMARK    3  A    between atoms: C_13  and  C_14
REMARK    4  A    between atoms: C_14  and  N_15
REMARK    5  A    between atoms: N_15  and  C_16
REMARK    6  A    between atoms: C_16  and  C_17
REMARK                            x       y       z     vdW  Elec       q    Type
REMARK                         _______ _______ _______ _____ _____    ______ ____
ROOT
ATOM      1  C   UNL     1      36.588 -36.005 -29.808  0.00  0.00    -0.022 C 
ATOM      2  C   UNL     1      37.948 -36.623 -29.974  0.00  0.00    +0.045 A 
ATOM      3  N   UNL     1      38.636 -36.193 -31.055  0.00  0.00    -0.251 NA
ATOM      4  C   UNL     1      39.864 -36.664 -31.293  0.00  0.00    +0.074 A 
ATOM      5  C   UNL     1      40.500 -36.151 -32.415  0.00  0.00    -0.036 A 
ATOM      6  C   UNL     1      41.786 -36.536 -32.782  0.00  0.00    -0.058 A 
ATOM      7  C   UNL     1      42.457 -37.462 -32.004  0.00  0.00    -0.043 A 
ATOM      8  C   UNL     1      41.836 -37.996 -30.869  0.00  0.00    +0.052 A 
ATOM      9 CL   UNL     1      42.782 -39.163 -29.997  0.00  0.00    -0.083 Cl
ATOM     10  C   UNL     1      40.513 -37.612 -30.473  0.00  0.00    +0.040 A 
ATOM     11  C   UNL     1      39.753 -38.076 -29.344  0.00  0.00    +0.041 A 
ATOM     12  C   UNL     1      38.470 -37.549 -29.070  0.00  0.00    +0.009 A 
ENDROOT
BRANCH  11  13
ATOM     13  N   UNL     1      40.353 -38.895 -28.343  0.00  0.00    -0.357 N 
ATOM     14  H   UNL     1      40.724 -39.775 -28.583  0.00  0.00    +0.000 HD
ATOM     15  H   UNL     1      40.399 -38.580 -27.411  0.00  0.00    +0.000 HD
ENDBRANCH  11  13
BRANCH  12  16
ATOM     16  C   UNL     1      37.661 -38.020 -27.879  0.00  0.00    +0.028 C 
BRANCH  16  17
ATOM     17  N   UNL     1      37.091 -39.348 -28.114  0.00  0.00    -0.268 N 
ATOM     18  H   UNL     1      37.309 -39.936 -27.311  0.00  0.00    +0.000 HD
ATOM     19  H   UNL     1      37.503 -39.693 -28.981  0.00  0.00    +0.000 HD
BRANCH  17  20
ATOM     20  C   UNL     1      35.627 -39.355 -28.310  0.00  0.00    +0.261 C 
ATOM     21  C   UNL     1      34.998 -38.193 -27.540  0.00  0.00    +0.020 C 
ATOM     22  C   UNL     1      33.650 -38.731 -27.127  0.00  0.00    +0.050 C 
ATOM     23  C   UNL     1      33.923 -40.199 -27.020  0.00  0.00    +0.309 C 
ATOM     24  O   UNL     1      33.185 -41.019 -26.501  0.00  0.00    -0.251 OA
ATOM     25  O   UNL     1      35.109 -40.510 -27.619  0.00  0.00    -0.434 OA
BRANCH  20  26
ATOM     26  C   UNL     1      35.116 -39.397 -29.801  0.00  0.00    +0.444 C 
ATOM     27  F   UNL     1      34.325 -38.333 -30.082  0.00  0.00    -0.165 F 
ATOM     28  F   UNL     1      34.390 -40.507 -30.064  0.00  0.00    -0.165 F 
ATOM     29  F   UNL     1      36.152 -39.368 -30.673  0.00  0.00    -0.165 F 
ENDBRANCH  20  26
ENDBRANCH  17  20
ENDBRANCH  16  17
ENDBRANCH  12  16
TORSDOF 5
ENDMDL
MODEL 2
REMARK VINA RESULT:    -8.160      4.154      5.506
REMARK INTER + INTRA:         -11.337
REMARK INTER:                 -10.392
REMARK INTRA:                  -0.945
REMARK UNBOUND:                -1.030
REMARK  Name = cpd203.pdb
REMARK  6 active torsions:
REMARK  status: ('A' for Active; 'I' for Inactive)
REMARK    1  A    between atoms: C_1  and  C_2
REMARK    2  A    between atoms: C_11  and  N_12
REMARK    3  A    between atoms: C_13  and  C_14
REMARK    4  A    between atoms: C_14  and  N_15
REMARK    5  A    between atoms: N_15  and  C_16
REMARK    6  A    between atoms: C_16  and  C_17
REMARK                            x       y       z     vdW  Elec       q    Type
REMARK                         _______ _______ _______ _____ _____    ______ ____
ROOT
ATOM      1  C   UNL     1      35.637 -38.025 -27.693  0.00  0.00    -0.022 C 
ATOM      2  C   UNL     1      36.638 -37.548 -28.707  0.00  0.00    +0.045 A 
ATOM      3  N   UNL     1      37.897 -38.003 -28.514  0.00  0.00    -0.251 NA
ATOM      4  C   UNL     1      38.867 -37.654 -29.366  0.00  0.00    +0.074 A 
ATOM      5  C   UNL     1      40.122 -38.183 -29.100  0.00  0.00    -0.036 A 
ATOM      6  C   UNL     1      41.225 -37.922 -29.906  0.00  0.00    -0.058 A 
ATOM      7  C   UNL     1      41.070 -37.106 -31.012  0.00  0.00    -0.043 A 
ATOM      8  C   UNL     1      39.815 -36.558 -31.301  0.00  0.00    +0.052 A 
ATOM      9 CL   UNL     1      39.767 -35.536 -32.704  0.00  0.00    -0.083 Cl
ATOM     10  C   UNL     1      38.665 -36.816 -30.484  0.00  0.00    +0.040 A 
ATOM     11  C   UNL     1      37.325 -36.323 -30.654  0.00  0.00    +0.041 A 
ATOM     12  C   UNL     1      36.291 -36.722 -29.776  0.00  0.00    +0.009 A 
ENDROOT
BRANCH  11  13
ATOM     13  N   UNL     1      36.949 -35.616 -31.833  0.00  0.00    -0.357 N 
ATOM     14  H   UNL     1      36.325 -34.857 -31.775  0.00  0.00    +0.000 HD
ATOM     15  H   UNL     1      37.312 -35.888 -32.707  0.00  0.00    +0.000 HD
ENDBRANCH  11  13
BRANCH  12  16
ATOM     16  C   UNL     1      34.872 -36.220 -29.948  0.00  0.00    +0.028 C 
BRANCH  16  17
ATOM     17  N   UNL     1      34.711 -34.879 -29.382  0.00  0.00    -0.268 N 
ATOM     18  H   UNL     1      35.639 -34.485 -29.225  0.00  0.00    +0.000 HD
ATOM     19  H   UNL     1      34.176 -34.988 -28.521  0.00  0.00    +0.000 HD
BRANCH  17  20
ATOM     20  C   UNL     1      33.951 -33.945 -30.239  0.00  0.00    +0.261 C 
ATOM     21  C   UNL     1      32.476 -34.346 -30.256  0.00  0.00    +0.020 C 
ATOM     22  C   UNL     1      32.020 -33.955 -31.641  0.00  0.00    +0.050 C 
ATOM     23  C   UNL     1      33.284 -34.093 -32.432  0.00  0.00    +0.309 C 
ATOM     24  O   UNL     1      33.359 -34.094 -33.649  0.00  0.00    -0.251 OA
ATOM     25  O   UNL     1      34.362 -34.185 -31.601  0.00  0.00    -0.434 OA
BRANCH  20  26
ATOM     26  C   UNL     1      34.124 -32.409 -29.931  0.00  0.00    +0.444 C 
ATOM     27  F   UNL     1      34.590 -31.738 -31.012  0.00  0.00    -0.165 F 
ATOM     28  F   UNL     1      34.995 -32.182 -28.922  0.00  0.00    -0.165 F 
ATOM     29  F   UNL     1      32.941 -31.844 -29.587  0.00  0.00    -0.165 F 
ENDBRANCH  20  26
ENDBRANCH  17  20
ENDBRANCH  16  17
ENDBRANCH  12  16
TORSDOF 5
ENDMDL
MODEL 3
REMARK VINA RESULT:    -7.762      3.449      4.524
REMARK INTER + INTRA:         -10.834
REMARK INTER:                  -9.969
REMARK INTRA:                  -0.865
REMARK UNBOUND:                -1.030
REMARK  Name = cpd203.pdb
REMARK  6 active torsions:
REMARK  status: ('A' for Active; 'I' for Inactive)
REMARK    1  A    between atoms: C_1  and  C_2
REMARK    2  A    between atoms: C_11  and  N_12
REMARK    3  A    between atoms: C_13  and  C_14
REMARK    4  A    between atoms: C_14  and  N_15
REMARK    5  A    between atoms: N_15  and  C_16
REMARK    6  A    between atoms: C_16  and  C_17
REMARK                            x       y       z     vdW  Elec       q    Type
REMARK                         _______ _______ _______ _____ _____    ______ ____
ROOT
ATOM      1  C   UNL     1      35.521 -36.499 -28.818  0.00  0.00    -0.022 C 
ATOM      2  C   UNL     1      36.794 -36.526 -29.617  0.00  0.00    +0.045 A 
ATOM      3  N   UNL     1      37.810 -37.204 -29.038  0.00  0.00    -0.251 NA
ATOM      4  C   UNL     1      38.985 -37.306 -29.666  0.00  0.00    +0.074 A 
ATOM      5  C   UNL     1      39.962 -38.036 -29.004  0.00  0.00    -0.036 A 
ATOM      6  C   UNL     1      41.229 -38.241 -29.541  0.00  0.00    -0.058 A 
ATOM      7  C   UNL     1      41.530 -37.698 -30.777  0.00  0.00    -0.043 A 
ATOM      8  C   UNL     1      40.563 -36.956 -31.464  0.00  0.00    +0.052 A 
ATOM      9 CL   UNL     1      41.081 -36.315 -32.993  0.00  0.00    -0.083 Cl
ATOM     10  C   UNL     1      39.251 -36.735 -30.929  0.00  0.00    +0.040 A 
ATOM     11  C   UNL     1      38.165 -35.995 -31.515  0.00  0.00    +0.041 A 
ATOM     12  C   UNL     1      36.910 -35.920 -30.868  0.00  0.00    +0.009 A 
ENDROOT
BRANCH  11  13
ATOM     13  N   UNL     1      38.242 -35.521 -32.857  0.00  0.00    -0.357 N 
ATOM     14  H   UNL     1      37.667 -34.777 -33.150  0.00  0.00    +0.000 HD
ATOM     15  H   UNL     1      38.870 -35.937 -33.491  0.00  0.00    +0.000 HD
ENDBRANCH  11  13
BRANCH  12  16
ATOM     16  C   UNL     1      35.754 -35.154 -31.476  0.00  0.00    +0.028 C 
BRANCH  16  17
ATOM     17  N   UNL     1      35.114 -35.919 -32.548  0.00  0.00    -0.268 N 
ATOM     18  H   UNL     1      35.619 -36.798 -32.659  0.00  0.00    +0.000 HD
ATOM     19  H   UNL     1      35.147 -35.335 -33.384  0.00  0.00    +0.000 HD
BRANCH  17  20
ATOM     20  C   UNL     1      33.690 -36.232 -32.305  0.00  0.00    +0.261 C 
ATOM     21  C   UNL     1      32.859 -35.836 -33.526  0.00  0.00    +0.020 C 
ATOM     22  C   UNL     1      31.536 -35.418 -32.932  0.00  0.00    +0.050 C 
ATOM     23  C   UNL     1      31.947 -34.922 -31.581  0.00  0.00    +0.309 C 
ATOM     24  O   UNL     1      31.244 -34.279 -30.821  0.00  0.00    -0.251 OA
ATOM     25  O   UNL     1      33.220 -35.320 -31.292  0.00  0.00    -0.434 OA
BRANCH  20  26
ATOM     26  C   UNL     1      33.362 -37.702 -31.842  0.00  0.00    +0.444 C 
ATOM     27  F   UNL     1      32.633 -38.363 -32.774  0.00  0.00    -0.165 F 
ATOM     28  F   UNL     1      32.651 -37.732 -30.692  0.00  0.00    -0.165 F 
ATOM     29  F   UNL     1      34.496 -38.415 -31.640  0.00  0.00    -0.165 F 
ENDBRANCH  20  26
ENDBRANCH  17  20
ENDBRANCH  16  17
ENDBRANCH  12  16
TORSDOF 5
ENDMDL
MODEL 4
REMARK VINA RESULT:    -7.706      1.275      1.662
REMARK INTER + INTRA:         -10.763
REMARK INTER:                  -9.802
REMARK INTRA:                  -0.960
REMARK UNBOUND:                -1.030
REMARK  Name = cpd203.pdb
REMARK  6 active torsions:
REMARK  status: ('A' for Active; 'I' for Inactive)
REMARK    1  A    between atoms: C_1  and  C_2
REMARK    2  A    between atoms: C_11  and  N_12
REMARK    3  A    between atoms: C_13  and  C_14
REMARK    4  A    between atoms: C_14  and  N_15
REMARK    5  A    between atoms: N_15  and  C_16
REMARK    6  A    between atoms: C_16  and  C_17
REMARK                            x       y       z     vdW  Elec       q    Type
REMARK                         _______ _______ _______ _____ _____    ______ ____
ROOT
ATOM      1  C   UNL     1      35.421 -35.882 -29.413  0.00  0.00    -0.022 C 
ATOM      2  C   UNL     1      36.813 -36.389 -29.665  0.00  0.00    +0.045 A 
ATOM      3  N   UNL     1      37.392 -35.914 -30.790  0.00  0.00    -0.251 NA
ATOM      4  C   UNL     1      38.637 -36.287 -31.106  0.00  0.00    +0.074 A 
ATOM      5  C   UNL     1      39.156 -35.734 -32.268  0.00  0.00    -0.036 A 
ATOM      6  C   UNL     1      40.443 -36.016 -32.716  0.00  0.00    -0.058 A 
ATOM      7  C   UNL     1      41.236 -36.878 -31.980  0.00  0.00    -0.043 A 
ATOM      8  C   UNL     1      40.735 -37.450 -30.805  0.00  0.00    +0.052 A 
ATOM      9 CL   UNL     1      41.827 -38.528 -29.992  0.00  0.00    -0.083 Cl
ATOM     10  C   UNL     1      39.413 -37.171 -30.325  0.00  0.00    +0.040 A 
ATOM     11  C   UNL     1      38.767 -37.685 -29.148  0.00  0.00    +0.041 A 
ATOM     12  C   UNL     1      37.466 -37.261 -28.793  0.00  0.00    +0.009 A 
ENDROOT
BRANCH  11  13
ATOM     13  N   UNL     1      39.496 -38.443 -28.185  0.00  0.00    -0.357 N 
ATOM     14  H   UNL     1      39.884 -37.996 -27.398  0.00  0.00    +0.000 HD
ATOM     15  H   UNL     1      39.611 -39.413 -28.306  0.00  0.00    +0.000 HD
ENDBRANCH  11  13
BRANCH  12  16
ATOM     16  C   UNL     1      36.776 -37.785 -27.550  0.00  0.00    +0.028 C 
BRANCH  16  17
ATOM     17  N   UNL     1      36.078 -39.044 -27.820  0.00  0.00    -0.268 N 
ATOM     18  H   UNL     1      36.579 -39.794 -27.346  0.00  0.00    +0.000 HD
ATOM     19  H   UNL     1      36.061 -39.157 -28.834  0.00  0.00    +0.000 HD
BRANCH  17  20
ATOM     20  C   UNL     1      34.672 -39.067 -27.368  0.00  0.00    +0.261 C 
ATOM     21  C   UNL     1      34.479 -38.066 -26.229  0.00  0.00    +0.020 C 
ATOM     22  C   UNL     1      33.417 -38.707 -25.370  0.00  0.00    +0.050 C 
ATOM     23  C   UNL     1      33.652 -40.164 -25.626  0.00  0.00    +0.309 C 
ATOM     24  O   UNL     1      33.175 -41.080 -24.978  0.00  0.00    -0.251 OA
ATOM     25  O   UNL     1      34.454 -40.335 -26.716  0.00  0.00    -0.434 OA
BRANCH  20  26
ATOM     26  C   UNL     1      33.571 -38.886 -28.482  0.00  0.00    +0.444 C 
ATOM     27  F   UNL     1      34.129 -38.772 -29.713  0.00  0.00    -0.165 F 
ATOM     28  F   UNL     1      32.819 -37.780 -28.287  0.00  0.00    -0.165 F 
ATOM     29  F   UNL     1      32.734 -39.950 -28.519  0.00  0.00    -0.165 F 
ENDBRANCH  20  26
ENDBRANCH  17  20
ENDBRANCH  16  17
ENDBRANCH  12  16
TORSDOF 5
ENDMDL
MODEL 5
REMARK VINA RESULT:    -7.202      1.587      2.276
REMARK INTER + INTRA:         -10.126
REMARK INTER:                  -8.879
REMARK INTRA:                  -1.247
REMARK UNBOUND:                -1.030
REMARK  Name = cpd203.pdb
REMARK  6 active torsions:
REMARK  status: ('A' for Active; 'I' for Inactive)
REMARK    1  A    between atoms: C_1  and  C_2
REMARK    2  A    between atoms: C_11  and  N_12
REMARK    3  A    between atoms: C_13  and  C_14
REMARK    4  A    between atoms: C_14  and  N_15
REMARK    5  A    between atoms: N_15  and  C_16
REMARK    6  A    between atoms: C_16  and  C_17
REMARK                            x       y       z     vdW  Elec       q    Type
REMARK                         _______ _______ _______ _____ _____    ______ ____
ROOT
ATOM      1  C   UNL     1      34.950 -35.423 -31.293  0.00  0.00    -0.022 C 
ATOM      2  C   UNL     1      36.224 -36.039 -30.788  0.00  0.00    +0.045 A 
ATOM      3  N   UNL     1      37.341 -35.635 -31.434  0.00  0.00    -0.251 NA
ATOM      4  C   UNL     1      38.534 -36.107 -31.058  0.00  0.00    +0.074 A 
ATOM      5  C   UNL     1      39.625 -35.622 -31.766  0.00  0.00    -0.036 A 
ATOM      6  C   UNL     1      40.930 -36.010 -31.479  0.00  0.00    -0.058 A 
ATOM      7  C   UNL     1      41.152 -36.912 -30.453  0.00  0.00    -0.043 A 
ATOM      8  C   UNL     1      40.068 -37.417 -29.726  0.00  0.00    +0.052 A 
ATOM      9 CL   UNL     1      40.487 -38.556 -28.483  0.00  0.00    -0.083 Cl
ATOM     10  C   UNL     1      38.716 -37.029 -30.005  0.00  0.00    +0.040 A 
ATOM     11  C   UNL     1      37.513 -37.465 -29.350  0.00  0.00    +0.041 A 
ATOM     12  C   UNL     1      36.255 -36.937 -29.721  0.00  0.00    +0.009 A 
ENDROOT
BRANCH  11  13
ATOM     13  N   UNL     1      37.569 -38.254 -28.163  0.00  0.00    -0.357 N 
ATOM     14  H   UNL     1      36.983 -39.038 -28.065  0.00  0.00    +0.000 HD
ATOM     15  H   UNL     1      38.195 -38.013 -27.442  0.00  0.00    +0.000 HD
ENDBRANCH  11  13
BRANCH  12  16
ATOM     16  C   UNL     1      34.980 -37.379 -29.034  0.00  0.00    +0.028 C 
BRANCH  16  17
ATOM     17  N   UNL     1      34.325 -38.460 -29.773  0.00  0.00    -0.268 N 
ATOM     18  H   UNL     1      34.781 -38.549 -30.680  0.00  0.00    +0.000 HD
ATOM     19  H   UNL     1      33.339 -38.207 -29.848  0.00  0.00    +0.000 HD
BRANCH  17  20
ATOM     20  C   UNL     1      34.375 -39.774 -29.099  0.00  0.00    +0.261 C 
ATOM     21  C   UNL     1      32.970 -40.373 -29.030  0.00  0.00    +0.020 C 
ATOM     22  C   UNL     1      32.981 -41.154 -27.739  0.00  0.00    +0.050 C 
ATOM     23  C   UNL     1      33.970 -40.383 -26.921  0.00  0.00    +0.309 C 
ATOM     24  O   UNL     1      34.146 -40.510 -25.721  0.00  0.00    -0.251 OA
ATOM     25  O   UNL     1      34.684 -39.530 -27.711  0.00  0.00    -0.434 OA
BRANCH  20  26
ATOM     26  C   UNL     1      35.415 -40.815 -29.664  0.00  0.00    +0.444 C 
ATOM     27  F   UNL     1      36.273 -41.229 -28.700  0.00  0.00    -0.165 F 
ATOM     28  F   UNL     1      36.165 -40.301 -30.664  0.00  0.00    -0.165 F 
ATOM     29  F   UNL     1      34.790 -41.917 -30.145  0.00  0.00    -0.165 F 
ENDBRANCH  20  26
ENDBRANCH  17  20
ENDBRANCH  16  17
ENDBRANCH  12  16
TORSDOF 5
ENDMDL
MODEL 6
REMARK VINA RESULT:    -7.196     21.709     22.927
REMARK INTER + INTRA:         -10.119
REMARK INTER:                  -8.814
REMARK INTRA:                  -1.305
REMARK UNBOUND:                -1.030
REMARK  Name = cpd203.pdb
REMARK  6 active torsions:
REMARK  status: ('A' for Active; 'I' for Inactive)
REMARK    1  A    between atoms: C_1  and  C_2
REMARK    2  A    between atoms: C_11  and  N_12
REMARK    3  A    between atoms: C_13  and  C_14
REMARK    4  A    between atoms: C_14  and  N_15
REMARK    5  A    between atoms: N_15  and  C_16
REMARK    6  A    between atoms: C_16  and  C_17
REMARK                            x       y       z     vdW  Elec       q    Type
REMARK                         _______ _______ _______ _____ _____    ______ ____
ROOT
ATOM      1  C   UNL     1      43.920 -16.916 -40.424  0.00  0.00    -0.022 C 
ATOM      2  C   UNL     1      44.730 -18.180 -40.500  0.00  0.00    +0.045 A 
ATOM      3  N   UNL     1      44.375 -19.018 -41.501  0.00  0.00    -0.251 NA
ATOM      4  C   UNL     1      45.039 -20.166 -41.673  0.00  0.00    +0.074 A 
ATOM      5  C   UNL     1      44.617 -20.952 -42.736  0.00  0.00    -0.036 A 
ATOM      6  C   UNL     1      45.221 -22.166 -43.048  0.00  0.00    -0.058 A 
ATOM      7  C   UNL     1      46.279 -22.608 -42.274  0.00  0.00    -0.043 A 
ATOM      8  C   UNL     1      46.721 -21.835 -41.195  0.00  0.00    +0.052 A 
ATOM      9 CL   UNL     1      48.040 -22.518 -40.295  0.00  0.00    -0.083 Cl
ATOM     10  C   UNL     1      46.113 -20.580 -40.858  0.00  0.00    +0.040 A 
ATOM     11  C   UNL     1      46.455 -19.687 -39.784  0.00  0.00    +0.041 A 
ATOM     12  C   UNL     1      45.780 -18.456 -39.625  0.00  0.00    +0.009 A 
ENDROOT
BRANCH  11  13
ATOM     13  N   UNL     1      47.627 -19.900 -39.000  0.00  0.00    -0.357 N 
ATOM     14  H   UNL     1      48.496 -19.554 -39.308  0.00  0.00    +0.000 HD
ATOM     15  H   UNL     1      47.568 -20.392 -38.149  0.00  0.00    +0.000 HD
ENDBRANCH  11  13
BRANCH  12  16
ATOM     16  C   UNL     1      46.136 -17.499 -38.505  0.00  0.00    +0.028 C 
BRANCH  16  17
ATOM     17  N   UNL     1      45.308 -17.736 -37.321  0.00  0.00    -0.268 N 
ATOM     18  H   UNL     1      44.502 -18.294 -37.601  0.00  0.00    +0.000 HD
ATOM     19  H   UNL     1      45.048 -16.818 -36.958  0.00  0.00    +0.000 HD
BRANCH  17  20
ATOM     20  C   UNL     1      46.002 -18.443 -36.225  0.00  0.00    +0.261 C 
ATOM     21  C   UNL     1      45.853 -17.653 -34.925  0.00  0.00    +0.020 C 
ATOM     22  C   UNL     1      47.142 -17.934 -34.191  0.00  0.00    +0.050 C 
ATOM     23  C   UNL     1      48.096 -18.165 -35.321  0.00  0.00    +0.309 C 
ATOM     24  O   UNL     1      49.311 -18.212 -35.222  0.00  0.00    -0.251 OA
ATOM     25  O   UNL     1      47.418 -18.355 -36.490  0.00  0.00    -0.434 OA
BRANCH  20  26
ATOM     26  C   UNL     1      45.629 -19.961 -36.020  0.00  0.00    +0.444 C 
ATOM     27  F   UNL     1      45.010 -20.160 -34.830  0.00  0.00    -0.165 F 
ATOM     28  F   UNL     1      46.716 -20.764 -36.037  0.00  0.00    -0.165 F 
ATOM     29  F   UNL     1      44.786 -20.392 -36.988  0.00  0.00    -0.165 F 
ENDBRANCH  20  26
ENDBRANCH  17  20
ENDBRANCH  16  17
ENDBRANCH  12  16
TORSDOF 5
ENDMDL
MODEL 7
REMARK VINA RESULT:    -7.003     16.341     18.420
REMARK INTER + INTRA:          -9.875
REMARK INTER:                  -9.153
REMARK INTRA:                  -0.722
REMARK UNBOUND:                -1.030
REMARK  Name = cpd203.pdb
REMARK  6 active torsions:
REMARK  status: ('A' for Active; 'I' for Inactive)
REMARK    1  A    between atoms: C_1  and  C_2
REMARK    2  A    between atoms: C_11  and  N_12
REMARK    3  A    between atoms: C_13  and  C_14
REMARK    4  A    between atoms: C_14  and  N_15
REMARK    5  A    between atoms: N_15  and  C_16
REMARK    6  A    between atoms: C_16  and  C_17
REMARK                            x       y       z     vdW  Elec       q    Type
REMARK                         _______ _______ _______ _____ _____    ______ ____
ROOT
ATOM      1  C   UNL     1      43.131 -20.354 -35.144  0.00  0.00    -0.022 C 
ATOM      2  C   UNL     1      42.976 -20.681 -36.603  0.00  0.00    +0.045 A 
ATOM      3  N   UNL     1      44.073 -20.437 -37.355  0.00  0.00    -0.251 NA
ATOM      4  C   UNL     1      44.054 -20.706 -38.665  0.00  0.00    +0.074 A 
ATOM      5  C   UNL     1      45.230 -20.441 -39.352  0.00  0.00    -0.036 A 
ATOM      6  C   UNL     1      45.365 -20.683 -40.715  0.00  0.00    -0.058 A 
ATOM      7  C   UNL     1      44.292 -21.206 -41.414  0.00  0.00    -0.043 A 
ATOM      8  C   UNL     1      43.094 -21.480 -40.744  0.00  0.00    +0.052 A 
ATOM      9 CL   UNL     1      41.823 -22.112 -41.745  0.00  0.00    -0.083 Cl
ATOM     10  C   UNL     1      42.935 -21.239 -39.340  0.00  0.00    +0.040 A 
ATOM     11  C   UNL     1      41.771 -21.465 -38.525  0.00  0.00    +0.041 A 
ATOM     12  C   UNL     1      41.804 -21.218 -37.134  0.00  0.00    +0.009 A 
ENDROOT
BRANCH  11  13
ATOM     13  N   UNL     1      40.639 -22.161 -39.042  0.00  0.00    -0.357 N 
ATOM     14  H   UNL     1      39.816 -22.228 -38.507  0.00  0.00    +0.000 HD
ATOM     15  H   UNL     1      40.681 -22.574 -39.935  0.00  0.00    +0.000 HD
ENDBRANCH  11  13
BRANCH  12  16
ATOM     16  C   UNL     1      40.590 -21.461 -36.260  0.00  0.00    +0.028 C 
BRANCH  16  17
ATOM     17  N   UNL     1      40.659 -22.769 -35.605  0.00  0.00    -0.268 N 
ATOM     18  H   UNL     1      41.641 -22.996 -35.450  0.00  0.00    +0.000 HD
ATOM     19  H   UNL     1      40.192 -23.431 -36.225  0.00  0.00    +0.000 HD
BRANCH  17  20
ATOM     20  C   UNL     1      39.957 -22.836 -34.307  0.00  0.00    +0.261 C 
ATOM     21  C   UNL     1      39.817 -21.431 -33.723  0.00  0.00    +0.020 C 
ATOM     22  C   UNL     1      39.892 -21.658 -32.233  0.00  0.00    +0.050 C 
ATOM     23  C   UNL     1      40.748 -22.884 -32.151  0.00  0.00    +0.309 C 
ATOM     24  O   UNL     1      41.264 -23.318 -31.135  0.00  0.00    -0.251 OA
ATOM     25  O   UNL     1      40.847 -23.481 -33.373  0.00  0.00    -0.434 OA
BRANCH  20  26
ATOM     26  C   UNL     1      38.580 -23.603 -34.291  0.00  0.00    +0.444 C 
ATOM     27  F   UNL     1      37.549 -22.761 -34.036  0.00  0.00    -0.165 F 
ATOM     28  F   UNL     1      38.541 -24.570 -33.347  0.00  0.00    -0.165 F 
ATOM     29  F   UNL     1      38.333 -24.188 -35.488  0.00  0.00    -0.165 F 
ENDBRANCH  20  26
ENDBRANCH  17  20
ENDBRANCH  16  17
ENDBRANCH  12  16
TORSDOF 5
ENDMDL
MODEL 8
REMARK VINA RESULT:    -6.954     20.098     22.056
REMARK INTER + INTRA:          -9.814
REMARK INTER:                  -8.753
REMARK INTRA:                  -1.060
REMARK UNBOUND:                -1.030
REMARK  Name = cpd203.pdb
REMARK  6 active torsions:
REMARK  status: ('A' for Active; 'I' for Inactive)
REMARK    1  A    between atoms: C_1  and  C_2
REMARK    2  A    between atoms: C_11  and  N_12
REMARK    3  A    between atoms: C_13  and  C_14
REMARK    4  A    between atoms: C_14  and  N_15
REMARK    5  A    between atoms: N_15  and  C_16
REMARK    6  A    between atoms: C_16  and  C_17
REMARK                            x       y       z     vdW  Elec       q    Type
REMARK                         _______ _______ _______ _____ _____    ______ ____
ROOT
ATOM      1  C   UNL     1      47.839 -18.969 -35.718  0.00  0.00    -0.022 C 
ATOM      2  C   UNL     1      46.457 -19.488 -35.996  0.00  0.00    +0.045 A 
ATOM      3  N   UNL     1      45.663 -19.594 -34.906  0.00  0.00    -0.251 NA
ATOM      4  C   UNL     1      44.407 -20.030 -35.038  0.00  0.00    +0.074 A 
ATOM      5  C   UNL     1      43.662 -20.088 -33.868  0.00  0.00    -0.036 A 
ATOM      6  C   UNL     1      42.336 -20.507 -33.851  0.00  0.00    -0.058 A 
ATOM      7  C   UNL     1      41.734 -20.882 -35.039  0.00  0.00    -0.043 A 
ATOM      8  C   UNL     1      42.465 -20.835 -36.232  0.00  0.00    +0.052 A 
ATOM      9 CL   UNL     1      41.596 -21.352 -37.644  0.00  0.00    -0.083 Cl
ATOM     10  C   UNL     1      43.832 -20.404 -36.272  0.00  0.00    +0.040 A 
ATOM     11  C   UNL     1      44.701 -20.309 -37.413  0.00  0.00    +0.041 A 
ATOM     12  C   UNL     1      46.018 -19.811 -37.280  0.00  0.00    +0.009 A 
ENDROOT
BRANCH  11  13
ATOM     13  N   UNL     1      44.197 -20.486 -38.735  0.00  0.00    -0.357 N 
ATOM     14  H   UNL     1      43.279 -20.814 -38.872  0.00  0.00    +0.000 HD
ATOM     15  H   UNL     1      44.767 -20.280 -39.511  0.00  0.00    +0.000 HD
ENDBRANCH  11  13
BRANCH  12  16
ATOM     16  C   UNL     1      46.942 -19.696 -38.474  0.00  0.00    +0.028 C 
BRANCH  16  17
ATOM     17  N   UNL     1      47.609 -20.969 -38.755  0.00  0.00    -0.268 N 
ATOM     18  H   UNL     1      47.177 -21.689 -38.179  0.00  0.00    +0.000 HD
ATOM     19  H   UNL     1      48.598 -20.833 -38.544  0.00  0.00    +0.000 HD
BRANCH  17  20
ATOM     20  C   UNL     1      47.532 -21.396 -40.167  0.00  0.00    +0.261 C 
ATOM     21  C   UNL     1      47.350 -20.174 -41.067  0.00  0.00    +0.020 C 
ATOM     22  C   UNL     1      46.509 -20.697 -42.207  0.00  0.00    +0.050 C 
ATOM     23  C   UNL     1      45.733 -21.790 -41.541  0.00  0.00    +0.309 C 
ATOM     24  O   UNL     1      44.762 -22.357 -42.014  0.00  0.00    -0.251 OA
ATOM     25  O   UNL     1      46.284 -22.101 -40.332  0.00  0.00    -0.434 OA
BRANCH  20  26
ATOM     26  C   UNL     1      48.698 -22.322 -40.687  0.00  0.00    +0.444 C 
ATOM     27  F   UNL     1      49.443 -21.694 -41.630  0.00  0.00    -0.165 F 
ATOM     28  F   UNL     1      48.237 -23.463 -41.245  0.00  0.00    -0.165 F 
ATOM     29  F   UNL     1      49.534 -22.666 -39.678  0.00  0.00    -0.165 F 
ENDBRANCH  20  26
ENDBRANCH  17  20
ENDBRANCH  16  17
ENDBRANCH  12  16
TORSDOF 5
ENDMDL
MODEL 9
REMARK VINA RESULT:    -6.932      5.361      6.862
REMARK INTER + INTRA:          -9.786
REMARK INTER:                  -9.168
REMARK INTRA:                  -0.618
REMARK UNBOUND:                -1.030
REMARK  Name = cpd203.pdb
REMARK  6 active torsions:
REMARK  status: ('A' for Active; 'I' for Inactive)
REMARK    1  A    between atoms: C_1  and  C_2
REMARK    2  A    between atoms: C_11  and  N_12
REMARK    3  A    between atoms: C_13  and  C_14
REMARK    4  A    between atoms: C_14  and  N_15
REMARK    5  A    between atoms: N_15  and  C_16
REMARK    6  A    between atoms: C_16  and  C_17
REMARK                            x       y       z     vdW  Elec       q    Type
REMARK                         _______ _______ _______ _____ _____    ______ ____
ROOT
ATOM      1  C   UNL     1      33.007 -36.175 -27.931  0.00  0.00    -0.022 C 
ATOM      2  C   UNL     1      34.348 -36.194 -28.609  0.00  0.00    +0.045 A 
ATOM      3  N   UNL     1      35.272 -36.980 -28.011  0.00  0.00    -0.251 NA
ATOM      4  C   UNL     1      36.496 -37.084 -28.538  0.00  0.00    +0.074 A 
ATOM      5  C   UNL     1      37.371 -37.927 -27.867  0.00  0.00    -0.036 A 
ATOM      6  C   UNL     1      38.674 -38.147 -28.304  0.00  0.00    -0.058 A 
ATOM      7  C   UNL     1      39.116 -37.506 -29.447  0.00  0.00    -0.043 A 
ATOM      8  C   UNL     1      38.253 -36.649 -30.140  0.00  0.00    +0.052 A 
ATOM      9 CL   UNL     1      38.943 -35.893 -31.543  0.00  0.00    -0.083 Cl
ATOM     10  C   UNL     1      36.907 -36.410 -29.707  0.00  0.00    +0.040 A 
ATOM     11  C   UNL     1      35.917 -35.559 -30.311  0.00  0.00    +0.041 A 
ATOM     12  C   UNL     1      34.611 -35.479 -29.777  0.00  0.00    +0.009 A 
ENDROOT
BRANCH  11  13
ATOM     13  N   UNL     1      36.143 -34.963 -31.586  0.00  0.00    -0.357 N 
ATOM     14  H   UNL     1      35.524 -35.142 -32.331  0.00  0.00    +0.000 HD
ATOM     15  H   UNL     1      36.918 -34.371 -31.723  0.00  0.00    +0.000 HD
ENDBRANCH  11  13
BRANCH  12  16
ATOM     16  C   UNL     1      33.553 -34.596 -30.407  0.00  0.00    +0.028 C 
BRANCH  16  17
ATOM     17  N   UNL     1      33.402 -33.339 -29.671  0.00  0.00    -0.268 N 
ATOM     18  H   UNL     1      34.036 -32.652 -30.077  0.00  0.00    +0.000 HD
ATOM     19  H   UNL     1      33.614 -33.546 -28.694  0.00  0.00    +0.000 HD
BRANCH  17  20
ATOM     20  C   UNL     1      32.034 -32.780 -29.698  0.00  0.00    +0.261 C 
ATOM     21  C   UNL     1      31.267 -33.352 -30.890  0.00  0.00    +0.020 C 
ATOM     22  C   UNL     1      30.348 -32.225 -31.293  0.00  0.00    +0.050 C 
ATOM     23  C   UNL     1      31.132 -31.022 -30.869  0.00  0.00    +0.309 C 
ATOM     24  O   UNL     1      30.889 -29.871 -31.190  0.00  0.00    -0.251 OA
ATOM     25  O   UNL     1      32.150 -31.383 -30.036  0.00  0.00    -0.434 OA
BRANCH  20  26
ATOM     26  C   UNL     1      31.198 -32.902 -28.367  0.00  0.00    +0.444 C 
ATOM     27  F   UNL     1      30.755 -31.690 -27.950  0.00  0.00    -0.165 F 
ATOM     28  F   UNL     1      31.921 -33.427 -27.353  0.00  0.00    -0.165 F 
ATOM     29  F   UNL     1      30.109 -33.688 -28.545  0.00  0.00    -0.165 F 
ENDBRANCH  20  26
ENDBRANCH  17  20
ENDBRANCH  16  17
ENDBRANCH  12  16
TORSDOF 5
ENDMDL
MODEL 10
REMARK VINA RESULT:    -6.800     18.765     21.225
REMARK INTER + INTRA:          -9.619
REMARK INTER:                  -9.028
REMARK INTRA:                  -0.591
REMARK UNBOUND:                -1.030
REMARK  Name = cpd203.pdb
REMARK  6 active torsions:
REMARK  status: ('A' for Active; 'I' for Inactive)
REMARK    1  A    between atoms: C_1  and  C_2
REMARK    2  A    between atoms: C_11  and  N_12
REMARK    3  A    between atoms: C_13  and  C_14
REMARK    4  A    between atoms: C_14  and  N_15
REMARK    5  A    between atoms: N_15  and  C_16
REMARK    6  A    between atoms: C_16  and  C_17
REMARK                            x       y       z     vdW  Elec       q    Type
REMARK                         _______ _______ _______ _____ _____    ______ ____
ROOT
ATOM      1  C   UNL     1      41.377 -22.053 -40.602  0.00  0.00    -0.022 C 
ATOM      2  C   UNL     1      41.455 -21.843 -39.116  0.00  0.00    +0.045 A 
ATOM      3  N   UNL     1      40.447 -22.406 -38.412  0.00  0.00    -0.251 NA
ATOM      4  C   UNL     1      40.424 -22.295 -37.080  0.00  0.00    +0.074 A 
ATOM      5  C   UNL     1      39.362 -22.921 -36.441  0.00  0.00    -0.036 A 
ATOM      6  C   UNL     1      39.212 -22.905 -35.058  0.00  0.00    -0.058 A 
ATOM      7  C   UNL     1      40.151 -22.242 -34.289  0.00  0.00    -0.043 A 
ATOM      8  C   UNL     1      41.230 -21.601 -34.909  0.00  0.00    +0.052 A 
ATOM      9 CL   UNL     1      42.320 -20.790 -33.828  0.00  0.00    -0.083 Cl
ATOM     10  C   UNL     1      41.403 -21.607 -36.332  0.00  0.00    +0.040 A 
ATOM     11  C   UNL     1      42.451 -20.993 -37.103  0.00  0.00    +0.041 A 
ATOM     12  C   UNL     1      42.497 -21.143 -38.508  0.00  0.00    +0.009 A 
ENDROOT
BRANCH  11  13
ATOM     13  N   UNL     1      43.591 -20.422 -36.465  0.00  0.00    -0.357 N 
ATOM     14  H   UNL     1      43.529 -20.108 -35.534  0.00  0.00    +0.000 HD
ATOM     15  H   UNL     1      44.441 -20.343 -36.955  0.00  0.00    +0.000 HD
ENDBRANCH  11  13
BRANCH  12  16
ATOM     16  C   UNL     1      43.600 -20.511 -39.333  0.00  0.00    +0.028 C 
BRANCH  16  17
ATOM     17  N   UNL     1      44.767 -21.390 -39.423  0.00  0.00    -0.268 N 
ATOM     18  H   UNL     1      44.450 -22.353 -39.318  0.00  0.00    +0.000 HD
ATOM     19  H   UNL     1      45.408 -21.100 -38.684  0.00  0.00    +0.000 HD
BRANCH  17  20
ATOM     20  C   UNL     1      45.511 -21.284 -40.695  0.00  0.00    +0.261 C 
ATOM     21  C   UNL     1      44.531 -21.289 -41.868  0.00  0.00    +0.020 C 
ATOM     22  C   UNL     1      45.299 -21.979 -42.968  0.00  0.00    +0.050 C 
ATOM     23  C   UNL     1      46.204 -22.883 -42.191  0.00  0.00    +0.309 C 
ATOM     24  O   UNL     1      46.859 -23.799 -42.659  0.00  0.00    -0.251 OA
ATOM     25  O   UNL     1      46.228 -22.522 -40.876  0.00  0.00    -0.434 OA
BRANCH  20  26
ATOM     26  C   UNL     1      46.538 -20.093 -40.812  0.00  0.00    +0.444 C 
ATOM     27  F   UNL     1      46.041 -19.085 -41.571  0.00  0.00    -0.165 F 
ATOM     28  F   UNL     1      47.704 -20.475 -41.379  0.00  0.00    -0.165 F 
ATOM     29  F   UNL     1      46.825 -19.574 -39.594  0.00  0.00    -0.165 F 
ENDBRANCH  20  26
ENDBRANCH  17  20
ENDBRANCH  16  17
ENDBRANCH  12  16
TORSDOF 5
ENDMDL
MODEL 11
REMARK VINA RESULT:    -6.715     16.168     18.216
REMARK INTER + INTRA:          -9.511
REMARK INTER:                  -8.863
REMARK INTRA:                  -0.649
REMARK UNBOUND:                -1.030
REMARK  Name = cpd203.pdb
REMARK  6 active torsions:
REMARK  status: ('A' for Active; 'I' for Inactive)
REMARK    1  A    between atoms: C_1  and  C_2
REMARK    2  A    between atoms: C_11  and  N_12
REMARK    3  A    between atoms: C_13  and  C_14
REMARK    4  A    between atoms: C_14  and  N_15
REMARK    5  A    between atoms: N_15  and  C_16
REMARK    6  A    between atoms: C_16  and  C_17
REMARK                            x       y       z     vdW  Elec       q    Type
REMARK                         _______ _______ _______ _____ _____    ______ ____
ROOT
ATOM      1  C   UNL     1      39.301 -21.839 -38.464  0.00  0.00    -0.022 C 
ATOM      2  C   UNL     1      40.776 -21.560 -38.410  0.00  0.00    +0.045 A 
ATOM      3  N   UNL     1      41.383 -21.489 -39.616  0.00  0.00    -0.251 NA
ATOM      4  C   UNL     1      42.693 -21.230 -39.687  0.00  0.00    +0.074 A 
ATOM      5  C   UNL     1      43.224 -21.159 -40.968  0.00  0.00    -0.036 A 
ATOM      6  C   UNL     1      44.568 -20.882 -41.201  0.00  0.00    -0.058 A 
ATOM      7  C   UNL     1      45.406 -20.671 -40.121  0.00  0.00    -0.043 A 
ATOM      8  C   UNL     1      44.895 -20.740 -38.820  0.00  0.00    +0.052 A 
ATOM      9 CL   UNL     1      46.061 -20.476 -37.560  0.00  0.00    -0.083 Cl
ATOM     10  C   UNL     1      43.514 -21.022 -38.559  0.00  0.00    +0.040 A 
ATOM     11  C   UNL     1      42.853 -21.128 -37.286  0.00  0.00    +0.041 A 
ATOM     12  C   UNL     1      41.461 -21.363 -37.210  0.00  0.00    +0.009 A 
ENDROOT
BRANCH  11  13
ATOM     13  N   UNL     1      43.524 -20.768 -36.080  0.00  0.00    -0.357 N 
ATOM     14  H   UNL     1      44.503 -20.857 -36.015  0.00  0.00    +0.000 HD
ATOM     15  H   UNL     1      43.009 -20.430 -35.312  0.00  0.00    +0.000 HD
ENDBRANCH  11  13
BRANCH  12  16
ATOM     16  C   UNL     1      40.749 -21.467 -35.878  0.00  0.00    +0.028 C 
BRANCH  16  17
ATOM     17  N   UNL     1      40.810 -22.831 -35.347  0.00  0.00    -0.268 N 
ATOM     18  H   UNL     1      41.788 -23.116 -35.310  0.00  0.00    +0.000 HD
ATOM     19  H   UNL     1      40.251 -23.412 -35.972  0.00  0.00    +0.000 HD
BRANCH  17  20
ATOM     20  C   UNL     1      40.231 -22.984 -33.996  0.00  0.00    +0.261 C 
ATOM     21  C   UNL     1      40.367 -21.671 -33.226  0.00  0.00    +0.020 C 
ATOM     22  C   UNL     1      40.545 -22.117 -31.795  0.00  0.00    +0.050 C 
ATOM     23  C   UNL     1      41.204 -23.450 -31.968  0.00  0.00    +0.309 C 
ATOM     24  O   UNL     1      41.741 -24.094 -31.082  0.00  0.00    -0.251 OA
ATOM     25  O   UNL     1      41.094 -23.875 -33.260  0.00  0.00    -0.434 OA
BRANCH  20  26
ATOM     26  C   UNL     1      38.759 -23.543 -33.921  0.00  0.00    +0.444 C 
ATOM     27  F   UNL     1      38.322 -23.950 -35.138  0.00  0.00    -0.165 F 
ATOM     28  F   UNL     1      37.880 -22.617 -33.476  0.00  0.00    -0.165 F 
ATOM     29  F   UNL     1      38.685 -24.611 -33.090  0.00  0.00    -0.165 F 
ENDBRANCH  20  26
ENDBRANCH  17  20
ENDBRANCH  16  17
ENDBRANCH  12  16
TORSDOF 5
ENDMDL
MODEL 12
REMARK VINA RESULT:    -6.707      4.744      6.102
REMARK INTER + INTRA:          -9.502
REMARK INTER:                  -8.868
REMARK INTRA:                  -0.634
REMARK UNBOUND:                -1.030
REMARK  Name = cpd203.pdb
REMARK  6 active torsions:
REMARK  status: ('A' for Active; 'I' for Inactive)
REMARK    1  A    between atoms: C_1  and  C_2
REMARK    2  A    between atoms: C_11  and  N_12
REMARK    3  A    between atoms: C_13  and  C_14
REMARK    4  A    between atoms: C_14  and  N_15
REMARK    5  A    between atoms: N_15  and  C_16
REMARK    6  A    between atoms: C_16  and  C_17
REMARK                            x       y       z     vdW  Elec       q    Type
REMARK                         _______ _______ _______ _____ _____    ______ ____
ROOT
ATOM      1  C   UNL     1      33.994 -37.860 -28.296  0.00  0.00    -0.022 C 
ATOM      2  C   UNL     1      35.206 -37.300 -28.985  0.00  0.00    +0.045 A 
ATOM      3  N   UNL     1      36.369 -37.911 -28.667  0.00  0.00    -0.251 NA
ATOM      4  C   UNL     1      37.511 -37.505 -29.233  0.00  0.00    +0.074 A 
ATOM      5  C   UNL     1      38.651 -38.203 -28.859  0.00  0.00    -0.036 A 
ATOM      6  C   UNL     1      39.908 -37.905 -29.376  0.00  0.00    -0.058 A 
ATOM      7  C   UNL     1      40.030 -36.877 -30.294  0.00  0.00    -0.043 A 
ATOM      8  C   UNL     1      38.895 -36.156 -30.685  0.00  0.00    +0.052 A 
ATOM      9 CL   UNL     1      39.194 -34.880 -31.824  0.00  0.00    -0.083 Cl
ATOM     10  C   UNL     1      37.591 -36.449 -30.165  0.00  0.00    +0.040 A 
ATOM     11  C   UNL     1      36.346 -35.795 -30.469  0.00  0.00    +0.041 A 
ATOM     12  C   UNL     1      35.134 -36.250 -29.900  0.00  0.00    +0.009 A 
ENDROOT
BRANCH  11  13
ATOM     13  N   UNL     1      36.260 -34.837 -31.521  0.00  0.00    -0.357 N 
ATOM     14  H   UNL     1      36.963 -34.156 -31.626  0.00  0.00    +0.000 HD
ATOM     15  H   UNL     1      35.496 -34.855 -32.142  0.00  0.00    +0.000 HD
ENDBRANCH  11  13
BRANCH  12  16
ATOM     16  C   UNL     1      33.813 -35.579 -30.218  0.00  0.00    +0.028 C 
BRANCH  16  17
ATOM     17  N   UNL     1      33.567 -34.442 -29.330  0.00  0.00    -0.268 N 
ATOM     18  H   UNL     1      34.458 -34.153 -28.927  0.00  0.00    +0.000 HD
ATOM     19  H   UNL     1      32.899 -34.759 -28.627  0.00  0.00    +0.000 HD
BRANCH  17  20
ATOM     20  C   UNL     1      32.959 -33.271 -29.995  0.00  0.00    +0.261 C 
ATOM     21  C   UNL     1      31.794 -32.747 -29.155  0.00  0.00    +0.020 C 
ATOM     22  C   UNL     1      30.828 -32.214 -30.184  0.00  0.00    +0.050 C 
ATOM     23  C   UNL     1      31.125 -33.083 -31.366  0.00  0.00    +0.309 C 
ATOM     24  O   UNL     1      30.439 -33.169 -32.370  0.00  0.00    -0.251 OA
ATOM     25  O   UNL     1      32.301 -33.751 -31.186  0.00  0.00    -0.434 OA
BRANCH  20  26
ATOM     26  C   UNL     1      33.939 -32.106 -30.404  0.00  0.00    +0.444 C 
ATOM     27  F   UNL     1      34.441 -32.297 -31.649  0.00  0.00    -0.165 F 
ATOM     28  F   UNL     1      34.995 -32.006 -29.566  0.00  0.00    -0.165 F 
ATOM     29  F   UNL     1      33.302 -30.911 -30.407  0.00  0.00    -0.165 F 
ENDBRANCH  20  26
ENDBRANCH  17  20
ENDBRANCH  16  17
ENDBRANCH  12  16
TORSDOF 5
ENDMDL
MODEL 13
REMARK VINA RESULT:    -6.688      3.303      3.978
REMARK INTER + INTRA:          -9.477
REMARK INTER:                  -8.713
REMARK INTRA:                  -0.764
REMARK UNBOUND:                -1.030
REMARK  Name = cpd203.pdb
REMARK  6 active torsions:
REMARK  status: ('A' for Active; 'I' for Inactive)
REMARK    1  A    between atoms: C_1  and  C_2
REMARK    2  A    between atoms: C_11  and  N_12
REMARK    3  A    between atoms: C_13  and  C_14
REMARK    4  A    between atoms: C_14  and  N_15
REMARK    5  A    between atoms: N_15  and  C_16
REMARK    6  A    between atoms: C_16  and  C_17
REMARK                            x       y       z     vdW  Elec       q    Type
REMARK                         _______ _______ _______ _____ _____    ______ ____
ROOT
ATOM      1  C   UNL     1      35.054 -35.640 -31.588  0.00  0.00    -0.022 C 
ATOM      2  C   UNL     1      36.271 -36.228 -30.931  0.00  0.00    +0.045 A 
ATOM      3  N   UNL     1      37.417 -36.080 -31.632  0.00  0.00    -0.251 NA
ATOM      4  C   UNL     1      38.566 -36.552 -31.136  0.00  0.00    +0.074 A 
ATOM      5  C   UNL     1      39.693 -36.338 -31.916  0.00  0.00    -0.036 A 
ATOM      6  C   UNL     1      40.960 -36.758 -31.523  0.00  0.00    -0.058 A 
ATOM      7  C   UNL     1      41.105 -37.413 -30.313  0.00  0.00    -0.043 A 
ATOM      8  C   UNL     1      39.983 -37.643 -29.509  0.00  0.00    +0.052 A 
ATOM      9 CL   UNL     1      40.303 -38.494 -28.030  0.00  0.00    -0.083 Cl
ATOM     10  C   UNL     1      38.669 -37.217 -29.895  0.00  0.00    +0.040 A 
ATOM     11  C   UNL     1      37.433 -37.386 -29.179  0.00  0.00    +0.041 A 
ATOM     12  C   UNL     1      36.226 -36.854 -29.686  0.00  0.00    +0.009 A 
ENDROOT
BRANCH  11  13
ATOM     13  N   UNL     1      37.423 -37.880 -27.842  0.00  0.00    -0.357 N 
ATOM     14  H   UNL     1      36.589 -38.227 -27.451  0.00  0.00    +0.000 HD
ATOM     15  H   UNL     1      38.251 -37.874 -27.308  0.00  0.00    +0.000 HD
ENDBRANCH  11  13
BRANCH  12  16
ATOM     16  C   UNL     1      34.918 -37.015 -28.939  0.00  0.00    +0.028 C 
BRANCH  16  17
ATOM     17  N   UNL     1      34.582 -35.804 -28.188  0.00  0.00    -0.268 N 
ATOM     18  H   UNL     1      35.226 -35.065 -28.467  0.00  0.00    +0.000 HD
ATOM     19  H   UNL     1      34.658 -36.043 -27.199  0.00  0.00    +0.000 HD
BRANCH  17  20
ATOM     20  C   UNL     1      33.202 -35.319 -28.401  0.00  0.00    +0.261 C 
ATOM     21  C   UNL     1      32.367 -35.569 -27.145  0.00  0.00    +0.020 C 
ATOM     22  C   UNL     1      30.983 -35.832 -27.687  0.00  0.00    +0.050 C 
ATOM     23  C   UNL     1      31.285 -36.416 -29.032  0.00  0.00    +0.309 C 
ATOM     24  O   UNL     1      30.481 -36.987 -29.750  0.00  0.00    -0.251 OA
ATOM     25  O   UNL     1      32.587 -36.193 -29.370  0.00  0.00    -0.434 OA
BRANCH  20  26
ATOM     26  C   UNL     1      33.048 -33.833 -28.904  0.00  0.00    +0.444 C 
ATOM     27  F   UNL     1      32.242 -33.115 -28.085  0.00  0.00    -0.165 F 
ATOM     28  F   UNL     1      32.513 -33.764 -30.143  0.00  0.00    -0.165 F 
ATOM     29  F   UNL     1      34.247 -33.203 -28.940  0.00  0.00    -0.165 F 
ENDBRANCH  20  26
ENDBRANCH  17  20
ENDBRANCH  16  17
ENDBRANCH  12  16
TORSDOF 5
ENDMDL
MODEL 14
REMARK VINA RESULT:    -6.583     38.121     39.461
REMARK INTER + INTRA:          -9.345
REMARK INTER:                  -8.057
REMARK INTRA:                  -1.288
REMARK UNBOUND:                -1.030
REMARK  Name = cpd203.pdb
REMARK  6 active torsions:
REMARK  status: ('A' for Active; 'I' for Inactive)
REMARK    1  A    between atoms: C_1  and  C_2
REMARK    2  A    between atoms: C_11  and  N_12
REMARK    3  A    between atoms: C_13  and  C_14
REMARK    4  A    between atoms: C_14  and  N_15
REMARK    5  A    between atoms: N_15  and  C_16
REMARK    6  A    between atoms: C_16  and  C_17
REMARK                            x       y       z     vdW  Elec       q    Type
REMARK                         _______ _______ _______ _____ _____    ______ ____
ROOT
ATOM      1  C   UNL     1      63.941 -26.633  -5.779  0.00  0.00    -0.022 C 
ATOM      2  C   UNL     1      63.780 -25.286  -6.425  0.00  0.00    +0.045 A 
ATOM      3  N   UNL     1      63.704 -25.312  -7.774  0.00  0.00    -0.251 NA
ATOM      4  C   UNL     1      63.544 -24.171  -8.454  0.00  0.00    +0.074 A 
ATOM      5  C   UNL     1      63.458 -24.298  -9.833  0.00  0.00    -0.036 A 
ATOM      6  C   UNL     1      63.276 -23.202 -10.671  0.00  0.00    -0.058 A 
ATOM      7  C   UNL     1      63.177 -21.940 -10.113  0.00  0.00    -0.043 A 
ATOM      8  C   UNL     1      63.263 -21.786  -8.724  0.00  0.00    +0.052 A 
ATOM      9 CL   UNL     1      63.145 -20.147  -8.161  0.00  0.00    -0.083 Cl
ATOM     10  C   UNL     1      63.449 -22.902  -7.844  0.00  0.00    +0.040 A 
ATOM     11  C   UNL     1      63.559 -22.895  -6.410  0.00  0.00    +0.041 A 
ATOM     12  C   UNL     1      63.689 -24.104  -5.689  0.00  0.00    +0.009 A 
ENDROOT
BRANCH  11  13
ATOM     13  N   UNL     1      63.304 -21.708  -5.662  0.00  0.00    -0.357 N 
ATOM     14  H   UNL     1      64.026 -21.058  -5.509  0.00  0.00    +0.000 HD
ATOM     15  H   UNL     1      62.404 -21.539  -5.298  0.00  0.00    +0.000 HD
ENDBRANCH  11  13
BRANCH  12  16
ATOM     16  C   UNL     1      63.795 -24.114  -4.178  0.00  0.00    +0.028 C 
BRANCH  16  17
ATOM     17  N   UNL     1      65.193 -24.121  -3.743  0.00  0.00    -0.268 N 
ATOM     18  H   UNL     1      65.770 -24.426  -4.527  0.00  0.00    +0.000 HD
ATOM     19  H   UNL     1      65.247 -24.751  -2.943  0.00  0.00    +0.000 HD
BRANCH  17  20
ATOM     20  C   UNL     1      65.693 -22.809  -3.284  0.00  0.00    +0.261 C 
ATOM     21  C   UNL     1      66.336 -22.955  -1.905  0.00  0.00    +0.020 C 
ATOM     22  C   UNL     1      66.047 -21.633  -1.237  0.00  0.00    +0.050 C 
ATOM     23  C   UNL     1      64.767 -21.227  -1.899  0.00  0.00    +0.309 C 
ATOM     24  O   UNL     1      64.033 -20.327  -1.526  0.00  0.00    -0.251 OA
ATOM     25  O   UNL     1      64.541 -21.984  -3.011  0.00  0.00    -0.434 OA
BRANCH  20  26
ATOM     26  C   UNL     1      66.638 -22.029  -4.276  0.00  0.00    +0.444 C 
ATOM     27  F   UNL     1      67.917 -22.010  -3.828  0.00  0.00    -0.165 F 
ATOM     28  F   UNL     1      66.260 -20.742  -4.441  0.00  0.00    -0.165 F 
ATOM     29  F   UNL     1      66.650 -22.613  -5.499  0.00  0.00    -0.165 F 
ENDBRANCH  20  26
ENDBRANCH  17  20
ENDBRANCH  16  17
ENDBRANCH  12  16
TORSDOF 5
ENDMDL
MODEL 15
REMARK VINA RESULT:    -6.563      4.506      6.533
REMARK INTER + INTRA:          -9.319
REMARK INTER:                  -7.998
REMARK INTRA:                  -1.322
REMARK UNBOUND:                -1.030
REMARK  Name = cpd203.pdb
REMARK  6 active torsions:
REMARK  status: ('A' for Active; 'I' for Inactive)
REMARK    1  A    between atoms: C_1  and  C_2
REMARK    2  A    between atoms: C_11  and  N_12
REMARK    3  A    between atoms: C_13  and  C_14
REMARK    4  A    between atoms: C_14  and  N_15
REMARK    5  A    between atoms: N_15  and  C_16
REMARK    6  A    between atoms: C_16  and  C_17
REMARK                            x       y       z     vdW  Elec       q    Type
REMARK                         _______ _______ _______ _____ _____    ______ ____
ROOT
ATOM      1  C   UNL     1      32.218 -38.842 -32.642  0.00  0.00    -0.022 C 
ATOM      2  C   UNL     1      33.463 -38.626 -31.828  0.00  0.00    +0.045 A 
ATOM      3  N   UNL     1      33.919 -39.728 -31.191  0.00  0.00    -0.251 NA
ATOM      4  C   UNL     1      35.030 -39.655 -30.450  0.00  0.00    +0.074 A 
ATOM      5  C   UNL     1      35.432 -40.840 -29.850  0.00  0.00    -0.036 A 
ATOM      6  C   UNL     1      36.576 -40.923 -29.061  0.00  0.00    -0.058 A 
ATOM      7  C   UNL     1      37.341 -39.787 -28.867  0.00  0.00    -0.043 A 
ATOM      8  C   UNL     1      36.954 -38.579 -29.459  0.00  0.00    +0.052 A 
ATOM      9 CL   UNL     1      37.991 -37.229 -29.114  0.00  0.00    -0.083 Cl
ATOM     10  C   UNL     1      35.780 -38.473 -30.276  0.00  0.00    +0.040 A 
ATOM     11  C   UNL     1      35.262 -37.308 -30.940  0.00  0.00    +0.041 A 
ATOM     12  C   UNL     1      34.110 -37.393 -31.755  0.00  0.00    +0.009 A 
ENDROOT
BRANCH  11  13
ATOM     13  N   UNL     1      36.015 -36.098 -30.991  0.00  0.00    -0.357 N 
ATOM     14  H   UNL     1      35.863 -35.454 -31.720  0.00  0.00    +0.000 HD
ATOM     15  H   UNL     1      36.687 -35.906 -30.297  0.00  0.00    +0.000 HD
ENDBRANCH  11  13
BRANCH  12  16
ATOM     16  C   UNL     1      33.557 -36.176 -32.469  0.00  0.00    +0.028 C 
BRANCH  16  17
ATOM     17  N   UNL     1      32.481 -35.550 -31.699  0.00  0.00    -0.268 N 
ATOM     18  H   UNL     1      32.129 -36.234 -31.029  0.00  0.00    +0.000 HD
ATOM     19  H   UNL     1      31.774 -35.254 -32.372  0.00  0.00    +0.000 HD
BRANCH  17  20
ATOM     20  C   UNL     1      32.890 -34.342 -30.954  0.00  0.00    +0.261 C 
ATOM     21  C   UNL     1      31.905 -33.207 -31.231  0.00  0.00    +0.020 C 
ATOM     22  C   UNL     1      32.764 -31.968 -31.166  0.00  0.00    +0.050 C 
ATOM     23  C   UNL     1      34.098 -32.496 -31.595  0.00  0.00    +0.309 C 
ATOM     24  O   UNL     1      35.060 -31.814 -31.907  0.00  0.00    -0.251 OA
ATOM     25  O   UNL     1      34.108 -33.859 -31.559  0.00  0.00    -0.434 OA
BRANCH  20  26
ATOM     26  C   UNL     1      33.140 -34.519 -29.408  0.00  0.00    +0.444 C 
ATOM     27  F   UNL     1      32.302 -33.741 -28.680  0.00  0.00    -0.165 F 
ATOM     28  F   UNL     1      34.400 -34.184 -29.049  0.00  0.00    -0.165 F 
ATOM     29  F   UNL     1      32.933 -35.802 -29.023  0.00  0.00    -0.165 F 
ENDBRANCH  20  26
ENDBRANCH  17  20
ENDBRANCH  16  17
ENDBRANCH  12  16
TORSDOF 5
ENDMDL
MODEL 16
REMARK VINA RESULT:    -6.233     17.360     19.188
REMARK INTER + INTRA:          -8.903
REMARK INTER:                  -7.861
REMARK INTRA:                  -1.041
REMARK UNBOUND:                -1.030
REMARK  Name = cpd203.pdb
REMARK  6 active torsions:
REMARK  status: ('A' for Active; 'I' for Inactive)
REMARK    1  A    between atoms: C_1  and  C_2
REMARK    2  A    between atoms: C_11  and  N_12
REMARK    3  A    between atoms: C_13  and  C_14
REMARK    4  A    between atoms: C_14  and  N_15
REMARK    5  A    between atoms: N_15  and  C_16
REMARK    6  A    between atoms: C_16  and  C_17
REMARK                            x       y       z     vdW  Elec       q    Type
REMARK                         _______ _______ _______ _____ _____    ______ ____
ROOT
ATOM      1  C   UNL     1      40.579 -18.554 -35.272  0.00  0.00    -0.022 C 
ATOM      2  C   UNL     1      42.061 -18.806 -35.274  0.00  0.00    +0.045 A 
ATOM      3  N   UNL     1      42.780 -17.937 -36.019  0.00  0.00    -0.251 NA
ATOM      4  C   UNL     1      44.110 -18.056 -36.081  0.00  0.00    +0.074 A 
ATOM      5  C   UNL     1      44.765 -17.108 -36.855  0.00  0.00    -0.036 A 
ATOM      6  C   UNL     1      46.149 -17.096 -37.002  0.00  0.00    -0.058 A 
ATOM      7  C   UNL     1      46.901 -18.061 -36.356  0.00  0.00    -0.043 A 
ATOM      8  C   UNL     1      46.264 -19.029 -35.572  0.00  0.00    +0.052 A 
ATOM      9 CL   UNL     1      47.325 -20.191 -34.837  0.00  0.00    -0.083 Cl
ATOM     10  C   UNL     1      44.840 -19.058 -35.406  0.00  0.00    +0.040 A 
ATOM     11  C   UNL     1      44.053 -19.987 -34.641  0.00  0.00    +0.041 A 
ATOM     12  C   UNL     1      42.651 -19.838 -34.544  0.00  0.00    +0.009 A 
ENDROOT
BRANCH  11  13
ATOM     13  N   UNL     1      44.674 -20.934 -33.775  0.00  0.00    -0.357 N 
ATOM     14  H   UNL     1      45.110 -20.631 -32.945  0.00  0.00    +0.000 HD
ATOM     15  H   UNL     1      44.668 -21.891 -34.005  0.00  0.00    +0.000 HD
ENDBRANCH  11  13
BRANCH  12  16
ATOM     16  C   UNL     1      41.809 -20.802 -33.734  0.00  0.00    +0.028 C 
BRANCH  16  17
ATOM     17  N   UNL     1      41.520 -22.022 -34.491  0.00  0.00    -0.268 N 
ATOM     18  H   UNL     1      41.925 -22.812 -33.990  0.00  0.00    +0.000 HD
ATOM     19  H   UNL     1      41.924 -21.892 -35.419  0.00  0.00    +0.000 HD
BRANCH  17  20
ATOM     20  C   UNL     1      40.080 -22.288 -34.689  0.00  0.00    +0.261 C 
ATOM     21  C   UNL     1      39.267 -21.528 -33.641  0.00  0.00    +0.020 C 
ATOM     22  C   UNL     1      38.081 -22.429 -33.393  0.00  0.00    +0.050 C 
ATOM     23  C   UNL     1      38.656 -23.781 -33.679  0.00  0.00    +0.309 C 
ATOM     24  O   UNL     1      38.130 -24.845 -33.401  0.00  0.00    -0.251 OA
ATOM     25  O   UNL     1      39.848 -23.666 -34.333  0.00  0.00    -0.434 OA
BRANCH  20  26
ATOM     26  C   UNL     1      39.513 -22.047 -36.140  0.00  0.00    +0.444 C 
ATOM     27  F   UNL     1      40.474 -21.579 -36.974  0.00  0.00    -0.165 F 
ATOM     28  F   UNL     1      38.506 -21.145 -36.154  0.00  0.00    -0.165 F 
ATOM     29  F   UNL     1      39.041 -23.197 -36.677  0.00  0.00    -0.165 F 
ENDBRANCH  20  26
ENDBRANCH  17  20
ENDBRANCH  16  17
ENDBRANCH  12  16
TORSDOF 5
ENDMDL
MODEL 17
REMARK VINA RESULT:    -6.219     17.826     19.640
REMARK INTER + INTRA:          -8.886
REMARK INTER:                  -8.146
REMARK INTRA:                  -0.740
REMARK UNBOUND:                -1.030
REMARK  Name = cpd203.pdb
REMARK  6 active torsions:
REMARK  status: ('A' for Active; 'I' for Inactive)
REMARK    1  A    between atoms: C_1  and  C_2
REMARK    2  A    between atoms: C_11  and  N_12
REMARK    3  A    between atoms: C_13  and  C_14
REMARK    4  A    between atoms: C_14  and  N_15
REMARK    5  A    between atoms: N_15  and  C_16
REMARK    6  A    between atoms: C_16  and  C_17
REMARK                            x       y       z     vdW  Elec       q    Type
REMARK                         _______ _______ _______ _____ _____    ______ ____
ROOT
ATOM      1  C   UNL     1      45.792 -19.831 -35.414  0.00  0.00    -0.022 C 
ATOM      2  C   UNL     1      45.371 -20.224 -36.802  0.00  0.00    +0.045 A 
ATOM      3  N   UNL     1      46.392 -20.515 -37.640  0.00  0.00    -0.251 NA
ATOM      4  C   UNL     1      46.133 -20.892 -38.897  0.00  0.00    +0.074 A 
ATOM      5  C   UNL     1      47.241 -21.188 -39.678  0.00  0.00    -0.036 A 
ATOM      6  C   UNL     1      47.129 -21.608 -41.000  0.00  0.00    -0.058 A 
ATOM      7  C   UNL     1      45.870 -21.735 -41.559  0.00  0.00    -0.043 A 
ATOM      8  C   UNL     1      44.736 -21.439 -40.792  0.00  0.00    +0.052 A 
ATOM      9 CL   UNL     1      43.223 -21.620 -41.624  0.00  0.00    -0.083 Cl
ATOM     10  C   UNL     1      44.831 -21.007 -39.429  0.00  0.00    +0.040 A 
ATOM     11  C   UNL     1      43.763 -20.667 -38.528  0.00  0.00    +0.041 A 
ATOM     12  C   UNL     1      44.034 -20.306 -37.188  0.00  0.00    +0.009 A 
ENDROOT
BRANCH  11  13
ATOM     13  N   UNL     1      42.402 -20.908 -38.881  0.00  0.00    -0.357 N 
ATOM     14  H   UNL     1      41.735 -21.084 -38.178  0.00  0.00    +0.000 HD
ATOM     15  H   UNL     1      42.130 -20.900 -39.827  0.00  0.00    +0.000 HD
ENDBRANCH  11  13
BRANCH  12  16
ATOM     16  C   UNL     1      42.919 -19.955 -36.225  0.00  0.00    +0.028 C 
BRANCH  16  17
ATOM     17  N   UNL     1      42.686 -21.035 -35.264  0.00  0.00    -0.268 N 
ATOM     18  H   UNL     1      43.142 -20.785 -34.387  0.00  0.00    +0.000 HD
ATOM     19  H   UNL     1      43.068 -21.884 -35.681  0.00  0.00    +0.000 HD
BRANCH  17  20
ATOM     20  C   UNL     1      41.261 -21.304 -34.985  0.00  0.00    +0.261 C 
ATOM     21  C   UNL     1      40.505 -19.983 -34.843  0.00  0.00    +0.020 C 
ATOM     22  C   UNL     1      39.431 -20.297 -33.830  0.00  0.00    +0.050 C 
ATOM     23  C   UNL     1      40.082 -21.371 -33.015  0.00  0.00    +0.309 C 
ATOM     24  O   UNL     1      39.679 -21.785 -31.941  0.00  0.00    -0.251 OA
ATOM     25  O   UNL     1      41.182 -21.859 -33.656  0.00  0.00    -0.434 OA
BRANCH  20  26
ATOM     26  C   UNL     1      40.522 -22.282 -35.977  0.00  0.00    +0.444 C 
ATOM     27  F   UNL     1      39.732 -21.603 -36.843  0.00  0.00    -0.165 F 
ATOM     28  F   UNL     1      39.729 -23.166 -35.331  0.00  0.00    -0.165 F 
ATOM     29  F   UNL     1      41.410 -22.991 -36.715  0.00  0.00    -0.165 F 
ENDBRANCH  20  26
ENDBRANCH  17  20
ENDBRANCH  16  17
ENDBRANCH  12  16
TORSDOF 5
ENDMDL
MODEL 18
REMARK VINA RESULT:    -6.215     21.289     22.591
REMARK INTER + INTRA:          -8.880
REMARK INTER:                  -7.938
REMARK INTRA:                  -0.942
REMARK UNBOUND:                -1.030
REMARK  Name = cpd203.pdb
REMARK  6 active torsions:
REMARK  status: ('A' for Active; 'I' for Inactive)
REMARK    1  A    between atoms: C_1  and  C_2
REMARK    2  A    between atoms: C_11  and  N_12
REMARK    3  A    between atoms: C_13  and  C_14
REMARK    4  A    between atoms: C_14  and  N_15
REMARK    5  A    between atoms: N_15  and  C_16
REMARK    6  A    between atoms: C_16  and  C_17
REMARK                            x       y       z     vdW  Elec       q    Type
REMARK                         _______ _______ _______ _____ _____    ______ ____
ROOT
ATOM      1  C   UNL     1      42.062 -20.303 -37.036  0.00  0.00    -0.022 C 
ATOM      2  C   UNL     1      43.379 -19.801 -36.513  0.00  0.00    +0.045 A 
ATOM      3  N   UNL     1      43.291 -19.047 -35.395  0.00  0.00    -0.251 NA
ATOM      4  C   UNL     1      44.403 -18.560 -34.832  0.00  0.00    +0.074 A 
ATOM      5  C   UNL     1      44.217 -17.813 -33.677  0.00  0.00    -0.036 A 
ATOM      6  C   UNL     1      45.279 -17.255 -32.974  0.00  0.00    -0.058 A 
ATOM      7  C   UNL     1      46.568 -17.450 -33.438  0.00  0.00    -0.043 A 
ATOM      8  C   UNL     1      46.781 -18.197 -34.602  0.00  0.00    +0.052 A 
ATOM      9 CL   UNL     1      48.443 -18.343 -35.084  0.00  0.00    -0.083 Cl
ATOM     10  C   UNL     1      45.700 -18.782 -35.341  0.00  0.00    +0.040 A 
ATOM     11  C   UNL     1      45.767 -19.564 -36.546  0.00  0.00    +0.041 A 
ATOM     12  C   UNL     1      44.597 -20.111 -37.118  0.00  0.00    +0.009 A 
ENDROOT
BRANCH  11  13
ATOM     13  N   UNL     1      47.020 -20.007 -37.062  0.00  0.00    -0.357 N 
ATOM     14  H   UNL     1      47.666 -20.456 -36.470  0.00  0.00    +0.000 HD
ATOM     15  H   UNL     1      47.240 -19.865 -38.011  0.00  0.00    +0.000 HD
ENDBRANCH  11  13
BRANCH  12  16
ATOM     16  C   UNL     1      44.651 -20.946 -38.381  0.00  0.00    +0.028 C 
BRANCH  16  17
ATOM     17  N   UNL     1      44.786 -20.102 -39.571  0.00  0.00    -0.268 N 
ATOM     18  H   UNL     1      45.121 -19.186 -39.276  0.00  0.00    +0.000 HD
ATOM     19  H   UNL     1      43.865 -20.066 -40.008  0.00  0.00    +0.000 HD
BRANCH  17  20
ATOM     20  C   UNL     1      45.718 -20.631 -40.588  0.00  0.00    +0.261 C 
ATOM     21  C   UNL     1      45.183 -21.952 -41.141  0.00  0.00    +0.020 C 
ATOM     22  C   UNL     1      46.434 -22.737 -41.452  0.00  0.00    +0.050 C 
ATOM     23  C   UNL     1      47.399 -22.190 -40.448  0.00  0.00    +0.309 C 
ATOM     24  O   UNL     1      48.483 -22.676 -40.171  0.00  0.00    -0.251 OA
ATOM     25  O   UNL     1      46.918 -21.038 -39.899  0.00  0.00    -0.434 OA
BRANCH  20  26
ATOM     26  C   UNL     1      46.122 -19.646 -41.751  0.00  0.00    +0.444 C 
ATOM     27  F   UNL     1      45.560 -20.014 -42.928  0.00  0.00    -0.165 F 
ATOM     28  F   UNL     1      47.459 -19.607 -41.949  0.00  0.00    -0.165 F 
ATOM     29  F   UNL     1      45.710 -18.383 -41.487  0.00  0.00    -0.165 F 
ENDBRANCH  20  26
ENDBRANCH  17  20
ENDBRANCH  16  17
ENDBRANCH  12  16
TORSDOF 5
ENDMDL
MODEL 19
REMARK VINA RESULT:    -6.132     19.004     21.480
REMARK INTER + INTRA:          -8.776
REMARK INTER:                  -8.108
REMARK INTRA:                  -0.667
REMARK UNBOUND:                -1.030
REMARK  Name = cpd203.pdb
REMARK  6 active torsions:
REMARK  status: ('A' for Active; 'I' for Inactive)
REMARK    1  A    between atoms: C_1  and  C_2
REMARK    2  A    between atoms: C_11  and  N_12
REMARK    3  A    between atoms: C_13  and  C_14
REMARK    4  A    between atoms: C_14  and  N_15
REMARK    5  A    between atoms: N_15  and  C_16
REMARK    6  A    between atoms: C_16  and  C_17
REMARK                            x       y       z     vdW  Elec       q    Type
REMARK                         _______ _______ _______ _____ _____    ______ ____
ROOT
ATOM      1  C   UNL     1      44.791 -18.709 -36.286  0.00  0.00    -0.022 C 
ATOM      2  C   UNL     1      43.635 -19.665 -36.192  0.00  0.00    +0.045 A 
ATOM      3  N   UNL     1      43.168 -19.863 -34.938  0.00  0.00    -0.251 NA
ATOM      4  C   UNL     1      42.131 -20.683 -34.738  0.00  0.00    +0.074 A 
ATOM      5  C   UNL     1      41.709 -20.811 -33.422  0.00  0.00    -0.036 A 
ATOM      6  C   UNL     1      40.634 -21.616 -33.060  0.00  0.00    -0.058 A 
ATOM      7  C   UNL     1      39.959 -22.316 -34.045  0.00  0.00    -0.043 A 
ATOM      8  C   UNL     1      40.366 -22.206 -35.379  0.00  0.00    +0.052 A 
ATOM      9 CL   UNL     1      39.447 -23.154 -36.506  0.00  0.00    -0.083 Cl
ATOM     10  C   UNL     1      41.471 -21.381 -35.772  0.00  0.00    +0.040 A 
ATOM     11  C   UNL     1      42.001 -21.175 -37.093  0.00  0.00    +0.041 A 
ATOM     12  C   UNL     1      43.073 -20.279 -37.310  0.00  0.00    +0.009 A 
ENDROOT
BRANCH  11  13
ATOM     13  N   UNL     1      41.322 -21.677 -38.241  0.00  0.00    -0.357 N 
ATOM     14  H   UNL     1      40.842 -21.059 -38.839  0.00  0.00    +0.000 HD
ATOM     15  H   UNL     1      41.332 -22.642 -38.437  0.00  0.00    +0.000 HD
ENDBRANCH  11  13
BRANCH  12  16
ATOM     16  C   UNL     1      43.636 -20.044 -38.697  0.00  0.00    +0.028 C 
BRANCH  16  17
ATOM     17  N   UNL     1      44.716 -20.984 -38.999  0.00  0.00    -0.268 N 
ATOM     18  H   UNL     1      44.336 -21.929 -38.964  0.00  0.00    +0.000 HD
ATOM     19  H   UNL     1      45.445 -20.825 -38.303  0.00  0.00    +0.000 HD
BRANCH  17  20
ATOM     20  C   UNL     1      45.343 -20.786 -40.322  0.00  0.00    +0.261 C 
ATOM     21  C   UNL     1      44.259 -20.596 -41.383  0.00  0.00    +0.020 C 
ATOM     22  C   UNL     1      44.866 -21.209 -42.621  0.00  0.00    +0.050 C 
ATOM     23  C   UNL     1      45.769 -22.251 -42.039  0.00  0.00    +0.309 C 
ATOM     24  O   UNL     1      46.306 -23.150 -42.664  0.00  0.00    -0.251 OA
ATOM     25  O   UNL     1      45.944 -22.041 -40.703  0.00  0.00    -0.434 OA
BRANCH  20  26
ATOM     26  C   UNL     1      46.442 -19.660 -40.418  0.00  0.00    +0.444 C 
ATOM     27  F   UNL     1      46.788 -19.201 -39.190  0.00  0.00    -0.165 F 
ATOM     28  F   UNL     1      46.022 -18.592 -41.132  0.00  0.00    -0.165 F 
ATOM     29  F   UNL     1      47.570 -20.127 -41.004  0.00  0.00    -0.165 F 
ENDBRANCH  20  26
ENDBRANCH  17  20
ENDBRANCH  16  17
ENDBRANCH  12  16
TORSDOF 5
ENDMDL
MODEL 20
REMARK VINA RESULT:    -6.117      1.979      2.535
REMARK INTER + INTRA:          -8.757
REMARK INTER:                  -7.918
REMARK INTRA:                  -0.839
REMARK UNBOUND:                -1.030
REMARK  Name = cpd203.pdb
REMARK  6 active torsions:
REMARK  status: ('A' for Active; 'I' for Inactive)
REMARK    1  A    between atoms: C_1  and  C_2
REMARK    2  A    between atoms: C_11  and  N_12
REMARK    3  A    between atoms: C_13  and  C_14
REMARK    4  A    between atoms: C_14  and  N_15
REMARK    5  A    between atoms: N_15  and  C_16
REMARK    6  A    between atoms: C_16  and  C_17
REMARK                            x       y       z     vdW  Elec       q    Type
REMARK                         _______ _______ _______ _____ _____    ______ ____
ROOT
ATOM      1  C   UNL     1      34.708 -36.488 -30.067  0.00  0.00    -0.022 C 
ATOM      2  C   UNL     1      36.199 -36.652 -30.154  0.00  0.00    +0.045 A 
ATOM      3  N   UNL     1      36.813 -35.798 -31.004  0.00  0.00    -0.251 NA
ATOM      4  C   UNL     1      38.141 -35.844 -31.149  0.00  0.00    +0.074 A 
ATOM      5  C   UNL     1      38.684 -34.917 -32.027  0.00  0.00    -0.036 A 
ATOM      6  C   UNL     1      40.052 -34.835 -32.270  0.00  0.00    -0.058 A 
ATOM      7  C   UNL     1      40.903 -35.706 -31.614  0.00  0.00    -0.043 A 
ATOM      8  C   UNL     1      40.380 -36.652 -30.725  0.00  0.00    +0.052 A 
ATOM      9 CL   UNL     1      41.557 -37.695 -29.989  0.00  0.00    -0.083 Cl
ATOM     10  C   UNL     1      38.974 -36.752 -30.460  0.00  0.00    +0.040 A 
ATOM     11  C   UNL     1      38.298 -37.669 -29.583  0.00  0.00    +0.041 A 
ATOM     12  C   UNL     1      36.898 -37.594 -29.400  0.00  0.00    +0.009 A 
ENDROOT
BRANCH  11  13
ATOM     13  N   UNL     1      39.032 -38.514 -28.700  0.00  0.00    -0.357 N 
ATOM     14  H   UNL     1      40.013 -38.553 -28.758  0.00  0.00    +0.000 HD
ATOM     15  H   UNL     1      38.556 -39.059 -28.031  0.00  0.00    +0.000 HD
ENDBRANCH  11  13
BRANCH  12  16
ATOM     16  C   UNL     1      36.172 -38.546 -28.471  0.00  0.00    +0.028 C 
BRANCH  16  17
ATOM     17  N   UNL     1      36.043 -39.877 -29.068  0.00  0.00    -0.268 N 
ATOM     18  H   UNL     1      36.614 -40.526 -28.529  0.00  0.00    +0.000 HD
ATOM     19  H   UNL     1      36.348 -39.792 -30.038  0.00  0.00    +0.000 HD
BRANCH  17  20
ATOM     20  C   UNL     1      34.660 -40.396 -29.102  0.00  0.00    +0.261 C 
ATOM     21  C   UNL     1      34.081 -40.230 -30.507  0.00  0.00    +0.020 C 
ATOM     22  C   UNL     1      32.612 -39.988 -30.258  0.00  0.00    +0.050 C 
ATOM     23  C   UNL     1      32.631 -39.335 -28.912  0.00  0.00    +0.309 C 
ATOM     24  O   UNL     1      31.690 -38.759 -28.392  0.00  0.00    -0.251 OA
ATOM     25  O   UNL     1      33.848 -39.500 -28.316  0.00  0.00    -0.434 OA
BRANCH  20  26
ATOM     26  C   UNL     1      34.445 -41.862 -28.564  0.00  0.00    +0.444 C 
ATOM     27  F   UNL     1      35.626 -42.452 -28.256  0.00  0.00    -0.165 F 
ATOM     28  F   UNL     1      33.833 -42.657 -29.470  0.00  0.00    -0.165 F 
ATOM     29  F   UNL     1      33.690 -41.864 -27.440  0.00  0.00    -0.165 F 
ENDBRANCH  20  26
ENDBRANCH  17  20
ENDBRANCH  16  17
ENDBRANCH  12  16
TORSDOF 5
ENDMDL
