REMARK  Name = cpd203.pdb
REMARK  6 active torsions:
REMARK  status: ('A' for Active; 'I' for Inactive)
REMARK    1  A    between atoms: C_1  and  C_2
REMARK    2  A    between atoms: C_11  and  N_12
REMARK    3  A    between atoms: C_13  and  C_14
REMARK    4  A    between atoms: C_14  and  N_15
REMARK    5  A    between atoms: N_15  and  C_16
REMARK    6  A    between atoms: C_16  and  C_17
REMARK                            x       y       z     vdW  Elec       q    Type
REMARK                         _______ _______ _______ _____ _____    ______ ____
ROOT
ATOM      1  C   UNL     1      -3.022  -3.484   0.252  0.00  0.00    -0.022 C 
ATOM      2  C   UNL     1      -4.090  -2.433   0.137  0.00  0.00    +0.045 A 
ATOM      3  N   UNL     1      -5.315  -2.906  -0.185  0.00  0.00    -0.251 NA
ATOM      4  C   UNL     1      -6.345  -2.061  -0.299  0.00  0.00    +0.074 A 
ATOM      5  C   UNL     1      -7.567  -2.639  -0.614  0.00  0.00    -0.036 A 
ATOM      6  C   UNL     1      -8.731  -1.889  -0.751  0.00  0.00    -0.058 A 
ATOM      7  C   UNL     1      -8.672  -0.519  -0.568  0.00  0.00    -0.043 A 
ATOM      8  C   UNL     1      -7.451   0.088  -0.252  0.00  0.00    +0.052 A 
ATOM      9 CL   UNL     1      -7.516   1.814  -0.072  0.00  0.00    -0.083 Cl
ATOM     10  C   UNL     1      -6.241  -0.667  -0.105  0.00  0.00    +0.040 A 
ATOM     11  C   UNL     1      -4.924  -0.183   0.210  0.00  0.00    +0.041 A 
ATOM     12  C   UNL     1      -3.843  -1.080   0.369  0.00  0.00    +0.009 A 
ENDROOT
BRANCH  11  13
ATOM     13  N   UNL     1      -4.716   1.172   0.602  0.00  0.00    -0.357 N 
ATOM     14  H   UNL     1      -5.443   1.829   0.508  0.00  0.00    +0.000 HD
ATOM     15  H   UNL     1      -3.845   1.451   0.967  0.00  0.00    +0.000 HD
ENDBRANCH  11  13
BRANCH  12  16
ATOM     16  C   UNL     1      -2.452  -0.587   0.711  0.00  0.00    +0.028 C 
BRANCH  16  17
ATOM     17  N   UNL     1      -1.678  -0.298  -0.498  0.00  0.00    -0.268 N 
ATOM     18  H   UNL     1      -2.208   0.362  -1.066  0.00  0.00    +0.000 HD
ATOM     19  H   UNL     1      -1.525  -1.191  -0.967  0.00  0.00    +0.000 HD
BRANCH  17  20
ATOM     20  C   UNL     1      -0.343   0.280  -0.241  0.00  0.00    +0.261 C 
ATOM     21  C   UNL     1      -0.482   1.758   0.124  0.00  0.00    +0.020 C 
ATOM     22  C   UNL     1       0.777   2.379  -0.430  0.00  0.00    +0.050 C 
ATOM     23  C   UNL     1       1.081   1.479  -1.587  0.00  0.00    +0.309 C 
ATOM     24  O   UNL     1       1.888   1.713  -2.471  0.00  0.00    -0.251 OA
ATOM     25  O   UNL     1       0.352   0.329  -1.504  0.00  0.00    -0.434 OA
BRANCH  20  26
ATOM     26  C   UNL     1       0.566  -0.483   0.797  0.00  0.00    +0.444 C 
ATOM     27  F   UNL     1       0.088  -0.356   2.059  0.00  0.00    -0.165 F 
ATOM     28  F   UNL     1       1.835  -0.017   0.808  0.00  0.00    -0.165 F 
ATOM     29  F   UNL     1       0.618  -1.808   0.519  0.00  0.00    -0.165 F 
ENDBRANCH  20  26
ENDBRANCH  17  20
ENDBRANCH  16  17
ENDBRANCH  12  16
TORSDOF 5
