MODEL 1
REMARK VINA RESULT:    -7.925      0.000      0.000
REMARK INTER + INTRA:         -17.325
REMARK INTER:                 -12.558
REMARK INTRA:                  -4.766
REMARK UNBOUND:                -4.766
REMARK  Name = cpd29.pdb
REMARK  12 active torsions:
REMARK  status: ('A' for Active; 'I' for Inactive)
REMARK    1  A    between atoms: C_1  and  C_2
REMARK    2  A    between atoms: C_6  and  N_7
REMARK    3  A    between atoms: N_7  and  C_8
REMARK    4  A    between atoms: C_13  and  C_14
REMARK    5  A    between atoms: N_16  and  C_17
REMARK    6  A    between atoms: C_17  and  C_18
REMARK    7  A    between atoms: N_20  and  C_21
REMARK    8  A    between atoms: C_21  and  C_22
REMARK    9  A    between atoms: C_22  and  C_23
REMARK   10  A    between atoms: C_23  and  N_24
REMARK   11  A    between atoms: N_24  and  C_25
REMARK   12  A    between atoms: C_39  and  C_40
REMARK                            x       y       z     vdW  Elec       q    Type
REMARK                         _______ _______ _______ _____ _____    ______ ____
ROOT
ATOM      1  C   UNL A   1      31.324 -34.464 -31.497  0.00  0.00    +0.230 C 
ATOM      2  O   UNL A   1      30.873 -34.297 -30.363  0.00  0.00    -0.274 OA
ATOM      3  N   UNL A   1      32.392 -33.744 -31.983  0.00  0.00    -0.314 N 
ATOM      4  H   UNL A   1      32.747 -33.962 -32.876  0.00  0.00    +0.000 HD
ENDROOT
BRANCH   1   5
ATOM      5  C   UNL A   1      30.596 -35.343 -32.526  0.00  0.00    +0.088 C 
BRANCH   5   8
ATOM      6  C   UNL A   1      32.319 -37.024 -33.144  0.00  0.00    +0.246 C 
ATOM      7  O   UNL A   1      33.232 -36.205 -33.163  0.00  0.00    -0.270 OA
ATOM      8  N   UNL A   1      31.061 -36.714 -32.681  0.00  0.00    -0.303 N 
ATOM      9  H   UNL A   1      30.450 -37.450 -32.445  0.00  0.00    +0.000 HD
BRANCH   6  15
ATOM     10  C   UNL A   1      33.591 -39.238 -33.063  0.00  0.00    +0.044 A 
ATOM     11  C   UNL A   1      33.687 -40.568 -33.510  0.00  0.00    -0.040 A 
ATOM     12  C   UNL A   1      32.820 -41.068 -34.485  0.00  0.00    -0.060 A 
ATOM     13  C   UNL A   1      31.815 -40.258 -35.004  0.00  0.00    -0.061 A 
ATOM     14  C   UNL A   1      31.675 -38.948 -34.547  0.00  0.00    -0.048 A 
ATOM     15  C   UNL A   1      32.552 -38.433 -33.579  0.00  0.00    +0.058 A 
BRANCH  10  16
ATOM     16  N   UNL A   1      34.389 -38.790 -31.969  0.00  0.00    -0.314 N 
ATOM     17  H   UNL A   1      34.747 -37.875 -32.036  0.00  0.00    +0.000 HD
BRANCH  16  23
ATOM     18  C   UNL A   1      33.194 -40.601 -27.430  0.00  0.00    -0.039 C 
ATOM     19  C   UNL A   1      34.157 -40.368 -28.565  0.00  0.00    -0.046 A 
ATOM     20  C   UNL A   1      35.465 -40.859 -28.436  0.00  0.00    -0.058 A 
ATOM     21  C   UNL A   1      36.402 -40.654 -29.441  0.00  0.00    -0.060 A 
ATOM     22  C   UNL A   1      36.037 -39.979 -30.601  0.00  0.00    -0.040 A 
ATOM     23  C   UNL A   1      34.725 -39.517 -30.792  0.00  0.00    +0.035 A 
ATOM     24  C   UNL A   1      33.791 -39.650 -29.731  0.00  0.00    -0.026 A 
ATOM     25  C   UNL A   1      32.403 -39.068 -29.864  0.00  0.00    -0.038 C 
ENDBRANCH  16  23
ENDBRANCH  10  16
ENDBRANCH   6  15
ENDBRANCH   5   8
ENDBRANCH   1   5
BRANCH   3  26
ATOM     26  C   UNL A   1      33.010 -32.677 -31.229  0.00  0.00    +0.013 C 
BRANCH  26  27
ATOM     27  C   UNL A   1      34.521 -32.614 -31.426  0.00  0.00    -0.022 C 
BRANCH  27  28
ATOM     28  C   UNL A   1      35.220 -33.573 -30.465  0.00  0.00    +0.011 C 
BRANCH  28  29
ATOM     29  N   UNL A   1      35.260 -34.920 -31.052  0.00  0.00    -0.343 N 
ATOM     30  H   UNL A   1      34.817 -35.170 -31.895  0.00  0.00    +0.000 HD
BRANCH  29  31
ATOM     31  C   UNL A   1      36.022 -35.820 -30.247  0.00  0.00    +0.041 A 
ATOM     32  C   UNL A   1      37.352 -36.145 -30.587  0.00  0.00    -0.005 A 
ATOM     33  C   UNL A   1      38.084 -36.908 -29.671  0.00  0.00    +0.047 A 
ATOM     34  N   UNL A   1      37.570 -37.370 -28.506  0.00  0.00    -0.251 NA
ATOM     35  C   UNL A   1      36.301 -37.076 -28.193  0.00  0.00    +0.073 A 
ATOM     36  C   UNL A   1      35.790 -37.557 -26.994  0.00  0.00    -0.036 A 
ATOM     37  C   UNL A   1      34.478 -37.298 -26.591  0.00  0.00    -0.060 A 
ATOM     38  C   UNL A   1      33.648 -36.543 -27.407  0.00  0.00    -0.061 A 
ATOM     39  C   UNL A   1      34.140 -36.051 -28.614  0.00  0.00    -0.051 A 
ATOM     40  C   UNL A   1      35.473 -36.299 -29.025  0.00  0.00    +0.021 A 
ATOM     41  C   UNL A   1      39.510 -37.318 -29.937  0.00  0.00    -0.010 C 
ATOM     42  C   UNL A   1      40.204 -36.443 -30.974  0.00  0.00    -0.047 C 
ATOM     43  C   UNL A   1      39.322 -36.315 -32.205  0.00  0.00    -0.049 C 
ATOM     44  C   UNL A   1      38.001 -35.633 -31.851  0.00  0.00    -0.024 C 
ENDBRANCH  29  31
ENDBRANCH  28  29
ENDBRANCH  27  28
ENDBRANCH  26  27
ENDBRANCH   3  26
TORSDOF 10
ENDMDL
MODEL 2
REMARK VINA RESULT:    -7.271     17.302     21.102
REMARK INTER + INTRA:         -16.288
REMARK INTER:                 -13.387
REMARK INTRA:                  -2.900
REMARK UNBOUND:                -4.766
REMARK  Name = cpd29.pdb
REMARK  12 active torsions:
REMARK  status: ('A' for Active; 'I' for Inactive)
REMARK    1  A    between atoms: C_1  and  C_2
REMARK    2  A    between atoms: C_6  and  N_7
REMARK    3  A    between atoms: N_7  and  C_8
REMARK    4  A    between atoms: C_13  and  C_14
REMARK    5  A    between atoms: N_16  and  C_17
REMARK    6  A    between atoms: C_17  and  C_18
REMARK    7  A    between atoms: N_20  and  C_21
REMARK    8  A    between atoms: C_21  and  C_22
REMARK    9  A    between atoms: C_22  and  C_23
REMARK   10  A    between atoms: C_23  and  N_24
REMARK   11  A    between atoms: N_24  and  C_25
REMARK   12  A    between atoms: C_39  and  C_40
REMARK                            x       y       z     vdW  Elec       q    Type
REMARK                         _______ _______ _______ _____ _____    ______ ____
ROOT
ATOM      1  C   UNL A   1      44.462 -18.538 -34.026  0.00  0.00    +0.230 C 
ATOM      2  O   UNL A   1      44.916 -18.396 -32.890  0.00  0.00    -0.274 OA
ATOM      3  N   UNL A   1      45.262 -18.572 -35.146  0.00  0.00    -0.314 N 
ATOM      4  H   UNL A   1      44.848 -18.748 -36.022  0.00  0.00    +0.000 HD
ENDROOT
BRANCH   1   5
ATOM      5  C   UNL A   1      42.950 -18.480 -34.295  0.00  0.00    +0.088 C 
BRANCH   5   8
ATOM      6  C   UNL A   1      42.343 -20.508 -35.596  0.00  0.00    +0.246 C 
ATOM      7  O   UNL A   1      42.343 -21.242 -34.612  0.00  0.00    -0.270 OA
ATOM      8  N   UNL A   1      42.459 -19.141 -35.495  0.00  0.00    -0.303 N 
ATOM      9  H   UNL A   1      42.198 -18.587 -36.267  0.00  0.00    +0.000 HD
BRANCH   6  15
ATOM     10  C   UNL A   1      41.177 -22.036 -37.278  0.00  0.00    +0.044 A 
ATOM     11  C   UNL A   1      41.064 -22.463 -38.613  0.00  0.00    -0.040 A 
ATOM     12  C   UNL A   1      41.939 -21.998 -39.598  0.00  0.00    -0.060 A 
ATOM     13  C   UNL A   1      42.922 -21.069 -39.273  0.00  0.00    -0.061 A 
ATOM     14  C   UNL A   1      43.027 -20.600 -37.964  0.00  0.00    -0.048 A 
ATOM     15  C   UNL A   1      42.162 -21.074 -36.965  0.00  0.00    +0.058 A 
BRANCH  10  16
ATOM     16  N   UNL A   1      40.189 -22.409 -36.320  0.00  0.00    -0.314 N 
ATOM     17  H   UNL A   1      40.217 -23.341 -36.004  0.00  0.00    +0.000 HD
BRANCH  16  23
ATOM     18  C   UNL A   1      36.802 -21.413 -32.734  0.00  0.00    -0.039 C 
ATOM     19  C   UNL A   1      37.491 -21.118 -34.042  0.00  0.00    -0.046 A 
ATOM     20  C   UNL A   1      37.075 -19.994 -34.771  0.00  0.00    -0.058 A 
ATOM     21  C   UNL A   1      37.659 -19.686 -35.994  0.00  0.00    -0.060 A 
ATOM     22  C   UNL A   1      38.686 -20.482 -36.491  0.00  0.00    -0.040 A 
ATOM     23  C   UNL A   1      39.167 -21.585 -35.768  0.00  0.00    +0.035 A 
ATOM     24  C   UNL A   1      38.514 -21.951 -34.561  0.00  0.00    -0.026 A 
ATOM     25  C   UNL A   1      38.938 -23.194 -33.815  0.00  0.00    -0.038 C 
ENDBRANCH  16  23
ENDBRANCH  10  16
ENDBRANCH   6  15
ENDBRANCH   5   8
ENDBRANCH   1   5
BRANCH   3  26
ATOM     26  C   UNL A   1      46.689 -18.359 -35.079  0.00  0.00    +0.013 C 
BRANCH  26  27
ATOM     27  C   UNL A   1      47.486 -19.509 -35.687  0.00  0.00    -0.022 C 
BRANCH  27  28
ATOM     28  C   UNL A   1      46.763 -20.063 -36.912  0.00  0.00    +0.011 C 
BRANCH  28  29
ATOM     29  N   UNL A   1      47.504 -19.699 -38.130  0.00  0.00    -0.343 N 
ATOM     30  H   UNL A   1      48.458 -19.458 -38.146  0.00  0.00    +0.000 HD
BRANCH  29  31
ATOM     31  C   UNL A   1      46.665 -19.740 -39.285  0.00  0.00    +0.041 A 
ATOM     32  C   UNL A   1      45.889 -18.622 -39.656  0.00  0.00    -0.005 A 
ATOM     33  C   UNL A   1      45.214 -18.682 -40.879  0.00  0.00    +0.047 A 
ATOM     34  N   UNL A   1      45.244 -19.762 -41.696  0.00  0.00    -0.251 NA
ATOM     35  C   UNL A   1      45.968 -20.830 -41.334  0.00  0.00    +0.073 A 
ATOM     36  C   UNL A   1      45.989 -21.929 -42.183  0.00  0.00    -0.036 A 
ATOM     37  C   UNL A   1      46.715 -23.084 -41.883  0.00  0.00    -0.060 A 
ATOM     38  C   UNL A   1      47.437 -23.149 -40.700  0.00  0.00    -0.061 A 
ATOM     39  C   UNL A   1      47.430 -22.059 -39.834  0.00  0.00    -0.051 A 
ATOM     40  C   UNL A   1      46.705 -20.880 -40.136  0.00  0.00    +0.021 A 
ATOM     41  C   UNL A   1      44.352 -17.547 -41.368  0.00  0.00    -0.010 C 
ATOM     42  C   UNL A   1      44.682 -16.213 -40.709  0.00  0.00    -0.047 C 
ATOM     43  C   UNL A   1      44.733 -16.389 -39.201  0.00  0.00    -0.049 C 
ATOM     44  C   UNL A   1      45.838 -17.370 -38.812  0.00  0.00    -0.024 C 
ENDBRANCH  29  31
ENDBRANCH  28  29
ENDBRANCH  27  28
ENDBRANCH  26  27
ENDBRANCH   3  26
TORSDOF 10
ENDMDL
MODEL 3
REMARK VINA RESULT:    -7.094      2.170      6.827
REMARK INTER + INTRA:         -16.007
REMARK INTER:                 -13.032
REMARK INTRA:                  -2.975
REMARK UNBOUND:                -4.766
REMARK  Name = cpd29.pdb
REMARK  12 active torsions:
REMARK  status: ('A' for Active; 'I' for Inactive)
REMARK    1  A    between atoms: C_1  and  C_2
REMARK    2  A    between atoms: C_6  and  N_7
REMARK    3  A    between atoms: N_7  and  C_8
REMARK    4  A    between atoms: C_13  and  C_14
REMARK    5  A    between atoms: N_16  and  C_17
REMARK    6  A    between atoms: C_17  and  C_18
REMARK    7  A    between atoms: N_20  and  C_21
REMARK    8  A    between atoms: C_21  and  C_22
REMARK    9  A    between atoms: C_22  and  C_23
REMARK   10  A    between atoms: C_23  and  N_24
REMARK   11  A    between atoms: N_24  and  C_25
REMARK   12  A    between atoms: C_39  and  C_40
REMARK                            x       y       z     vdW  Elec       q    Type
REMARK                         _______ _______ _______ _____ _____    ______ ____
ROOT
ATOM      1  C   UNL A   1      34.199 -41.051 -33.134  0.00  0.00    +0.230 C 
ATOM      2  O   UNL A   1      34.249 -41.643 -34.212  0.00  0.00    -0.274 OA
ATOM      3  N   UNL A   1      33.134 -40.257 -32.772  0.00  0.00    -0.314 N 
ATOM      4  H   UNL A   1      33.122 -39.856 -31.873  0.00  0.00    +0.000 HD
ENDROOT
BRANCH   1   5
ATOM      5  C   UNL A   1      35.417 -40.988 -32.198  0.00  0.00    +0.088 C 
BRANCH   5   8
ATOM      6  C   UNL A   1      35.750 -40.199 -29.866  0.00  0.00    +0.246 C 
ATOM      7  O   UNL A   1      36.347 -41.213 -29.518  0.00  0.00    -0.270 OA
ATOM      8  N   UNL A   1      35.424 -39.949 -31.179  0.00  0.00    -0.303 N 
ATOM      9  H   UNL A   1      35.186 -39.029 -31.440  0.00  0.00    +0.000 HD
BRANCH   6  15
ATOM     10  C   UNL A   1      36.355 -38.394 -28.162  0.00  0.00    +0.044 A 
ATOM     11  C   UNL A   1      35.904 -37.395 -27.281  0.00  0.00    -0.040 A 
ATOM     12  C   UNL A   1      34.540 -37.190 -27.058  0.00  0.00    -0.060 A 
ATOM     13  C   UNL A   1      33.600 -37.956 -27.741  0.00  0.00    -0.061 A 
ATOM     14  C   UNL A   1      34.023 -38.924 -28.649  0.00  0.00    -0.048 A 
ATOM     15  C   UNL A   1      35.392 -39.148 -28.868  0.00  0.00    +0.058 A 
BRANCH  10  16
ATOM     16  N   UNL A   1      37.741 -38.493 -28.485  0.00  0.00    -0.314 N 
ATOM     17  H   UNL A   1      38.273 -39.117 -27.940  0.00  0.00    +0.000 HD
BRANCH  16  23
ATOM     18  C   UNL A   1      42.034 -36.973 -30.625  0.00  0.00    -0.039 C 
ATOM     19  C   UNL A   1      40.530 -37.019 -30.529  0.00  0.00    -0.046 A 
ATOM     20  C   UNL A   1      39.784 -36.298 -31.474  0.00  0.00    -0.058 A 
ATOM     21  C   UNL A   1      38.396 -36.286 -31.421  0.00  0.00    -0.060 A 
ATOM     22  C   UNL A   1      37.733 -37.015 -30.439  0.00  0.00    -0.040 A 
ATOM     23  C   UNL A   1      38.441 -37.790 -29.507  0.00  0.00    +0.035 A 
ATOM     24  C   UNL A   1      39.860 -37.736 -29.507  0.00  0.00    -0.026 A 
ATOM     25  C   UNL A   1      40.648 -38.474 -28.450  0.00  0.00    -0.038 C 
ENDBRANCH  16  23
ENDBRANCH  10  16
ENDBRANCH   6  15
ENDBRANCH   5   8
ENDBRANCH   1   5
BRANCH   3  26
ATOM     26  C   UNL A   1      32.032 -39.993 -33.669  0.00  0.00    +0.013 C 
BRANCH  26  27
ATOM     27  C   UNL A   1      31.882 -38.511 -33.997  0.00  0.00    -0.022 C 
BRANCH  27  28
ATOM     28  C   UNL A   1      32.322 -37.659 -32.809  0.00  0.00    +0.011 C 
BRANCH  28  29
ATOM     29  N   UNL A   1      32.660 -36.304 -33.270  0.00  0.00    -0.343 N 
ATOM     30  H   UNL A   1      33.178 -36.110 -34.084  0.00  0.00    +0.000 HD
BRANCH  29  31
ATOM     31  C   UNL A   1      32.143 -35.307 -32.388  0.00  0.00    +0.041 A 
ATOM     32  C   UNL A   1      32.958 -34.727 -31.394  0.00  0.00    -0.005 A 
ATOM     33  C   UNL A   1      32.430 -33.651 -30.673  0.00  0.00    +0.047 A 
ATOM     34  N   UNL A   1      31.178 -33.170 -30.861  0.00  0.00    -0.251 NA
ATOM     35  C   UNL A   1      30.398 -33.734 -31.794  0.00  0.00    +0.073 A 
ATOM     36  C   UNL A   1      29.117 -33.228 -31.974  0.00  0.00    -0.036 A 
ATOM     37  C   UNL A   1      28.238 -33.757 -32.922  0.00  0.00    -0.060 A 
ATOM     38  C   UNL A   1      28.644 -34.823 -33.711  0.00  0.00    -0.061 A 
ATOM     39  C   UNL A   1      29.925 -35.346 -33.547  0.00  0.00    -0.051 A 
ATOM     40  C   UNL A   1      30.826 -34.809 -32.595  0.00  0.00    +0.021 A 
ATOM     41  C   UNL A   1      33.212 -32.963 -29.584  0.00  0.00    -0.010 C 
ATOM     42  C   UNL A   1      34.716 -33.182 -29.692  0.00  0.00    -0.047 C 
ATOM     43  C   UNL A   1      35.003 -34.665 -29.863  0.00  0.00    -0.049 C 
ATOM     44  C   UNL A   1      34.377 -35.188 -31.156  0.00  0.00    -0.024 C 
ENDBRANCH  29  31
ENDBRANCH  28  29
ENDBRANCH  27  28
ENDBRANCH  26  27
ENDBRANCH   3  26
TORSDOF 10
ENDMDL
MODEL 4
REMARK VINA RESULT:    -7.050     17.546     21.151
REMARK INTER + INTRA:         -15.937
REMARK INTER:                 -11.756
REMARK INTRA:                  -4.182
REMARK UNBOUND:                -4.766
REMARK  Name = cpd29.pdb
REMARK  12 active torsions:
REMARK  status: ('A' for Active; 'I' for Inactive)
REMARK    1  A    between atoms: C_1  and  C_2
REMARK    2  A    between atoms: C_6  and  N_7
REMARK    3  A    between atoms: N_7  and  C_8
REMARK    4  A    between atoms: C_13  and  C_14
REMARK    5  A    between atoms: N_16  and  C_17
REMARK    6  A    between atoms: C_17  and  C_18
REMARK    7  A    between atoms: N_20  and  C_21
REMARK    8  A    between atoms: C_21  and  C_22
REMARK    9  A    between atoms: C_22  and  C_23
REMARK   10  A    between atoms: C_23  and  N_24
REMARK   11  A    between atoms: N_24  and  C_25
REMARK   12  A    between atoms: C_39  and  C_40
REMARK                            x       y       z     vdW  Elec       q    Type
REMARK                         _______ _______ _______ _____ _____    ______ ____
ROOT
ATOM      1  C   UNL A   1      44.188 -18.776 -33.893  0.00  0.00    +0.230 C 
ATOM      2  O   UNL A   1      43.917 -18.381 -35.027  0.00  0.00    -0.274 OA
ATOM      3  N   UNL A   1      45.152 -19.730 -33.652  0.00  0.00    -0.314 N 
ATOM      4  H   UNL A   1      45.367 -19.964 -32.720  0.00  0.00    +0.000 HD
ENDROOT
BRANCH   1   5
ATOM      5  C   UNL A   1      43.326 -18.387 -32.682  0.00  0.00    +0.088 C 
BRANCH   5   8
ATOM      6  C   UNL A   1      41.505 -20.055 -32.946  0.00  0.00    +0.246 C 
ATOM      7  O   UNL A   1      42.257 -21.019 -32.839  0.00  0.00    -0.270 OA
ATOM      8  N   UNL A   1      41.921 -18.766 -32.712  0.00  0.00    -0.303 N 
ATOM      9  H   UNL A   1      41.241 -18.070 -32.557  0.00  0.00    +0.000 HD
BRANCH   6  15
ATOM     10  C   UNL A   1      39.495 -19.809 -34.504  0.00  0.00    +0.044 A 
ATOM     11  C   UNL A   1      38.138 -20.090 -34.744  0.00  0.00    -0.040 A 
ATOM     12  C   UNL A   1      37.353 -20.736 -33.785  0.00  0.00    -0.060 A 
ATOM     13  C   UNL A   1      37.920 -21.146 -32.583  0.00  0.00    -0.061 A 
ATOM     14  C   UNL A   1      39.273 -20.913 -32.339  0.00  0.00    -0.048 A 
ATOM     15  C   UNL A   1      40.065 -20.251 -33.290  0.00  0.00    +0.058 A 
BRANCH  10  16
ATOM     16  N   UNL A   1      40.313 -19.280 -35.546  0.00  0.00    -0.314 N 
ATOM     17  H   UNL A   1      40.939 -18.565 -35.290  0.00  0.00    +0.000 HD
BRANCH  16  23
ATOM     18  C   UNL A   1      42.285 -21.923 -39.346  0.00  0.00    -0.039 C 
ATOM     19  C   UNL A   1      41.308 -20.929 -38.775  0.00  0.00    -0.046 A 
ATOM     20  C   UNL A   1      40.388 -20.328 -39.647  0.00  0.00    -0.058 A 
ATOM     21  C   UNL A   1      39.477 -19.388 -39.181  0.00  0.00    -0.060 A 
ATOM     22  C   UNL A   1      39.456 -19.055 -37.830  0.00  0.00    -0.040 A 
ATOM     23  C   UNL A   1      40.325 -19.671 -36.916  0.00  0.00    +0.035 A 
ATOM     24  C   UNL A   1      41.312 -20.567 -37.404  0.00  0.00    -0.026 A 
ATOM     25  C   UNL A   1      42.330 -21.164 -36.461  0.00  0.00    -0.038 C 
ENDBRANCH  16  23
ENDBRANCH  10  16
ENDBRANCH   6  15
ENDBRANCH   5   8
ENDBRANCH   1   5
BRANCH   3  26
ATOM     26  C   UNL A   1      45.858 -20.398 -34.720  0.00  0.00    +0.013 C 
BRANCH  26  27
ATOM     27  C   UNL A   1      46.975 -19.545 -35.313  0.00  0.00    -0.022 C 
BRANCH  27  28
ATOM     28  C   UNL A   1      46.937 -19.610 -36.838  0.00  0.00    +0.011 C 
BRANCH  28  29
ATOM     29  N   UNL A   1      45.671 -20.215 -37.275  0.00  0.00    -0.343 N 
ATOM     30  H   UNL A   1      45.072 -20.731 -36.689  0.00  0.00    +0.000 HD
BRANCH  29  31
ATOM     31  C   UNL A   1      45.418 -19.961 -38.658  0.00  0.00    +0.041 A 
ATOM     32  C   UNL A   1      45.992 -20.772 -39.659  0.00  0.00    -0.005 A 
ATOM     33  C   UNL A   1      45.579 -20.560 -40.978  0.00  0.00    +0.047 A 
ATOM     34  N   UNL A   1      44.690 -19.602 -41.336  0.00  0.00    -0.251 NA
ATOM     35  C   UNL A   1      44.159 -18.820 -40.386  0.00  0.00    +0.073 A 
ATOM     36  C   UNL A   1      43.249 -17.844 -40.770  0.00  0.00    -0.036 A 
ATOM     37  C   UNL A   1      42.649 -16.986 -39.845  0.00  0.00    -0.060 A 
ATOM     38  C   UNL A   1      42.968 -17.099 -38.500  0.00  0.00    -0.061 A 
ATOM     39  C   UNL A   1      43.878 -18.071 -38.093  0.00  0.00    -0.051 A 
ATOM     40  C   UNL A   1      44.483 -18.953 -39.022  0.00  0.00    +0.021 A 
ATOM     41  C   UNL A   1      46.133 -21.365 -42.125  0.00  0.00    -0.010 C 
ATOM     42  C   UNL A   1      46.744 -22.691 -41.690  0.00  0.00    -0.047 C 
ATOM     43  C   UNL A   1      47.704 -22.456 -40.536  0.00  0.00    -0.049 C 
ATOM     44  C   UNL A   1      46.962 -21.883 -39.328  0.00  0.00    -0.024 C 
ENDBRANCH  29  31
ENDBRANCH  28  29
ENDBRANCH  27  28
ENDBRANCH  26  27
ENDBRANCH   3  26
TORSDOF 10
ENDMDL
MODEL 5
REMARK VINA RESULT:    -7.048      2.321      6.934
REMARK INTER + INTRA:         -15.935
REMARK INTER:                 -12.834
REMARK INTRA:                  -3.101
REMARK UNBOUND:                -4.766
REMARK  Name = cpd29.pdb
REMARK  12 active torsions:
REMARK  status: ('A' for Active; 'I' for Inactive)
REMARK    1  A    between atoms: C_1  and  C_2
REMARK    2  A    between atoms: C_6  and  N_7
REMARK    3  A    between atoms: N_7  and  C_8
REMARK    4  A    between atoms: C_13  and  C_14
REMARK    5  A    between atoms: N_16  and  C_17
REMARK    6  A    between atoms: C_17  and  C_18
REMARK    7  A    between atoms: N_20  and  C_21
REMARK    8  A    between atoms: C_21  and  C_22
REMARK    9  A    between atoms: C_22  and  C_23
REMARK   10  A    between atoms: C_23  and  N_24
REMARK   11  A    between atoms: N_24  and  C_25
REMARK   12  A    between atoms: C_39  and  C_40
REMARK                            x       y       z     vdW  Elec       q    Type
REMARK                         _______ _______ _______ _____ _____    ______ ____
ROOT
ATOM      1  C   UNL A   1      31.596 -36.994 -32.427  0.00  0.00    +0.230 C 
ATOM      2  O   UNL A   1      30.864 -37.580 -33.225  0.00  0.00    -0.274 OA
ATOM      3  N   UNL A   1      31.104 -36.203 -31.413  0.00  0.00    -0.314 N 
ATOM      4  H   UNL A   1      31.735 -35.808 -30.769  0.00  0.00    +0.000 HD
ENDROOT
BRANCH   1   5
ATOM      5  C   UNL A   1      33.118 -36.936 -32.631  0.00  0.00    +0.088 C 
BRANCH   5   8
ATOM      6  C   UNL A   1      34.517 -38.019 -30.886  0.00  0.00    +0.246 C 
ATOM      7  O   UNL A   1      34.626 -39.072 -31.506  0.00  0.00    -0.270 OA
ATOM      8  N   UNL A   1      33.952 -36.893 -31.438  0.00  0.00    -0.303 N 
ATOM      9  H   UNL A   1      34.117 -36.022 -31.009  0.00  0.00    +0.000 HD
BRANCH   6  15
ATOM     10  C   UNL A   1      36.426 -37.990 -29.189  0.00  0.00    +0.044 A 
ATOM     11  C   UNL A   1      36.822 -37.811 -27.851  0.00  0.00    -0.040 A 
ATOM     12  C   UNL A   1      35.881 -37.606 -26.840  0.00  0.00    -0.060 A 
ATOM     13  C   UNL A   1      34.527 -37.541 -27.152  0.00  0.00    -0.061 A 
ATOM     14  C   UNL A   1      34.113 -37.675 -28.476  0.00  0.00    -0.048 A 
ATOM     15  C   UNL A   1      35.051 -37.897 -29.497  0.00  0.00    +0.058 A 
BRANCH  10  16
ATOM     16  N   UNL A   1      37.405 -38.054 -30.224  0.00  0.00    -0.314 N 
ATOM     17  H   UNL A   1      37.565 -38.941 -30.620  0.00  0.00    +0.000 HD
BRANCH  16  23
ATOM     18  C   UNL A   1      41.778 -35.616 -30.732  0.00  0.00    -0.039 C 
ATOM     19  C   UNL A   1      40.297 -35.770 -30.967  0.00  0.00    -0.046 A 
ATOM     20  C   UNL A   1      39.639 -34.778 -31.710  0.00  0.00    -0.058 A 
ATOM     21  C   UNL A   1      38.270 -34.855 -31.940  0.00  0.00    -0.060 A 
ATOM     22  C   UNL A   1      37.546 -35.939 -31.453  0.00  0.00    -0.040 A 
ATOM     23  C   UNL A   1      38.176 -36.978 -30.750  0.00  0.00    +0.035 A 
ATOM     24  C   UNL A   1      39.557 -36.858 -30.441  0.00  0.00    -0.026 A 
ATOM     25  C   UNL A   1      40.240 -37.906 -29.594  0.00  0.00    -0.038 C 
ENDBRANCH  16  23
ENDBRANCH  10  16
ENDBRANCH   6  15
ENDBRANCH   5   8
ENDBRANCH   1   5
BRANCH   3  26
ATOM     26  C   UNL A   1      29.692 -35.934 -31.262  0.00  0.00    +0.013 C 
BRANCH  26  27
ATOM     27  C   UNL A   1      29.332 -35.446 -29.863  0.00  0.00    -0.022 C 
BRANCH  27  28
ATOM     28  C   UNL A   1      30.576 -35.408 -28.979  0.00  0.00    +0.011 C 
BRANCH  28  29
ATOM     29  N   UNL A   1      30.694 -34.085 -28.348  0.00  0.00    -0.343 N 
ATOM     30  H   UNL A   1      30.466 -33.898 -27.409  0.00  0.00    +0.000 HD
BRANCH  29  31
ATOM     31  C   UNL A   1      31.182 -33.107 -29.268  0.00  0.00    +0.041 A 
ATOM     32  C   UNL A   1      30.355 -32.054 -29.709  0.00  0.00    -0.005 A 
ATOM     33  C   UNL A   1      30.945 -31.051 -30.485  0.00  0.00    +0.047 A 
ATOM     34  N   UNL A   1      32.248 -31.064 -30.854  0.00  0.00    -0.251 NA
ATOM     35  C   UNL A   1      33.029 -32.075 -30.449  0.00  0.00    +0.073 A 
ATOM     36  C   UNL A   1      34.363 -32.073 -30.835  0.00  0.00    -0.036 A 
ATOM     37  C   UNL A   1      35.246 -33.088 -30.458  0.00  0.00    -0.060 A 
ATOM     38  C   UNL A   1      34.786 -34.139 -29.678  0.00  0.00    -0.061 A 
ATOM     39  C   UNL A   1      33.452 -34.161 -29.280  0.00  0.00    -0.051 A 
ATOM     40  C   UNL A   1      32.553 -33.130 -29.648  0.00  0.00    +0.021 A 
ATOM     41  C   UNL A   1      30.153 -29.884 -31.015  0.00  0.00    -0.010 C 
ATOM     42  C   UNL A   1      28.863 -29.632 -30.243  0.00  0.00    -0.047 C 
ATOM     43  C   UNL A   1      28.091 -30.934 -30.103  0.00  0.00    -0.049 C 
ATOM     44  C   UNL A   1      28.902 -31.956 -29.306  0.00  0.00    -0.024 C 
ENDBRANCH  29  31
ENDBRANCH  28  29
ENDBRANCH  27  28
ENDBRANCH  26  27
ENDBRANCH   3  26
TORSDOF 10
ENDMDL
MODEL 6
REMARK VINA RESULT:    -6.967     17.496     21.222
REMARK INTER + INTRA:         -15.807
REMARK INTER:                 -12.996
REMARK INTRA:                  -2.811
REMARK UNBOUND:                -4.766
REMARK  Name = cpd29.pdb
REMARK  12 active torsions:
REMARK  status: ('A' for Active; 'I' for Inactive)
REMARK    1  A    between atoms: C_1  and  C_2
REMARK    2  A    between atoms: C_6  and  N_7
REMARK    3  A    between atoms: N_7  and  C_8
REMARK    4  A    between atoms: C_13  and  C_14
REMARK    5  A    between atoms: N_16  and  C_17
REMARK    6  A    between atoms: C_17  and  C_18
REMARK    7  A    between atoms: N_20  and  C_21
REMARK    8  A    between atoms: C_21  and  C_22
REMARK    9  A    between atoms: C_22  and  C_23
REMARK   10  A    between atoms: C_23  and  N_24
REMARK   11  A    between atoms: N_24  and  C_25
REMARK   12  A    between atoms: C_39  and  C_40
REMARK                            x       y       z     vdW  Elec       q    Type
REMARK                         _______ _______ _______ _____ _____    ______ ____
ROOT
ATOM      1  C   UNL A   1      44.383 -18.256 -34.852  0.00  0.00    +0.230 C 
ATOM      2  O   UNL A   1      44.895 -18.304 -33.733  0.00  0.00    -0.274 OA
ATOM      3  N   UNL A   1      45.118 -18.027 -35.994  0.00  0.00    -0.314 N 
ATOM      4  H   UNL A   1      44.663 -18.059 -36.867  0.00  0.00    +0.000 HD
ENDROOT
BRANCH   1   5
ATOM      5  C   UNL A   1      42.857 -18.241 -35.034  0.00  0.00    +0.088 C 
BRANCH   5   8
ATOM      6  C   UNL A   1      42.316 -20.391 -36.157  0.00  0.00    +0.246 C 
ATOM      7  O   UNL A   1      42.490 -21.061 -35.144  0.00  0.00    -0.270 OA
ATOM      8  N   UNL A   1      42.308 -19.016 -36.138  0.00  0.00    -0.303 N 
ATOM      9  H   UNL A   1      41.915 -18.535 -36.902  0.00  0.00    +0.000 HD
BRANCH   6  15
ATOM     10  C   UNL A   1      41.033 -22.018 -37.650  0.00  0.00    +0.044 A 
ATOM     11  C   UNL A   1      40.835 -22.539 -38.941  0.00  0.00    -0.040 A 
ATOM     12  C   UNL A   1      41.655 -22.162 -40.007  0.00  0.00    -0.060 A 
ATOM     13  C   UNL A   1      42.666 -21.227 -39.810  0.00  0.00    -0.061 A 
ATOM     14  C   UNL A   1      42.856 -20.666 -38.548  0.00  0.00    -0.048 A 
ATOM     15  C   UNL A   1      42.046 -21.052 -37.467  0.00  0.00    +0.058 A 
BRANCH  10  16
ATOM     16  N   UNL A   1      40.099 -22.304 -36.611  0.00  0.00    -0.314 N 
ATOM     17  H   UNL A   1      40.136 -23.210 -36.228  0.00  0.00    +0.000 HD
BRANCH  16  23
ATOM     18  C   UNL A   1      36.914 -21.013 -32.936  0.00  0.00    -0.039 C 
ATOM     19  C   UNL A   1      37.541 -20.816 -34.292  0.00  0.00    -0.046 A 
ATOM     20  C   UNL A   1      37.107 -19.734 -35.072  0.00  0.00    -0.058 A 
ATOM     21  C   UNL A   1      37.634 -19.516 -36.339  0.00  0.00    -0.060 A 
ATOM     22  C   UNL A   1      38.622 -20.362 -36.833  0.00  0.00    -0.040 A 
ATOM     23  C   UNL A   1      39.120 -21.426 -36.064  0.00  0.00    +0.035 A 
ATOM     24  C   UNL A   1      38.523 -21.701 -34.806  0.00  0.00    -0.026 A 
ATOM     25  C   UNL A   1      38.963 -22.902 -34.002  0.00  0.00    -0.038 C 
ENDBRANCH  16  23
ENDBRANCH  10  16
ENDBRANCH   6  15
ENDBRANCH   5   8
ENDBRANCH   1   5
BRANCH   3  26
ATOM     26  C   UNL A   1      46.534 -17.743 -35.954  0.00  0.00    +0.013 C 
BRANCH  26  27
ATOM     27  C   UNL A   1      47.391 -18.978 -36.212  0.00  0.00    -0.022 C 
BRANCH  27  28
ATOM     28  C   UNL A   1      46.877 -19.731 -37.437  0.00  0.00    +0.011 C 
BRANCH  28  29
ATOM     29  N   UNL A   1      47.604 -19.283 -38.634  0.00  0.00    -0.343 N 
ATOM     30  H   UNL A   1      48.482 -18.839 -38.614  0.00  0.00    +0.000 HD
BRANCH  29  31
ATOM     31  C   UNL A   1      46.876 -19.574 -39.828  0.00  0.00    +0.041 A 
ATOM     32  C   UNL A   1      47.007 -20.823 -40.468  0.00  0.00    -0.005 A 
ATOM     33  C   UNL A   1      46.150 -21.091 -41.541  0.00  0.00    +0.047 A 
ATOM     34  N   UNL A   1      45.238 -20.205 -42.007  0.00  0.00    -0.251 NA
ATOM     35  C   UNL A   1      45.127 -19.011 -41.408  0.00  0.00    +0.073 A 
ATOM     36  C   UNL A   1      44.186 -18.114 -41.898  0.00  0.00    -0.036 A 
ATOM     37  C   UNL A   1      44.006 -16.848 -41.335  0.00  0.00    -0.060 A 
ATOM     38  C   UNL A   1      44.789 -16.462 -40.257  0.00  0.00    -0.061 A 
ATOM     39  C   UNL A   1      45.739 -17.346 -39.750  0.00  0.00    -0.051 A 
ATOM     40  C   UNL A   1      45.920 -18.635 -40.308  0.00  0.00    +0.021 A 
ATOM     41  C   UNL A   1      46.209 -22.392 -42.301  0.00  0.00    -0.010 C 
ATOM     42  C   UNL A   1      46.874 -23.517 -41.517  0.00  0.00    -0.047 C 
ATOM     43  C   UNL A   1      48.199 -23.031 -40.953  0.00  0.00    -0.049 C 
ATOM     44  C   UNL A   1      47.977 -21.874 -39.980  0.00  0.00    -0.024 C 
ENDBRANCH  29  31
ENDBRANCH  28  29
ENDBRANCH  27  28
ENDBRANCH  26  27
ENDBRANCH   3  26
TORSDOF 10
ENDMDL
MODEL 7
REMARK VINA RESULT:    -6.962     18.242     21.698
REMARK INTER + INTRA:         -15.799
REMARK INTER:                 -11.307
REMARK INTRA:                  -4.492
REMARK UNBOUND:                -4.766
REMARK  Name = cpd29.pdb
REMARK  12 active torsions:
REMARK  status: ('A' for Active; 'I' for Inactive)
REMARK    1  A    between atoms: C_1  and  C_2
REMARK    2  A    between atoms: C_6  and  N_7
REMARK    3  A    between atoms: N_7  and  C_8
REMARK    4  A    between atoms: C_13  and  C_14
REMARK    5  A    between atoms: N_16  and  C_17
REMARK    6  A    between atoms: C_17  and  C_18
REMARK    7  A    between atoms: N_20  and  C_21
REMARK    8  A    between atoms: C_21  and  C_22
REMARK    9  A    between atoms: C_22  and  C_23
REMARK   10  A    between atoms: C_23  and  N_24
REMARK   11  A    between atoms: N_24  and  C_25
REMARK   12  A    between atoms: C_39  and  C_40
REMARK                            x       y       z     vdW  Elec       q    Type
REMARK                         _______ _______ _______ _____ _____    ______ ____
ROOT
ATOM      1  C   UNL A   1      45.935 -18.751 -34.887  0.00  0.00    +0.230 C 
ATOM      2  O   UNL A   1      45.977 -17.529 -34.737  0.00  0.00    -0.274 OA
ATOM      3  N   UNL A   1      44.894 -19.520 -34.416  0.00  0.00    -0.314 N 
ATOM      4  H   UNL A   1      44.886 -20.484 -34.617  0.00  0.00    +0.000 HD
ENDROOT
BRANCH   1   5
ATOM      5  C   UNL A   1      47.143 -19.532 -35.428  0.00  0.00    +0.088 C 
BRANCH   5   8
ATOM      6  C   UNL A   1      47.003 -19.628 -37.906  0.00  0.00    +0.246 C 
ATOM      7  O   UNL A   1      47.485 -18.510 -38.061  0.00  0.00    -0.270 OA
ATOM      8  N   UNL A   1      46.966 -20.252 -36.681  0.00  0.00    -0.303 N 
ATOM      9  H   UNL A   1      46.815 -21.224 -36.650  0.00  0.00    +0.000 HD
BRANCH   6  15
ATOM     10  C   UNL A   1      45.470 -19.899 -39.931  0.00  0.00    +0.044 A 
ATOM     11  C   UNL A   1      45.083 -20.688 -41.030  0.00  0.00    -0.040 A 
ATOM     12  C   UNL A   1      45.631 -21.956 -41.238  0.00  0.00    -0.060 A 
ATOM     13  C   UNL A   1      46.603 -22.445 -40.371  0.00  0.00    -0.061 A 
ATOM     14  C   UNL A   1      47.032 -21.665 -39.298  0.00  0.00    -0.048 A 
ATOM     15  C   UNL A   1      46.475 -20.395 -39.073  0.00  0.00    +0.058 A 
BRANCH  10  16
ATOM     16  N   UNL A   1      45.008 -18.555 -39.817  0.00  0.00    -0.314 N 
ATOM     17  H   UNL A   1      45.591 -17.859 -40.198  0.00  0.00    +0.000 HD
BRANCH  16  23
ATOM     18  C   UNL A   1      40.716 -15.935 -39.993  0.00  0.00    -0.039 C 
ATOM     19  C   UNL A   1      41.726 -16.801 -39.284  0.00  0.00    -0.046 A 
ATOM     20  C   UNL A   1      41.479 -17.148 -37.948  0.00  0.00    -0.058 A 
ATOM     21  C   UNL A   1      42.386 -17.926 -37.238  0.00  0.00    -0.060 A 
ATOM     22  C   UNL A   1      43.540 -18.388 -37.863  0.00  0.00    -0.040 A 
ATOM     23  C   UNL A   1      43.799 -18.106 -39.213  0.00  0.00    +0.035 A 
ATOM     24  C   UNL A   1      42.917 -17.242 -39.914  0.00  0.00    -0.026 A 
ATOM     25  C   UNL A   1      43.225 -16.833 -41.336  0.00  0.00    -0.038 C 
ENDBRANCH  16  23
ENDBRANCH  10  16
ENDBRANCH   6  15
ENDBRANCH   5   8
ENDBRANCH   1   5
BRANCH   3  26
ATOM     26  C   UNL A   1      43.814 -18.960 -33.637  0.00  0.00    +0.013 C 
BRANCH  26  27
ATOM     27  C   UNL A   1      42.532 -19.782 -33.731  0.00  0.00    -0.022 C 
BRANCH  27  28
ATOM     28  C   UNL A   1      42.668 -20.850 -34.813  0.00  0.00    +0.011 C 
BRANCH  28  29
ATOM     29  N   UNL A   1      41.464 -21.694 -34.828  0.00  0.00    -0.343 N 
ATOM     30  H   UNL A   1      41.347 -22.502 -34.279  0.00  0.00    +0.000 HD
BRANCH  29  31
ATOM     31  C   UNL A   1      40.484 -21.193 -35.739  0.00  0.00    +0.041 A 
ATOM     32  C   UNL A   1      39.272 -20.646 -35.270  0.00  0.00    -0.005 A 
ATOM     33  C   UNL A   1      38.433 -20.038 -36.208  0.00  0.00    +0.047 A 
ATOM     34  N   UNL A   1      38.711 -19.981 -37.532  0.00  0.00    -0.251 NA
ATOM     35  C   UNL A   1      39.856 -20.516 -37.980  0.00  0.00    +0.073 A 
ATOM     36  C   UNL A   1      40.126 -20.449 -39.340  0.00  0.00    -0.036 A 
ATOM     37  C   UNL A   1      41.294 -20.983 -39.891  0.00  0.00    -0.060 A 
ATOM     38  C   UNL A   1      42.216 -21.607 -39.064  0.00  0.00    -0.061 A 
ATOM     39  C   UNL A   1      41.964 -21.686 -37.696  0.00  0.00    -0.051 A 
ATOM     40  C   UNL A   1      40.789 -21.138 -37.128  0.00  0.00    +0.021 A 
ATOM     41  C   UNL A   1      37.111 -19.428 -35.816  0.00  0.00    -0.010 C 
ATOM     42  C   UNL A   1      37.022 -19.087 -34.334  0.00  0.00    -0.047 C 
ATOM     43  C   UNL A   1      37.456 -20.287 -33.508  0.00  0.00    -0.049 C 
ATOM     44  C   UNL A   1      38.914 -20.642 -33.802  0.00  0.00    -0.024 C 
ENDBRANCH  29  31
ENDBRANCH  28  29
ENDBRANCH  27  28
ENDBRANCH  26  27
ENDBRANCH   3  26
TORSDOF 10
ENDMDL
MODEL 8
REMARK VINA RESULT:    -6.960     17.802     21.965
REMARK INTER + INTRA:         -15.796
REMARK INTER:                 -13.309
REMARK INTRA:                  -2.487
REMARK UNBOUND:                -4.766
REMARK  Name = cpd29.pdb
REMARK  12 active torsions:
REMARK  status: ('A' for Active; 'I' for Inactive)
REMARK    1  A    between atoms: C_1  and  C_2
REMARK    2  A    between atoms: C_6  and  N_7
REMARK    3  A    between atoms: N_7  and  C_8
REMARK    4  A    between atoms: C_13  and  C_14
REMARK    5  A    between atoms: N_16  and  C_17
REMARK    6  A    between atoms: C_17  and  C_18
REMARK    7  A    between atoms: N_20  and  C_21
REMARK    8  A    between atoms: C_21  and  C_22
REMARK    9  A    between atoms: C_22  and  C_23
REMARK   10  A    between atoms: C_23  and  N_24
REMARK   11  A    between atoms: N_24  and  C_25
REMARK   12  A    between atoms: C_39  and  C_40
REMARK                            x       y       z     vdW  Elec       q    Type
REMARK                         _______ _______ _______ _____ _____    ______ ____
ROOT
ATOM      1  C   UNL A   1      45.163 -17.759 -33.759  0.00  0.00    +0.230 C 
ATOM      2  O   UNL A   1      45.040 -18.608 -32.875  0.00  0.00    -0.274 OA
ATOM      3  N   UNL A   1      44.091 -17.059 -34.267  0.00  0.00    -0.314 N 
ATOM      4  H   UNL A   1      44.257 -16.351 -34.931  0.00  0.00    +0.000 HD
ENDROOT
BRANCH   1   5
ATOM      5  C   UNL A   1      46.492 -17.568 -34.506  0.00  0.00    +0.088 C 
BRANCH   5   8
ATOM      6  C   UNL A   1      46.731 -17.947 -36.950  0.00  0.00    +0.246 C 
ATOM      7  O   UNL A   1      46.782 -19.168 -36.841  0.00  0.00    -0.270 OA
ATOM      8  N   UNL A   1      46.422 -17.125 -35.891  0.00  0.00    -0.303 N 
ATOM      9  H   UNL A   1      46.143 -16.199 -36.077  0.00  0.00    +0.000 HD
BRANCH   6  15
ATOM     10  C   UNL A   1      46.506 -17.847 -39.493  0.00  0.00    +0.044 A 
ATOM     11  C   UNL A   1      46.728 -17.119 -40.676  0.00  0.00    -0.040 A 
ATOM     12  C   UNL A   1      47.424 -15.908 -40.660  0.00  0.00    -0.060 A 
ATOM     13  C   UNL A   1      47.881 -15.384 -39.455  0.00  0.00    -0.061 A 
ATOM     14  C   UNL A   1      47.638 -16.067 -38.265  0.00  0.00    -0.048 A 
ATOM     15  C   UNL A   1      46.953 -17.293 -38.273  0.00  0.00    +0.058 A 
BRANCH  10  16
ATOM     16  N   UNL A   1      45.672 -19.004 -39.508  0.00  0.00    -0.314 N 
ATOM     17  H   UNL A   1      45.102 -19.142 -38.717  0.00  0.00    +0.000 HD
BRANCH  16  23
ATOM     18  C   UNL A   1      47.099 -23.354 -41.596  0.00  0.00    -0.039 C 
ATOM     19  C   UNL A   1      46.292 -22.082 -41.577  0.00  0.00    -0.046 A 
ATOM     20  C   UNL A   1      45.426 -21.830 -42.651  0.00  0.00    -0.058 A 
ATOM     21  C   UNL A   1      44.674 -20.662 -42.698  0.00  0.00    -0.060 A 
ATOM     22  C   UNL A   1      44.757 -19.743 -41.657  0.00  0.00    -0.040 A 
ATOM     23  C   UNL A   1      45.572 -19.981 -40.539  0.00  0.00    +0.035 A 
ATOM     24  C   UNL A   1      46.405 -21.131 -40.530  0.00  0.00    -0.026 A 
ATOM     25  C   UNL A   1      47.371 -21.361 -39.392  0.00  0.00    -0.038 C 
ENDBRANCH  16  23
ENDBRANCH  10  16
ENDBRANCH   6  15
ENDBRANCH   5   8
ENDBRANCH   1   5
BRANCH   3  26
ATOM     26  C   UNL A   1      42.732 -17.329 -33.859  0.00  0.00    +0.013 C 
BRANCH  26  27
ATOM     27  C   UNL A   1      41.860 -17.828 -35.007  0.00  0.00    -0.022 C 
BRANCH  27  28
ATOM     28  C   UNL A   1      41.070 -19.060 -34.573  0.00  0.00    +0.011 C 
BRANCH  28  29
ATOM     29  N   UNL A   1      41.903 -20.261 -34.730  0.00  0.00    -0.343 N 
ATOM     30  H   UNL A   1      42.800 -20.368 -34.340  0.00  0.00    +0.000 HD
BRANCH  29  31
ATOM     31  C   UNL A   1      41.247 -21.255 -35.520  0.00  0.00    +0.041 A 
ATOM     32  C   UNL A   1      40.332 -22.155 -34.935  0.00  0.00    -0.005 A 
ATOM     33  C   UNL A   1      39.615 -22.995 -35.793  0.00  0.00    +0.047 A 
ATOM     34  N   UNL A   1      39.782 -23.006 -37.137  0.00  0.00    -0.251 NA
ATOM     35  C   UNL A   1      40.665 -22.162 -37.690  0.00  0.00    +0.073 A 
ATOM     36  C   UNL A   1      40.823 -22.186 -39.070  0.00  0.00    -0.036 A 
ATOM     37  C   UNL A   1      41.722 -21.343 -39.727  0.00  0.00    -0.060 A 
ATOM     38  C   UNL A   1      42.489 -20.453 -38.989  0.00  0.00    -0.061 A 
ATOM     39  C   UNL A   1      42.346 -20.413 -37.604  0.00  0.00    -0.051 A 
ATOM     40  C   UNL A   1      41.429 -21.257 -36.931  0.00  0.00    +0.021 A 
ATOM     41  C   UNL A   1      38.618 -23.998 -35.274  0.00  0.00    -0.010 C 
ATOM     42  C   UNL A   1      38.108 -23.673 -33.876  0.00  0.00    -0.047 C 
ATOM     43  C   UNL A   1      39.285 -23.390 -32.958  0.00  0.00    -0.049 C 
ATOM     44  C   UNL A   1      40.068 -22.172 -33.448  0.00  0.00    -0.024 C 
ENDBRANCH  29  31
ENDBRANCH  28  29
ENDBRANCH  27  28
ENDBRANCH  26  27
ENDBRANCH   3  26
TORSDOF 10
ENDMDL
MODEL 9
REMARK VINA RESULT:    -6.853     18.274     21.382
REMARK INTER + INTRA:         -15.626
REMARK INTER:                 -10.721
REMARK INTRA:                  -4.905
REMARK UNBOUND:                -4.766
REMARK  Name = cpd29.pdb
REMARK  12 active torsions:
REMARK  status: ('A' for Active; 'I' for Inactive)
REMARK    1  A    between atoms: C_1  and  C_2
REMARK    2  A    between atoms: C_6  and  N_7
REMARK    3  A    between atoms: N_7  and  C_8
REMARK    4  A    between atoms: C_13  and  C_14
REMARK    5  A    between atoms: N_16  and  C_17
REMARK    6  A    between atoms: C_17  and  C_18
REMARK    7  A    between atoms: N_20  and  C_21
REMARK    8  A    between atoms: C_21  and  C_22
REMARK    9  A    between atoms: C_22  and  C_23
REMARK   10  A    between atoms: C_23  and  N_24
REMARK   11  A    between atoms: N_24  and  C_25
REMARK   12  A    between atoms: C_39  and  C_40
REMARK                            x       y       z     vdW  Elec       q    Type
REMARK                         _______ _______ _______ _____ _____    ______ ____
ROOT
ATOM      1  C   UNL A   1      44.903 -19.138 -33.891  0.00  0.00    +0.230 C 
ATOM      2  O   UNL A   1      45.263 -20.306 -34.043  0.00  0.00    -0.274 OA
ATOM      3  N   UNL A   1      45.644 -18.070 -34.345  0.00  0.00    -0.314 N 
ATOM      4  H   UNL A   1      45.278 -17.161 -34.247  0.00  0.00    +0.000 HD
ENDROOT
BRANCH   1   5
ATOM      5  C   UNL A   1      43.704 -18.780 -33.000  0.00  0.00    +0.088 C 
BRANCH   5   8
ATOM      6  C   UNL A   1      41.371 -18.561 -33.826  0.00  0.00    +0.246 C 
ATOM      7  O   UNL A   1      41.539 -17.423 -34.254  0.00  0.00    -0.270 OA
ATOM      8  N   UNL A   1      42.409 -19.337 -33.365  0.00  0.00    -0.303 N 
ATOM      9  H   UNL A   1      42.272 -20.308 -33.280  0.00  0.00    +0.000 HD
BRANCH   6  15
ATOM     10  C   UNL A   1      39.287 -19.427 -35.024  0.00  0.00    +0.044 A 
ATOM     11  C   UNL A   1      38.038 -20.064 -34.920  0.00  0.00    -0.040 A 
ATOM     12  C   UNL A   1      37.496 -20.395 -33.675  0.00  0.00    -0.060 A 
ATOM     13  C   UNL A   1      38.211 -20.129 -32.512  0.00  0.00    -0.061 A 
ATOM     14  C   UNL A   1      39.469 -19.534 -32.592  0.00  0.00    -0.048 A 
ATOM     15  C   UNL A   1      40.014 -19.183 -33.838  0.00  0.00    +0.058 A 
BRANCH  10  16
ATOM     16  N   UNL A   1      39.886 -19.227 -36.302  0.00  0.00    -0.314 N 
ATOM     17  H   UNL A   1      39.772 -18.335 -36.704  0.00  0.00    +0.000 HD
BRANCH  16  23
ATOM     18  C   UNL A   1      41.069 -21.380 -40.694  0.00  0.00    -0.039 C 
ATOM     19  C   UNL A   1      41.180 -21.247 -39.197  0.00  0.00    -0.046 A 
ATOM     20  C   UNL A   1      42.031 -22.130 -38.515  0.00  0.00    -0.058 A 
ATOM     21  C   UNL A   1      42.157 -22.069 -37.133  0.00  0.00    -0.060 A 
ATOM     22  C   UNL A   1      41.452 -21.107 -36.415  0.00  0.00    -0.040 A 
ATOM     23  C   UNL A   1      40.630 -20.173 -37.064  0.00  0.00    +0.035 A 
ATOM     24  C   UNL A   1      40.435 -20.288 -38.466  0.00  0.00    -0.026 A 
ATOM     25  C   UNL A   1      39.473 -19.366 -39.177  0.00  0.00    -0.038 C 
ENDBRANCH  16  23
ENDBRANCH  10  16
ENDBRANCH   6  15
ENDBRANCH   5   8
ENDBRANCH   1   5
BRANCH   3  26
ATOM     26  C   UNL A   1      46.941 -18.238 -34.960  0.00  0.00    +0.013 C 
BRANCH  26  27
ATOM     27  C   UNL A   1      46.895 -18.099 -36.478  0.00  0.00    -0.022 C 
BRANCH  27  28
ATOM     28  C   UNL A   1      46.945 -19.476 -37.136  0.00  0.00    +0.011 C 
BRANCH  28  29
ATOM     29  N   UNL A   1      45.599 -20.068 -37.147  0.00  0.00    -0.343 N 
ATOM     30  H   UNL A   1      45.202 -20.554 -36.389  0.00  0.00    +0.000 HD
BRANCH  29  31
ATOM     31  C   UNL A   1      44.941 -19.848 -38.396  0.00  0.00    +0.041 A 
ATOM     32  C   UNL A   1      44.021 -18.791 -38.551  0.00  0.00    -0.005 A 
ATOM     33  C   UNL A   1      43.534 -18.543 -39.839  0.00  0.00    +0.047 A 
ATOM     34  N   UNL A   1      43.876 -19.283 -40.920  0.00  0.00    -0.251 NA
ATOM     35  C   UNL A   1      44.737 -20.299 -40.768  0.00  0.00    +0.073 A 
ATOM     36  C   UNL A   1      45.077 -21.047 -41.887  0.00  0.00    -0.036 A 
ATOM     37  C   UNL A   1      45.965 -22.123 -41.817  0.00  0.00    -0.060 A 
ATOM     38  C   UNL A   1      46.527 -22.468 -40.597  0.00  0.00    -0.061 A 
ATOM     39  C   UNL A   1      46.199 -21.731 -39.461  0.00  0.00    -0.051 A 
ATOM     40  C   UNL A   1      45.308 -20.631 -39.525  0.00  0.00    +0.021 A 
ATOM     41  C   UNL A   1      42.542 -17.443 -40.117  0.00  0.00    -0.010 C 
ATOM     42  C   UNL A   1      42.523 -16.364 -39.041  0.00  0.00    -0.047 C 
ATOM     43  C   UNL A   1      42.411 -17.012 -37.671  0.00  0.00    -0.049 C 
ATOM     44  C   UNL A   1      43.623 -17.901 -37.397  0.00  0.00    -0.024 C 
ENDBRANCH  29  31
ENDBRANCH  28  29
ENDBRANCH  27  28
ENDBRANCH  26  27
ENDBRANCH   3  26
TORSDOF 10
ENDMDL
MODEL 10
REMARK VINA RESULT:    -6.846      2.061      5.620
REMARK INTER + INTRA:         -15.615
REMARK INTER:                 -12.068
REMARK INTRA:                  -3.547
REMARK UNBOUND:                -4.766
REMARK  Name = cpd29.pdb
REMARK  12 active torsions:
REMARK  status: ('A' for Active; 'I' for Inactive)
REMARK    1  A    between atoms: C_1  and  C_2
REMARK    2  A    between atoms: C_6  and  N_7
REMARK    3  A    between atoms: N_7  and  C_8
REMARK    4  A    between atoms: C_13  and  C_14
REMARK    5  A    between atoms: N_16  and  C_17
REMARK    6  A    between atoms: C_17  and  C_18
REMARK    7  A    between atoms: N_20  and  C_21
REMARK    8  A    between atoms: C_21  and  C_22
REMARK    9  A    between atoms: C_22  and  C_23
REMARK   10  A    between atoms: C_23  and  N_24
REMARK   11  A    between atoms: N_24  and  C_25
REMARK   12  A    between atoms: C_39  and  C_40
REMARK                            x       y       z     vdW  Elec       q    Type
REMARK                         _______ _______ _______ _____ _____    ______ ____
ROOT
ATOM      1  C   UNL A   1      30.752 -35.760 -28.004  0.00  0.00    +0.230 C 
ATOM      2  O   UNL A   1      29.891 -36.561 -27.640  0.00  0.00    -0.274 OA
ATOM      3  N   UNL A   1      30.453 -34.638 -28.745  0.00  0.00    -0.314 N 
ATOM      4  H   UNL A   1      31.174 -34.002 -28.958  0.00  0.00    +0.000 HD
ENDROOT
BRANCH   1   5
ATOM      5  C   UNL A   1      32.249 -36.062 -27.837  0.00  0.00    +0.088 C 
BRANCH   5   8
ATOM      6  C   UNL A   1      34.074 -37.652 -28.397  0.00  0.00    +0.246 C 
ATOM      7  O   UNL A   1      34.746 -37.361 -27.413  0.00  0.00    -0.270 OA
ATOM      8  N   UNL A   1      32.789 -37.194 -28.575  0.00  0.00    -0.303 N 
ATOM      9  H   UNL A   1      32.211 -37.651 -29.229  0.00  0.00    +0.000 HD
BRANCH   6  15
ATOM     10  C   UNL A   1      35.773 -38.298 -30.192  0.00  0.00    +0.044 A 
ATOM     11  C   UNL A   1      36.219 -39.265 -31.111  0.00  0.00    -0.040 A 
ATOM     12  C   UNL A   1      35.504 -40.446 -31.321  0.00  0.00    -0.060 A 
ATOM     13  C   UNL A   1      34.349 -40.700 -30.589  0.00  0.00    -0.061 A 
ATOM     14  C   UNL A   1      33.909 -39.775 -29.644  0.00  0.00    -0.048 A 
ATOM     15  C   UNL A   1      34.613 -38.578 -29.437  0.00  0.00    +0.058 A 
BRANCH  10  16
ATOM     16  N   UNL A   1      36.589 -37.169 -29.887  0.00  0.00    -0.314 N 
ATOM     17  H   UNL A   1      36.118 -36.354 -29.599  0.00  0.00    +0.000 HD
BRANCH  16  23
ATOM     18  C   UNL A   1      40.802 -35.463 -32.045  0.00  0.00    -0.039 C 
ATOM     19  C   UNL A   1      40.063 -36.288 -31.023  0.00  0.00    -0.046 A 
ATOM     20  C   UNL A   1      40.815 -37.047 -30.114  0.00  0.00    -0.058 A 
ATOM     21  C   UNL A   1      40.187 -37.843 -29.164  0.00  0.00    -0.060 A 
ATOM     22  C   UNL A   1      38.798 -37.871 -29.094  0.00  0.00    -0.040 A 
ATOM     23  C   UNL A   1      38.010 -37.088 -29.951  0.00  0.00    +0.035 A 
ATOM     24  C   UNL A   1      38.647 -36.340 -30.976  0.00  0.00    -0.026 A 
ATOM     25  C   UNL A   1      37.821 -35.572 -31.981  0.00  0.00    -0.038 C 
ENDBRANCH  16  23
ENDBRANCH  10  16
ENDBRANCH   6  15
ENDBRANCH   5   8
ENDBRANCH   1   5
BRANCH   3  26
ATOM     26  C   UNL A   1      29.117 -34.363 -29.222  0.00  0.00    +0.013 C 
BRANCH  26  27
ATOM     27  C   UNL A   1      29.018 -34.387 -30.744  0.00  0.00    -0.022 C 
BRANCH  27  28
ATOM     28  C   UNL A   1      29.743 -33.183 -31.340  0.00  0.00    +0.011 C 
BRANCH  28  29
ATOM     29  N   UNL A   1      30.454 -33.588 -32.561  0.00  0.00    -0.343 N 
ATOM     30  H   UNL A   1      30.134 -33.405 -33.474  0.00  0.00    +0.000 HD
BRANCH  29  31
ATOM     31  C   UNL A   1      31.665 -34.281 -32.257  0.00  0.00    +0.041 A 
ATOM     32  C   UNL A   1      32.650 -33.691 -31.438  0.00  0.00    -0.005 A 
ATOM     33  C   UNL A   1      33.736 -34.486 -31.058  0.00  0.00    +0.047 A 
ATOM     34  N   UNL A   1      33.899 -35.768 -31.463  0.00  0.00    -0.251 NA
ATOM     35  C   UNL A   1      32.971 -36.323 -32.256  0.00  0.00    +0.073 A 
ATOM     36  C   UNL A   1      33.153 -37.639 -32.661  0.00  0.00    -0.036 A 
ATOM     37  C   UNL A   1      32.236 -38.293 -33.488  0.00  0.00    -0.060 A 
ATOM     38  C   UNL A   1      31.108 -37.616 -33.928  0.00  0.00    -0.061 A 
ATOM     39  C   UNL A   1      30.906 -36.295 -33.534  0.00  0.00    -0.051 A 
ATOM     40  C   UNL A   1      31.825 -35.628 -32.687  0.00  0.00    +0.021 A 
ATOM     41  C   UNL A   1      34.848 -33.953 -30.192  0.00  0.00    -0.010 C 
ATOM     42  C   UNL A   1      34.447 -32.723 -29.387  0.00  0.00    -0.047 C 
ATOM     43  C   UNL A   1      33.792 -31.705 -30.305  0.00  0.00    -0.049 C 
ATOM     44  C   UNL A   1      32.515 -32.278 -30.919  0.00  0.00    -0.024 C 
ENDBRANCH  29  31
ENDBRANCH  28  29
ENDBRANCH  27  28
ENDBRANCH  26  27
ENDBRANCH   3  26
TORSDOF 10
ENDMDL
MODEL 11
REMARK VINA RESULT:    -6.632      2.218      7.006
REMARK INTER + INTRA:         -15.276
REMARK INTER:                 -12.799
REMARK INTRA:                  -2.477
REMARK UNBOUND:                -4.766
REMARK  Name = cpd29.pdb
REMARK  12 active torsions:
REMARK  status: ('A' for Active; 'I' for Inactive)
REMARK    1  A    between atoms: C_1  and  C_2
REMARK    2  A    between atoms: C_6  and  N_7
REMARK    3  A    between atoms: N_7  and  C_8
REMARK    4  A    between atoms: C_13  and  C_14
REMARK    5  A    between atoms: N_16  and  C_17
REMARK    6  A    between atoms: C_17  and  C_18
REMARK    7  A    between atoms: N_20  and  C_21
REMARK    8  A    between atoms: C_21  and  C_22
REMARK    9  A    between atoms: C_22  and  C_23
REMARK   10  A    between atoms: C_23  and  N_24
REMARK   11  A    between atoms: N_24  and  C_25
REMARK   12  A    between atoms: C_39  and  C_40
REMARK                            x       y       z     vdW  Elec       q    Type
REMARK                         _______ _______ _______ _____ _____    ______ ____
ROOT
ATOM      1  C   UNL A   1      34.100 -40.939 -33.000  0.00  0.00    +0.230 C 
ATOM      2  O   UNL A   1      34.066 -41.556 -34.065  0.00  0.00    -0.274 OA
ATOM      3  N   UNL A   1      33.096 -40.083 -32.606  0.00  0.00    -0.314 N 
ATOM      4  H   UNL A   1      33.150 -39.663 -31.717  0.00  0.00    +0.000 HD
ENDROOT
BRANCH   1   5
ATOM      5  C   UNL A   1      35.365 -40.920 -32.127  0.00  0.00    +0.088 C 
BRANCH   5   8
ATOM      6  C   UNL A   1      35.877 -40.240 -29.793  0.00  0.00    +0.246 C 
ATOM      7  O   UNL A   1      36.544 -41.242 -29.557  0.00  0.00    -0.270 OA
ATOM      8  N   UNL A   1      35.423 -39.936 -31.055  0.00  0.00    -0.303 N 
ATOM      9  H   UNL A   1      35.125 -39.017 -31.242  0.00  0.00    +0.000 HD
BRANCH   6  15
ATOM     10  C   UNL A   1      36.209 -38.006 -28.598  0.00  0.00    +0.044 A 
ATOM     11  C   UNL A   1      35.805 -37.142 -27.565  0.00  0.00    -0.040 A 
ATOM     12  C   UNL A   1      34.840 -37.531 -26.632  0.00  0.00    -0.060 A 
ATOM     13  C   UNL A   1      34.234 -38.779 -26.738  0.00  0.00    -0.061 A 
ATOM     14  C   UNL A   1      34.589 -39.637 -27.777  0.00  0.00    -0.048 A 
ATOM     15  C   UNL A   1      35.570 -39.260 -28.709  0.00  0.00    +0.058 A 
BRANCH  10  16
ATOM     16  N   UNL A   1      37.086 -37.540 -29.621  0.00  0.00    -0.314 N 
ATOM     17  H   UNL A   1      36.660 -37.155 -30.421  0.00  0.00    +0.000 HD
BRANCH  16  23
ATOM     18  C   UNL A   1      41.516 -36.216 -31.606  0.00  0.00    -0.039 C 
ATOM     19  C   UNL A   1      40.668 -36.954 -30.603  0.00  0.00    -0.046 A 
ATOM     20  C   UNL A   1      41.316 -37.739 -29.638  0.00  0.00    -0.058 A 
ATOM     21  C   UNL A   1      40.584 -38.459 -28.702  0.00  0.00    -0.060 A 
ATOM     22  C   UNL A   1      39.195 -38.382 -28.700  0.00  0.00    -0.040 A 
ATOM     23  C   UNL A   1      38.511 -37.567 -29.615  0.00  0.00    +0.035 A 
ATOM     24  C   UNL A   1      39.251 -36.899 -30.626  0.00  0.00    -0.026 A 
ATOM     25  C   UNL A   1      38.536 -36.100 -31.690  0.00  0.00    -0.038 C 
ENDBRANCH  16  23
ENDBRANCH  10  16
ENDBRANCH   6  15
ENDBRANCH   5   8
ENDBRANCH   1   5
BRANCH   3  26
ATOM     26  C   UNL A   1      31.966 -39.781 -33.454  0.00  0.00    +0.013 C 
BRANCH  26  27
ATOM     27  C   UNL A   1      31.960 -38.334 -33.935  0.00  0.00    -0.022 C 
BRANCH  27  28
ATOM     28  C   UNL A   1      32.265 -37.390 -32.774  0.00  0.00    +0.011 C 
BRANCH  28  29
ATOM     29  N   UNL A   1      32.519 -36.037 -33.290  0.00  0.00    -0.343 N 
ATOM     30  H   UNL A   1      32.886 -35.845 -34.183  0.00  0.00    +0.000 HD
BRANCH  29  31
ATOM     31  C   UNL A   1      32.165 -35.036 -32.334  0.00  0.00    +0.041 A 
ATOM     32  C   UNL A   1      30.841 -34.562 -32.239  0.00  0.00    -0.005 A 
ATOM     33  C   UNL A   1      30.538 -33.699 -31.181  0.00  0.00    +0.047 A 
ATOM     34  N   UNL A   1      31.454 -33.278 -30.277  0.00  0.00    -0.251 NA
ATOM     35  C   UNL A   1      32.717 -33.716 -30.378  0.00  0.00    +0.073 A 
ATOM     36  C   UNL A   1      33.644 -33.275 -29.442  0.00  0.00    -0.036 A 
ATOM     37  C   UNL A   1      34.980 -33.680 -29.476  0.00  0.00    -0.060 A 
ATOM     38  C   UNL A   1      35.408 -34.545 -30.472  0.00  0.00    -0.061 A 
ATOM     39  C   UNL A   1      34.495 -34.999 -31.421  0.00  0.00    -0.051 A 
ATOM     40  C   UNL A   1      33.136 -34.602 -31.389  0.00  0.00    +0.021 A 
ATOM     41  C   UNL A   1      29.157 -33.128 -30.990  0.00  0.00    -0.010 C 
ATOM     42  C   UNL A   1      28.070 -33.934 -31.691  0.00  0.00    -0.047 C 
ATOM     43  C   UNL A   1      28.475 -34.191 -33.133  0.00  0.00    -0.049 C 
ATOM     44  C   UNL A   1      29.759 -35.018 -33.191  0.00  0.00    -0.024 C 
ENDBRANCH  29  31
ENDBRANCH  28  29
ENDBRANCH  27  28
ENDBRANCH  26  27
ENDBRANCH   3  26
TORSDOF 10
ENDMDL
MODEL 12
REMARK VINA RESULT:    -6.575     19.819     22.778
REMARK INTER + INTRA:         -15.186
REMARK INTER:                 -10.250
REMARK INTRA:                  -4.935
REMARK UNBOUND:                -4.766
REMARK  Name = cpd29.pdb
REMARK  12 active torsions:
REMARK  status: ('A' for Active; 'I' for Inactive)
REMARK    1  A    between atoms: C_1  and  C_2
REMARK    2  A    between atoms: C_6  and  N_7
REMARK    3  A    between atoms: N_7  and  C_8
REMARK    4  A    between atoms: C_13  and  C_14
REMARK    5  A    between atoms: N_16  and  C_17
REMARK    6  A    between atoms: C_17  and  C_18
REMARK    7  A    between atoms: N_20  and  C_21
REMARK    8  A    between atoms: C_21  and  C_22
REMARK    9  A    between atoms: C_22  and  C_23
REMARK   10  A    between atoms: C_23  and  N_24
REMARK   11  A    between atoms: N_24  and  C_25
REMARK   12  A    between atoms: C_39  and  C_40
REMARK                            x       y       z     vdW  Elec       q    Type
REMARK                         _______ _______ _______ _____ _____    ______ ____
ROOT
ATOM      1  C   UNL A   1      40.669 -14.649 -39.544  0.00  0.00    +0.230 C 
ATOM      2  O   UNL A   1      40.126 -13.685 -40.084  0.00  0.00    -0.274 OA
ATOM      3  N   UNL A   1      41.989 -14.975 -39.763  0.00  0.00    -0.314 N 
ATOM      4  H   UNL A   1      42.385 -15.722 -39.257  0.00  0.00    +0.000 HD
ENDROOT
BRANCH   1   5
ATOM      5  C   UNL A   1      39.857 -15.681 -38.745  0.00  0.00    +0.088 C 
BRANCH   5   8
ATOM      6  C   UNL A   1      40.353 -18.049 -38.179  0.00  0.00    +0.246 C 
ATOM      7  O   UNL A   1      40.227 -17.875 -36.970  0.00  0.00    -0.270 OA
ATOM      8  N   UNL A   1      40.024 -17.083 -39.101  0.00  0.00    -0.303 N 
ATOM      9  H   UNL A   1      39.896 -17.350 -40.040  0.00  0.00    +0.000 HD
BRANCH   6  15
ATOM     10  C   UNL A   1      42.190 -19.724 -38.766  0.00  0.00    +0.044 A 
ATOM     11  C   UNL A   1      42.518 -21.006 -39.242  0.00  0.00    -0.040 A 
ATOM     12  C   UNL A   1      41.532 -21.880 -39.707  0.00  0.00    -0.060 A 
ATOM     13  C   UNL A   1      40.194 -21.501 -39.671  0.00  0.00    -0.061 A 
ATOM     14  C   UNL A   1      39.840 -20.251 -39.166  0.00  0.00    -0.048 A 
ATOM     15  C   UNL A   1      40.826 -19.360 -38.711  0.00  0.00    +0.058 A 
BRANCH  10  16
ATOM     16  N   UNL A   1      43.190 -18.904 -38.164  0.00  0.00    -0.314 N 
ATOM     17  H   UNL A   1      43.596 -18.217 -38.740  0.00  0.00    +0.000 HD
BRANCH  16  23
ATOM     18  C   UNL A   1      44.479 -16.669 -33.845  0.00  0.00    -0.039 C 
ATOM     19  C   UNL A   1      44.330 -17.878 -34.732  0.00  0.00    -0.046 A 
ATOM     20  C   UNL A   1      44.718 -19.125 -34.222  0.00  0.00    -0.058 A 
ATOM     21  C   UNL A   1      44.623 -20.272 -35.002  0.00  0.00    -0.060 A 
ATOM     22  C   UNL A   1      44.114 -20.189 -36.294  0.00  0.00    -0.040 A 
ATOM     23  C   UNL A   1      43.666 -18.969 -36.823  0.00  0.00    +0.035 A 
ATOM     24  C   UNL A   1      43.841 -17.785 -36.060  0.00  0.00    -0.026 A 
ATOM     25  C   UNL A   1      43.469 -16.442 -36.643  0.00  0.00    -0.038 C 
ENDBRANCH  16  23
ENDBRANCH  10  16
ENDBRANCH   6  15
ENDBRANCH   5   8
ENDBRANCH   1   5
BRANCH   3  26
ATOM     26  C   UNL A   1      42.812 -14.259 -40.710  0.00  0.00    +0.013 C 
BRANCH  26  27
ATOM     27  C   UNL A   1      43.580 -15.189 -41.644  0.00  0.00    -0.022 C 
BRANCH  27  28
ATOM     28  C   UNL A   1      43.878 -16.512 -40.944  0.00  0.00    +0.011 C 
BRANCH  28  29
ATOM     29  N   UNL A   1      45.269 -16.909 -41.208  0.00  0.00    -0.343 N 
ATOM     30  H   UNL A   1      45.877 -16.427 -41.813  0.00  0.00    +0.000 HD
BRANCH  29  31
ATOM     31  C   UNL A   1      45.627 -18.083 -40.476  0.00  0.00    +0.041 A 
ATOM     32  C   UNL A   1      45.446 -19.366 -41.033  0.00  0.00    -0.005 A 
ATOM     33  C   UNL A   1      45.960 -20.456 -40.324  0.00  0.00    +0.047 A 
ATOM     34  N   UNL A   1      46.584 -20.340 -39.128  0.00  0.00    -0.251 NA
ATOM     35  C   UNL A   1      46.740 -19.122 -38.591  0.00  0.00    +0.073 A 
ATOM     36  C   UNL A   1      47.384 -19.020 -37.364  0.00  0.00    -0.036 A 
ATOM     37  C   UNL A   1      47.586 -17.790 -36.734  0.00  0.00    -0.060 A 
ATOM     38  C   UNL A   1      47.131 -16.628 -37.339  0.00  0.00    -0.061 A 
ATOM     39  C   UNL A   1      46.483 -16.707 -38.569  0.00  0.00    -0.051 A 
ATOM     40  C   UNL A   1      46.283 -17.949 -39.221  0.00  0.00    +0.021 A 
ATOM     41  C   UNL A   1      45.816 -21.870 -40.824  0.00  0.00    -0.010 C 
ATOM     42  C   UNL A   1      45.548 -21.955 -42.322  0.00  0.00    -0.047 C 
ATOM     43  C   UNL A   1      44.412 -21.015 -42.690  0.00  0.00    -0.049 C 
ATOM     44  C   UNL A   1      44.791 -19.567 -42.380  0.00  0.00    -0.024 C 
ENDBRANCH  29  31
ENDBRANCH  28  29
ENDBRANCH  27  28
ENDBRANCH  26  27
ENDBRANCH   3  26
TORSDOF 10
ENDMDL
MODEL 13
REMARK VINA RESULT:    -6.503     16.887     20.951
REMARK INTER + INTRA:         -15.071
REMARK INTER:                 -10.847
REMARK INTRA:                  -4.223
REMARK UNBOUND:                -4.766
REMARK  Name = cpd29.pdb
REMARK  12 active torsions:
REMARK  status: ('A' for Active; 'I' for Inactive)
REMARK    1  A    between atoms: C_1  and  C_2
REMARK    2  A    between atoms: C_6  and  N_7
REMARK    3  A    between atoms: N_7  and  C_8
REMARK    4  A    between atoms: C_13  and  C_14
REMARK    5  A    between atoms: N_16  and  C_17
REMARK    6  A    between atoms: C_17  and  C_18
REMARK    7  A    between atoms: N_20  and  C_21
REMARK    8  A    between atoms: C_21  and  C_22
REMARK    9  A    between atoms: C_22  and  C_23
REMARK   10  A    between atoms: C_23  and  N_24
REMARK   11  A    between atoms: N_24  and  C_25
REMARK   12  A    between atoms: C_39  and  C_40
REMARK                            x       y       z     vdW  Elec       q    Type
REMARK                         _______ _______ _______ _____ _____    ______ ____
ROOT
ATOM      1  C   UNL A   1      44.595 -17.492 -33.487  0.00  0.00    +0.230 C 
ATOM      2  O   UNL A   1      44.784 -16.357 -33.927  0.00  0.00    -0.274 OA
ATOM      3  N   UNL A   1      45.347 -18.575 -33.882  0.00  0.00    -0.314 N 
ATOM      4  H   UNL A   1      45.190 -19.446 -33.452  0.00  0.00    +0.000 HD
ENDROOT
BRANCH   1   5
ATOM      5  C   UNL A   1      43.369 -17.819 -32.620  0.00  0.00    +0.088 C 
BRANCH   5   8
ATOM      6  C   UNL A   1      41.160 -18.956 -32.594  0.00  0.00    +0.246 C 
ATOM      7  O   UNL A   1      40.670 -18.170 -31.789  0.00  0.00    -0.270 OA
ATOM      8  N   UNL A   1      42.393 -18.751 -33.167  0.00  0.00    -0.303 N 
ATOM      9  H   UNL A   1      42.626 -19.256 -33.980  0.00  0.00    +0.000 HD
BRANCH   6  15
ATOM     10  C   UNL A   1      39.296 -20.101 -33.912  0.00  0.00    +0.044 A 
ATOM     11  C   UNL A   1      38.685 -21.308 -34.300  0.00  0.00    -0.040 A 
ATOM     12  C   UNL A   1      39.115 -22.533 -33.786  0.00  0.00    -0.060 A 
ATOM     13  C   UNL A   1      40.189 -22.579 -32.903  0.00  0.00    -0.061 A 
ATOM     14  C   UNL A   1      40.836 -21.401 -32.536  0.00  0.00    -0.048 A 
ATOM     15  C   UNL A   1      40.400 -20.163 -33.035  0.00  0.00    +0.058 A 
BRANCH  10  16
ATOM     16  N   UNL A   1      38.939 -18.879 -34.554  0.00  0.00    -0.314 N 
ATOM     17  H   UNL A   1      38.319 -18.292 -34.063  0.00  0.00    +0.000 HD
BRANCH  16  23
ATOM     18  C   UNL A   1      38.128 -18.029 -39.447  0.00  0.00    -0.039 C 
ATOM     19  C   UNL A   1      38.998 -18.031 -38.216  0.00  0.00    -0.046 A 
ATOM     20  C   UNL A   1      40.322 -17.586 -38.341  0.00  0.00    -0.058 A 
ATOM     21  C   UNL A   1      41.177 -17.586 -37.246  0.00  0.00    -0.060 A 
ATOM     22  C   UNL A   1      40.711 -18.007 -36.004  0.00  0.00    -0.040 A 
ATOM     23  C   UNL A   1      39.379 -18.411 -35.826  0.00  0.00    +0.035 A 
ATOM     24  C   UNL A   1      38.529 -18.492 -36.961  0.00  0.00    -0.026 A 
ATOM     25  C   UNL A   1      37.122 -19.025 -36.820  0.00  0.00    -0.038 C 
ENDBRANCH  16  23
ENDBRANCH  10  16
ENDBRANCH   6  15
ENDBRANCH   5   8
ENDBRANCH   1   5
BRANCH   3  26
ATOM     26  C   UNL A   1      46.361 -18.475 -34.907  0.00  0.00    +0.013 C 
BRANCH  26  27
ATOM     27  C   UNL A   1      46.460 -19.735 -35.762  0.00  0.00    -0.022 C 
BRANCH  27  28
ATOM     28  C   UNL A   1      45.770 -19.517 -37.107  0.00  0.00    +0.011 C 
BRANCH  28  29
ATOM     29  N   UNL A   1      45.557 -20.812 -37.769  0.00  0.00    -0.343 N 
ATOM     30  H   UNL A   1      46.089 -21.620 -37.587  0.00  0.00    +0.000 HD
BRANCH  29  31
ATOM     31  C   UNL A   1      44.483 -20.750 -38.707  0.00  0.00    +0.041 A 
ATOM     32  C   UNL A   1      44.733 -20.560 -40.082  0.00  0.00    -0.005 A 
ATOM     33  C   UNL A   1      43.647 -20.664 -40.957  0.00  0.00    +0.047 A 
ATOM     34  N   UNL A   1      42.379 -20.903 -40.546  0.00  0.00    -0.251 NA
ATOM     35  C   UNL A   1      42.139 -21.066 -39.237  0.00  0.00    +0.073 A 
ATOM     36  C   UNL A   1      40.833 -21.310 -38.833  0.00  0.00    -0.036 A 
ATOM     37  C   UNL A   1      40.495 -21.491 -37.489  0.00  0.00    -0.060 A 
ATOM     38  C   UNL A   1      41.484 -21.420 -36.520  0.00  0.00    -0.061 A 
ATOM     39  C   UNL A   1      42.801 -21.176 -36.904  0.00  0.00    -0.051 A 
ATOM     40  C   UNL A   1      43.154 -21.003 -38.264  0.00  0.00    +0.021 A 
ATOM     41  C   UNL A   1      43.801 -20.472 -42.444  0.00  0.00    -0.010 C 
ATOM     42  C   UNL A   1      45.232 -20.666 -42.931  0.00  0.00    -0.047 C 
ATOM     43  C   UNL A   1      46.179 -19.850 -42.066  0.00  0.00    -0.049 C 
ATOM     44  C   UNL A   1      46.128 -20.327 -40.615  0.00  0.00    -0.024 C 
ENDBRANCH  29  31
ENDBRANCH  28  29
ENDBRANCH  27  28
ENDBRANCH  26  27
ENDBRANCH   3  26
TORSDOF 10
ENDMDL
MODEL 14
REMARK VINA RESULT:    -6.457      1.971      6.365
REMARK INTER + INTRA:         -14.999
REMARK INTER:                 -11.087
REMARK INTRA:                  -3.912
REMARK UNBOUND:                -4.766
REMARK  Name = cpd29.pdb
REMARK  12 active torsions:
REMARK  status: ('A' for Active; 'I' for Inactive)
REMARK    1  A    between atoms: C_1  and  C_2
REMARK    2  A    between atoms: C_6  and  N_7
REMARK    3  A    between atoms: N_7  and  C_8
REMARK    4  A    between atoms: C_13  and  C_14
REMARK    5  A    between atoms: N_16  and  C_17
REMARK    6  A    between atoms: C_17  and  C_18
REMARK    7  A    between atoms: N_20  and  C_21
REMARK    8  A    between atoms: C_21  and  C_22
REMARK    9  A    between atoms: C_22  and  C_23
REMARK   10  A    between atoms: C_23  and  N_24
REMARK   11  A    between atoms: N_24  and  C_25
REMARK   12  A    between atoms: C_39  and  C_40
REMARK                            x       y       z     vdW  Elec       q    Type
REMARK                         _______ _______ _______ _____ _____    ______ ____
ROOT
ATOM      1  C   UNL A   1      32.288 -32.601 -30.511  0.00  0.00    +0.230 C 
ATOM      2  O   UNL A   1      31.723 -31.522 -30.329  0.00  0.00    -0.274 OA
ATOM      3  N   UNL A   1      31.611 -33.800 -30.518  0.00  0.00    -0.314 N 
ATOM      4  H   UNL A   1      32.106 -34.625 -30.727  0.00  0.00    +0.000 HD
ENDROOT
BRANCH   1   5
ATOM      5  C   UNL A   1      33.821 -32.707 -30.535  0.00  0.00    +0.088 C 
BRANCH   5   8
ATOM      6  C   UNL A   1      34.918 -34.901 -30.145  0.00  0.00    +0.246 C 
ATOM      7  O   UNL A   1      35.151 -35.092 -31.335  0.00  0.00    -0.270 OA
ATOM      8  N   UNL A   1      34.436 -33.704 -29.671  0.00  0.00    -0.303 N 
ATOM      9  H   UNL A   1      34.510 -33.513 -28.708  0.00  0.00    +0.000 HD
BRANCH   6  15
ATOM     10  C   UNL A   1      36.198 -36.950 -29.315  0.00  0.00    +0.044 A 
ATOM     11  C   UNL A   1      36.415 -37.873 -28.276  0.00  0.00    -0.040 A 
ATOM     12  C   UNL A   1      35.629 -37.860 -27.121  0.00  0.00    -0.060 A 
ATOM     13  C   UNL A   1      34.635 -36.898 -26.967  0.00  0.00    -0.061 A 
ATOM     14  C   UNL A   1      34.429 -35.948 -27.965  0.00  0.00    -0.048 A 
ATOM     15  C   UNL A   1      35.203 -35.964 -29.137  0.00  0.00    +0.058 A 
BRANCH  10  16
ATOM     16  N   UNL A   1      37.099 -36.888 -30.419  0.00  0.00    -0.314 N 
ATOM     17  H   UNL A   1      36.696 -36.942 -31.315  0.00  0.00    +0.000 HD
BRANCH  16  23
ATOM     18  C   UNL A   1      41.382 -34.819 -32.061  0.00  0.00    -0.039 C 
ATOM     19  C   UNL A   1      40.606 -35.776 -31.194  0.00  0.00    -0.046 A 
ATOM     20  C   UNL A   1      41.323 -36.608 -30.321  0.00  0.00    -0.058 A 
ATOM     21  C   UNL A   1      40.662 -37.526 -29.513  0.00  0.00    -0.060 A 
ATOM     22  C   UNL A   1      39.274 -37.606 -29.548  0.00  0.00    -0.040 A 
ATOM     23  C   UNL A   1      38.517 -36.756 -30.369  0.00  0.00    +0.035 A 
ATOM     24  C   UNL A   1      39.193 -35.878 -31.256  0.00  0.00    -0.026 A 
ATOM     25  C   UNL A   1      38.410 -35.028 -32.229  0.00  0.00    -0.038 C 
ENDBRANCH  16  23
ENDBRANCH  10  16
ENDBRANCH   6  15
ENDBRANCH   5   8
ENDBRANCH   1   5
BRANCH   3  26
ATOM     26  C   UNL A   1      30.198 -33.888 -30.230  0.00  0.00    +0.013 C 
BRANCH  26  27
ATOM     27  C   UNL A   1      29.905 -34.666 -28.950  0.00  0.00    -0.022 C 
BRANCH  27  28
ATOM     28  C   UNL A   1      31.012 -35.684 -28.686  0.00  0.00    +0.011 C 
BRANCH  28  29
ATOM     29  N   UNL A   1      30.577 -37.015 -29.133  0.00  0.00    -0.343 N 
ATOM     30  H   UNL A   1      29.709 -37.200 -29.557  0.00  0.00    +0.000 HD
BRANCH  29  31
ATOM     31  C   UNL A   1      31.573 -38.006 -28.874  0.00  0.00    +0.041 A 
ATOM     32  C   UNL A   1      31.574 -38.732 -27.666  0.00  0.00    -0.005 A 
ATOM     33  C   UNL A   1      32.483 -39.789 -27.549  0.00  0.00    +0.047 A 
ATOM     34  N   UNL A   1      33.371 -40.120 -28.516  0.00  0.00    -0.251 NA
ATOM     35  C   UNL A   1      33.381 -39.417 -29.657  0.00  0.00    +0.073 A 
ATOM     36  C   UNL A   1      34.298 -39.770 -30.640  0.00  0.00    -0.036 A 
ATOM     37  C   UNL A   1      34.377 -39.090 -31.857  0.00  0.00    -0.060 A 
ATOM     38  C   UNL A   1      33.523 -38.025 -32.103  0.00  0.00    -0.061 A 
ATOM     39  C   UNL A   1      32.596 -37.654 -31.131  0.00  0.00    -0.051 A 
ATOM     40  C   UNL A   1      32.501 -38.345 -29.899  0.00  0.00    +0.021 A 
ATOM     41  C   UNL A   1      32.573 -40.626 -26.299  0.00  0.00    -0.010 C 
ATOM     42  C   UNL A   1      31.316 -40.563 -25.440  0.00  0.00    -0.047 C 
ATOM     43  C   UNL A   1      30.918 -39.112 -25.225  0.00  0.00    -0.049 C 
ATOM     44  C   UNL A   1      30.587 -38.443 -26.559  0.00  0.00    -0.024 C 
ENDBRANCH  29  31
ENDBRANCH  28  29
ENDBRANCH  27  28
ENDBRANCH  26  27
ENDBRANCH   3  26
TORSDOF 10
ENDMDL
MODEL 15
REMARK VINA RESULT:    -6.359      2.049      4.694
REMARK INTER + INTRA:         -14.843
REMARK INTER:                 -10.568
REMARK INTRA:                  -4.275
REMARK UNBOUND:                -4.766
REMARK  Name = cpd29.pdb
REMARK  12 active torsions:
REMARK  status: ('A' for Active; 'I' for Inactive)
REMARK    1  A    between atoms: C_1  and  C_2
REMARK    2  A    between atoms: C_6  and  N_7
REMARK    3  A    between atoms: N_7  and  C_8
REMARK    4  A    between atoms: C_13  and  C_14
REMARK    5  A    between atoms: N_16  and  C_17
REMARK    6  A    between atoms: C_17  and  C_18
REMARK    7  A    between atoms: N_20  and  C_21
REMARK    8  A    between atoms: C_21  and  C_22
REMARK    9  A    between atoms: C_22  and  C_23
REMARK   10  A    between atoms: C_23  and  N_24
REMARK   11  A    between atoms: N_24  and  C_25
REMARK   12  A    between atoms: C_39  and  C_40
REMARK                            x       y       z     vdW  Elec       q    Type
REMARK                         _______ _______ _______ _____ _____    ______ ____
ROOT
ATOM      1  C   UNL A   1      31.218 -38.028 -33.388  0.00  0.00    +0.230 C 
ATOM      2  O   UNL A   1      30.940 -38.045 -34.587  0.00  0.00    -0.274 OA
ATOM      3  N   UNL A   1      31.998 -37.045 -32.822  0.00  0.00    -0.314 N 
ATOM      4  H   UNL A   1      32.138 -37.050 -31.847  0.00  0.00    +0.000 HD
ENDROOT
BRANCH   1   5
ATOM      5  C   UNL A   1      30.887 -39.218 -32.473  0.00  0.00    +0.088 C 
BRANCH   5   8
ATOM      6  C   UNL A   1      32.489 -39.235 -30.574  0.00  0.00    +0.246 C 
ATOM      7  O   UNL A   1      31.874 -38.385 -29.938  0.00  0.00    -0.270 OA
ATOM      8  N   UNL A   1      31.985 -39.807 -31.719  0.00  0.00    -0.303 N 
ATOM      9  H   UNL A   1      32.382 -40.648 -32.042  0.00  0.00    +0.000 HD
BRANCH   6  15
ATOM     10  C   UNL A   1      34.003 -40.304 -28.816  0.00  0.00    +0.044 A 
ATOM     11  C   UNL A   1      35.283 -40.786 -28.487  0.00  0.00    -0.040 A 
ATOM     12  C   UNL A   1      36.355 -40.654 -29.372  0.00  0.00    -0.060 A 
ATOM     13  C   UNL A   1      36.159 -40.069 -30.619  0.00  0.00    -0.061 A 
ATOM     14  C   UNL A   1      34.891 -39.620 -30.984  0.00  0.00    -0.048 A 
ATOM     15  C   UNL A   1      33.811 -39.734 -30.093  0.00  0.00    +0.058 A 
BRANCH  10  16
ATOM     16  N   UNL A   1      32.893 -40.575 -27.962  0.00  0.00    -0.314 N 
ATOM     17  H   UNL A   1      32.240 -39.847 -27.850  0.00  0.00    +0.000 HD
BRANCH  16  23
ATOM     18  C   UNL A   1      32.845 -43.257 -23.705  0.00  0.00    -0.039 C 
ATOM     19  C   UNL A   1      32.635 -43.101 -25.189  0.00  0.00    -0.046 A 
ATOM     20  C   UNL A   1      32.188 -44.214 -25.916  0.00  0.00    -0.058 A 
ATOM     21  C   UNL A   1      31.998 -44.135 -27.290  0.00  0.00    -0.060 A 
ATOM     22  C   UNL A   1      32.226 -42.933 -27.952  0.00  0.00    -0.040 A 
ATOM     23  C   UNL A   1      32.624 -41.782 -27.254  0.00  0.00    +0.035 A 
ATOM     24  C   UNL A   1      32.901 -41.883 -25.865  0.00  0.00    -0.026 A 
ATOM     25  C   UNL A   1      33.433 -40.690 -25.107  0.00  0.00    -0.038 C 
ENDBRANCH  16  23
ENDBRANCH  10  16
ENDBRANCH   6  15
ENDBRANCH   5   8
ENDBRANCH   1   5
BRANCH   3  26
ATOM     26  C   UNL A   1      32.618 -36.004 -33.610  0.00  0.00    +0.013 C 
BRANCH  26  27
ATOM     27  C   UNL A   1      33.549 -35.119 -32.788  0.00  0.00    -0.022 C 
BRANCH  27  28
ATOM     28  C   UNL A   1      34.457 -35.978 -31.911  0.00  0.00    +0.011 C 
BRANCH  28  29
ATOM     29  N   UNL A   1      35.232 -35.115 -31.007  0.00  0.00    -0.343 N 
ATOM     30  H   UNL A   1      35.382 -34.153 -31.154  0.00  0.00    +0.000 HD
BRANCH  29  31
ATOM     31  C   UNL A   1      35.739 -35.846 -29.890  0.00  0.00    +0.041 A 
ATOM     32  C   UNL A   1      34.908 -36.161 -28.795  0.00  0.00    -0.005 A 
ATOM     33  C   UNL A   1      35.429 -37.009 -27.812  0.00  0.00    +0.047 A 
ATOM     34  N   UNL A   1      36.688 -37.507 -27.849  0.00  0.00    -0.251 NA
ATOM     35  C   UNL A   1      37.482 -37.194 -28.882  0.00  0.00    +0.073 A 
ATOM     36  C   UNL A   1      38.770 -37.714 -28.904  0.00  0.00    -0.036 A 
ATOM     37  C   UNL A   1      39.663 -37.437 -29.942  0.00  0.00    -0.060 A 
ATOM     38  C   UNL A   1      39.265 -36.614 -30.985  0.00  0.00    -0.061 A 
ATOM     39  C   UNL A   1      37.978 -36.081 -30.982  0.00  0.00    -0.051 A 
ATOM     40  C   UNL A   1      37.062 -36.366 -29.940  0.00  0.00    +0.021 A 
ATOM     41  C   UNL A   1      34.631 -37.403 -26.596  0.00  0.00    -0.010 C 
ATOM     42  C   UNL A   1      33.128 -37.236 -26.783  0.00  0.00    -0.047 C 
ATOM     43  C   UNL A   1      32.834 -35.850 -27.334  0.00  0.00    -0.049 C 
ATOM     44  C   UNL A   1      33.482 -35.670 -28.707  0.00  0.00    -0.024 C 
ENDBRANCH  29  31
ENDBRANCH  28  29
ENDBRANCH  27  28
ENDBRANCH  26  27
ENDBRANCH   3  26
TORSDOF 10
ENDMDL
MODEL 16
REMARK VINA RESULT:    -6.253     17.341     21.458
REMARK INTER + INTRA:         -14.674
REMARK INTER:                  -9.885
REMARK INTRA:                  -4.790
REMARK UNBOUND:                -4.766
REMARK  Name = cpd29.pdb
REMARK  12 active torsions:
REMARK  status: ('A' for Active; 'I' for Inactive)
REMARK    1  A    between atoms: C_1  and  C_2
REMARK    2  A    between atoms: C_6  and  N_7
REMARK    3  A    between atoms: N_7  and  C_8
REMARK    4  A    between atoms: C_13  and  C_14
REMARK    5  A    between atoms: N_16  and  C_17
REMARK    6  A    between atoms: C_17  and  C_18
REMARK    7  A    between atoms: N_20  and  C_21
REMARK    8  A    between atoms: C_21  and  C_22
REMARK    9  A    between atoms: C_22  and  C_23
REMARK   10  A    between atoms: C_23  and  N_24
REMARK   11  A    between atoms: N_24  and  C_25
REMARK   12  A    between atoms: C_39  and  C_40
REMARK                            x       y       z     vdW  Elec       q    Type
REMARK                         _______ _______ _______ _____ _____    ______ ____
ROOT
ATOM      1  C   UNL A   1      47.038 -17.821 -35.404  0.00  0.00    +0.230 C 
ATOM      2  O   UNL A   1      47.942 -18.304 -34.721  0.00  0.00    -0.274 OA
ATOM      3  N   UNL A   1      45.706 -18.027 -35.123  0.00  0.00    -0.314 N 
ATOM      4  H   UNL A   1      45.028 -17.567 -35.669  0.00  0.00    +0.000 HD
ENDROOT
BRANCH   1   5
ATOM      5  C   UNL A   1      47.331 -17.123 -36.741  0.00  0.00    +0.088 C 
BRANCH   5   8
ATOM      6  C   UNL A   1      45.812 -17.960 -38.520  0.00  0.00    +0.246 C 
ATOM      7  O   UNL A   1      44.908 -17.181 -38.232  0.00  0.00    -0.270 OA
ATOM      8  N   UNL A   1      47.065 -17.875 -37.960  0.00  0.00    -0.303 N 
ATOM      9  H   UNL A   1      47.812 -18.341 -38.400  0.00  0.00    +0.000 HD
BRANCH   6  15
ATOM     10  C   UNL A   1      44.638 -20.044 -39.417  0.00  0.00    +0.044 A 
ATOM     11  C   UNL A   1      44.492 -20.962 -40.473  0.00  0.00    -0.040 A 
ATOM     12  C   UNL A   1      45.315 -20.904 -41.600  0.00  0.00    -0.060 A 
ATOM     13  C   UNL A   1      46.276 -19.904 -41.709  0.00  0.00    -0.061 A 
ATOM     14  C   UNL A   1      46.413 -18.959 -40.694  0.00  0.00    -0.048 A 
ATOM     15  C   UNL A   1      45.601 -19.019 -39.550  0.00  0.00    +0.058 A 
BRANCH  10  16
ATOM     16  N   UNL A   1      43.699 -20.030 -38.344  0.00  0.00    -0.314 N 
ATOM     17  H   UNL A   1      44.040 -19.738 -37.468  0.00  0.00    +0.000 HD
BRANCH  16  23
ATOM     18  C   UNL A   1      38.907 -18.930 -39.414  0.00  0.00    -0.039 C 
ATOM     19  C   UNL A   1      39.983 -19.842 -38.884  0.00  0.00    -0.046 A 
ATOM     20  C   UNL A   1      39.601 -21.095 -38.382  0.00  0.00    -0.058 A 
ATOM     21  C   UNL A   1      40.548 -21.969 -37.860  0.00  0.00    -0.060 A 
ATOM     22  C   UNL A   1      41.892 -21.612 -37.858  0.00  0.00    -0.040 A 
ATOM     23  C   UNL A   1      42.322 -20.390 -38.398  0.00  0.00    +0.035 A 
ATOM     24  C   UNL A   1      41.348 -19.461 -38.853  0.00  0.00    -0.026 A 
ATOM     25  C   UNL A   1      41.770 -18.095 -39.340  0.00  0.00    -0.038 C 
ENDBRANCH  16  23
ENDBRANCH  10  16
ENDBRANCH   6  15
ENDBRANCH   5   8
ENDBRANCH   1   5
BRANCH   3  26
ATOM     26  C   UNL A   1      45.270 -18.896 -34.054  0.00  0.00    +0.013 C 
BRANCH  26  27
ATOM     27  C   UNL A   1      44.392 -18.179 -33.033  0.00  0.00    -0.022 C 
BRANCH  27  28
ATOM     28  C   UNL A   1      42.971 -18.737 -33.074  0.00  0.00    +0.011 C 
BRANCH  28  29
ATOM     29  N   UNL A   1      42.785 -19.524 -34.301  0.00  0.00    -0.343 N 
ATOM     30  H   UNL A   1      43.514 -19.972 -34.788  0.00  0.00    +0.000 HD
BRANCH  29  31
ATOM     31  C   UNL A   1      41.413 -19.559 -34.698  0.00  0.00    +0.041 A 
ATOM     32  C   UNL A   1      40.594 -20.660 -34.372  0.00  0.00    -0.005 A 
ATOM     33  C   UNL A   1      39.229 -20.556 -34.658  0.00  0.00    +0.047 A 
ATOM     34  N   UNL A   1      38.672 -19.474 -35.254  0.00  0.00    -0.251 NA
ATOM     35  C   UNL A   1      39.455 -18.436 -35.579  0.00  0.00    +0.073 A 
ATOM     36  C   UNL A   1      38.868 -17.335 -36.189  0.00  0.00    -0.036 A 
ATOM     37  C   UNL A   1      39.610 -16.211 -36.562  0.00  0.00    -0.060 A 
ATOM     38  C   UNL A   1      40.976 -16.185 -36.325  0.00  0.00    -0.061 A 
ATOM     39  C   UNL A   1      41.585 -17.279 -35.714  0.00  0.00    -0.051 A 
ATOM     40  C   UNL A   1      40.839 -18.417 -35.323  0.00  0.00    +0.021 A 
ATOM     41  C   UNL A   1      38.265 -21.675 -34.358  0.00  0.00    -0.010 C 
ATOM     42  C   UNL A   1      38.783 -22.650 -33.307  0.00  0.00    -0.047 C 
ATOM     43  C   UNL A   1      40.194 -23.083 -33.667  0.00  0.00    -0.049 C 
ATOM     44  C   UNL A   1      41.140 -21.883 -33.673  0.00  0.00    -0.024 C 
ENDBRANCH  29  31
ENDBRANCH  28  29
ENDBRANCH  27  28
ENDBRANCH  26  27
ENDBRANCH   3  26
TORSDOF 10
ENDMDL
MODEL 17
REMARK VINA RESULT:    -6.242     16.997     20.974
REMARK INTER + INTRA:         -14.657
REMARK INTER:                 -11.569
REMARK INTRA:                  -3.088
REMARK UNBOUND:                -4.766
REMARK  Name = cpd29.pdb
REMARK  12 active torsions:
REMARK  status: ('A' for Active; 'I' for Inactive)
REMARK    1  A    between atoms: C_1  and  C_2
REMARK    2  A    between atoms: C_6  and  N_7
REMARK    3  A    between atoms: N_7  and  C_8
REMARK    4  A    between atoms: C_13  and  C_14
REMARK    5  A    between atoms: N_16  and  C_17
REMARK    6  A    between atoms: C_17  and  C_18
REMARK    7  A    between atoms: N_20  and  C_21
REMARK    8  A    between atoms: C_21  and  C_22
REMARK    9  A    between atoms: C_22  and  C_23
REMARK   10  A    between atoms: C_23  and  N_24
REMARK   11  A    between atoms: N_24  and  C_25
REMARK   12  A    between atoms: C_39  and  C_40
REMARK                            x       y       z     vdW  Elec       q    Type
REMARK                         _______ _______ _______ _____ _____    ______ ____
ROOT
ATOM      1  C   UNL A   1      46.401 -17.778 -36.814  0.00  0.00    +0.230 C 
ATOM      2  O   UNL A   1      46.371 -16.561 -36.994  0.00  0.00    -0.274 OA
ATOM      3  N   UNL A   1      45.654 -18.402 -35.840  0.00  0.00    -0.314 N 
ATOM      4  H   UNL A   1      45.674 -19.385 -35.781  0.00  0.00    +0.000 HD
ENDROOT
BRANCH   1   5
ATOM      5  C   UNL A   1      47.433 -18.667 -37.526  0.00  0.00    +0.088 C 
BRANCH   5   8
ATOM      6  C   UNL A   1      46.303 -20.511 -38.750  0.00  0.00    +0.246 C 
ATOM      7  O   UNL A   1      45.715 -20.925 -37.755  0.00  0.00    -0.270 OA
ATOM      8  N   UNL A   1      47.010 -19.331 -38.751  0.00  0.00    -0.303 N 
ATOM      9  H   UNL A   1      47.239 -18.918 -39.615  0.00  0.00    +0.000 HD
BRANCH   6  15
ATOM     10  C   UNL A   1      45.087 -21.255 -40.870  0.00  0.00    +0.044 A 
ATOM     11  C   UNL A   1      45.148 -21.955 -42.088  0.00  0.00    -0.040 A 
ATOM     12  C   UNL A   1      46.283 -22.687 -42.447  0.00  0.00    -0.060 A 
ATOM     13  C   UNL A   1      47.394 -22.702 -41.610  0.00  0.00    -0.061 A 
ATOM     14  C   UNL A   1      47.373 -21.983 -40.416  0.00  0.00    -0.048 A 
ATOM     15  C   UNL A   1      46.230 -21.258 -40.040  0.00  0.00    +0.058 A 
BRANCH  10  16
ATOM     16  N   UNL A   1      43.981 -20.401 -40.588  0.00  0.00    -0.314 N 
ATOM     17  H   UNL A   1      44.005 -19.506 -40.998  0.00  0.00    +0.000 HD
BRANCH  16  23
ATOM     18  C   UNL A   1      40.791 -19.210 -36.884  0.00  0.00    -0.039 C 
ATOM     19  C   UNL A   1      41.314 -20.136 -37.952  0.00  0.00    -0.046 A 
ATOM     20  C   UNL A   1      40.672 -21.370 -38.131  0.00  0.00    -0.058 A 
ATOM     21  C   UNL A   1      41.124 -22.273 -39.085  0.00  0.00    -0.060 A 
ATOM     22  C   UNL A   1      42.208 -21.942 -39.892  0.00  0.00    -0.040 A 
ATOM     23  C   UNL A   1      42.846 -20.697 -39.780  0.00  0.00    +0.035 A 
ATOM     24  C   UNL A   1      42.440 -19.809 -38.749  0.00  0.00    -0.026 A 
ATOM     25  C   UNL A   1      43.176 -18.508 -38.533  0.00  0.00    -0.038 C 
ENDBRANCH  16  23
ENDBRANCH  10  16
ENDBRANCH   6  15
ENDBRANCH   5   8
ENDBRANCH   1   5
BRANCH   3  26
ATOM     26  C   UNL A   1      44.842 -17.663 -34.900  0.00  0.00    +0.013 C 
BRANCH  26  27
ATOM     27  C   UNL A   1      44.472 -18.483 -33.668  0.00  0.00    -0.022 C 
BRANCH  27  28
ATOM     28  C   UNL A   1      43.308 -19.418 -33.986  0.00  0.00    +0.011 C 
BRANCH  28  29
ATOM     29  N   UNL A   1      42.475 -19.596 -32.788  0.00  0.00    -0.343 N 
ATOM     30  H   UNL A   1      42.832 -19.736 -31.882  0.00  0.00    +0.000 HD
BRANCH  29  31
ATOM     31  C   UNL A   1      41.083 -19.538 -33.105  0.00  0.00    +0.041 A 
ATOM     32  C   UNL A   1      40.388 -20.693 -33.520  0.00  0.00    -0.005 A 
ATOM     33  C   UNL A   1      39.000 -20.594 -33.663  0.00  0.00    +0.047 A 
ATOM     34  N   UNL A   1      38.309 -19.448 -33.456  0.00  0.00    -0.251 NA
ATOM     35  C   UNL A   1      38.973 -18.347 -33.078  0.00  0.00    +0.073 A 
ATOM     36  C   UNL A   1      38.249 -17.180 -32.869  0.00  0.00    -0.036 A 
ATOM     37  C   UNL A   1      38.862 -15.988 -32.476  0.00  0.00    -0.060 A 
ATOM     38  C   UNL A   1      40.236 -15.955 -32.290  0.00  0.00    -0.061 A 
ATOM     39  C   UNL A   1      40.982 -17.113 -32.495  0.00  0.00    -0.051 A 
ATOM     40  C   UNL A   1      40.367 -18.329 -32.882  0.00  0.00    +0.021 A 
ATOM     41  C   UNL A   1      38.161 -21.764 -34.108  0.00  0.00    -0.010 C 
ATOM     42  C   UNL A   1      38.841 -23.110 -33.892  0.00  0.00    -0.047 C 
ATOM     43  C   UNL A   1      40.250 -23.065 -34.460  0.00  0.00    -0.049 C 
ATOM     44  C   UNL A   1      41.089 -22.014 -33.734  0.00  0.00    -0.024 C 
ENDBRANCH  29  31
ENDBRANCH  28  29
ENDBRANCH  27  28
ENDBRANCH  26  27
ENDBRANCH   3  26
TORSDOF 10
ENDMDL
MODEL 18
REMARK VINA RESULT:    -6.218     17.010     21.019
REMARK INTER + INTRA:         -14.620
REMARK INTER:                 -11.310
REMARK INTRA:                  -3.310
REMARK UNBOUND:                -4.766
REMARK  Name = cpd29.pdb
REMARK  12 active torsions:
REMARK  status: ('A' for Active; 'I' for Inactive)
REMARK    1  A    between atoms: C_1  and  C_2
REMARK    2  A    between atoms: C_6  and  N_7
REMARK    3  A    between atoms: N_7  and  C_8
REMARK    4  A    between atoms: C_13  and  C_14
REMARK    5  A    between atoms: N_16  and  C_17
REMARK    6  A    between atoms: C_17  and  C_18
REMARK    7  A    between atoms: N_20  and  C_21
REMARK    8  A    between atoms: C_21  and  C_22
REMARK    9  A    between atoms: C_22  and  C_23
REMARK   10  A    between atoms: C_23  and  N_24
REMARK   11  A    between atoms: N_24  and  C_25
REMARK   12  A    between atoms: C_39  and  C_40
REMARK                            x       y       z     vdW  Elec       q    Type
REMARK                         _______ _______ _______ _____ _____    ______ ____
ROOT
ATOM      1  C   UNL A   1      46.348 -17.773 -36.760  0.00  0.00    +0.230 C 
ATOM      2  O   UNL A   1      46.348 -16.558 -36.962  0.00  0.00    -0.274 OA
ATOM      3  N   UNL A   1      45.582 -18.362 -35.780  0.00  0.00    -0.314 N 
ATOM      4  H   UNL A   1      45.578 -19.344 -35.704  0.00  0.00    +0.000 HD
ENDROOT
BRANCH   1   5
ATOM      5  C   UNL A   1      47.362 -18.698 -37.452  0.00  0.00    +0.088 C 
BRANCH   5   8
ATOM      6  C   UNL A   1      46.223 -20.509 -38.715  0.00  0.00    +0.246 C 
ATOM      7  O   UNL A   1      45.617 -20.928 -37.733  0.00  0.00    -0.270 OA
ATOM      8  N   UNL A   1      46.946 -19.339 -38.691  0.00  0.00    -0.303 N 
ATOM      9  H   UNL A   1      47.192 -18.918 -39.546  0.00  0.00    +0.000 HD
BRANCH   6  15
ATOM     10  C   UNL A   1      45.015 -21.226 -40.848  0.00  0.00    +0.044 A 
ATOM     11  C   UNL A   1      45.081 -21.908 -42.077  0.00  0.00    -0.040 A 
ATOM     12  C   UNL A   1      46.220 -22.630 -42.444  0.00  0.00    -0.060 A 
ATOM     13  C   UNL A   1      47.329 -22.653 -41.604  0.00  0.00    -0.061 A 
ATOM     14  C   UNL A   1      47.302 -21.952 -40.400  0.00  0.00    -0.048 A 
ATOM     15  C   UNL A   1      46.156 -21.237 -40.016  0.00  0.00    +0.058 A 
BRANCH  10  16
ATOM     16  N   UNL A   1      43.905 -20.380 -40.556  0.00  0.00    -0.314 N 
ATOM     17  H   UNL A   1      43.900 -19.499 -40.995  0.00  0.00    +0.000 HD
BRANCH  16  23
ATOM     18  C   UNL A   1      40.785 -19.095 -36.824  0.00  0.00    -0.039 C 
ATOM     19  C   UNL A   1      41.306 -20.058 -37.859  0.00  0.00    -0.046 A 
ATOM     20  C   UNL A   1      40.697 -21.318 -37.958  0.00  0.00    -0.058 A 
ATOM     21  C   UNL A   1      41.149 -22.255 -38.879  0.00  0.00    -0.060 A 
ATOM     22  C   UNL A   1      42.200 -21.935 -39.733  0.00  0.00    -0.040 A 
ATOM     23  C   UNL A   1      42.802 -20.668 -39.702  0.00  0.00    +0.035 A 
ATOM     24  C   UNL A   1      42.399 -19.741 -38.705  0.00  0.00    -0.026 A 
ATOM     25  C   UNL A   1      43.101 -18.409 -38.576  0.00  0.00    -0.038 C 
ENDBRANCH  16  23
ENDBRANCH  10  16
ENDBRANCH   6  15
ENDBRANCH   5   8
ENDBRANCH   1   5
BRANCH   3  26
ATOM     26  C   UNL A   1      44.783 -17.588 -34.858  0.00  0.00    +0.013 C 
BRANCH  26  27
ATOM     27  C   UNL A   1      44.367 -18.384 -33.625  0.00  0.00    -0.022 C 
BRANCH  27  28
ATOM     28  C   UNL A   1      43.198 -19.306 -33.961  0.00  0.00    +0.011 C 
BRANCH  28  29
ATOM     29  N   UNL A   1      42.376 -19.520 -32.761  0.00  0.00    -0.343 N 
ATOM     30  H   UNL A   1      42.741 -19.663 -31.859  0.00  0.00    +0.000 HD
BRANCH  29  31
ATOM     31  C   UNL A   1      40.981 -19.493 -33.069  0.00  0.00    +0.041 A 
ATOM     32  C   UNL A   1      40.252 -18.287 -33.013  0.00  0.00    -0.005 A 
ATOM     33  C   UNL A   1      38.932 -18.309 -33.476  0.00  0.00    +0.047 A 
ATOM     34  N   UNL A   1      38.322 -19.427 -33.937  0.00  0.00    -0.251 NA
ATOM     35  C   UNL A   1      39.011 -20.576 -33.974  0.00  0.00    +0.073 A 
ATOM     36  C   UNL A   1      38.371 -21.713 -34.450  0.00  0.00    -0.036 A 
ATOM     37  C   UNL A   1      39.014 -22.951 -34.521  0.00  0.00    -0.060 A 
ATOM     38  C   UNL A   1      40.331 -23.062 -34.100  0.00  0.00    -0.061 A 
ATOM     39  C   UNL A   1      40.992 -21.934 -33.618  0.00  0.00    -0.051 A 
ATOM     40  C   UNL A   1      40.351 -20.673 -33.554  0.00  0.00    +0.021 A 
ATOM     41  C   UNL A   1      38.061 -17.080 -33.454  0.00  0.00    -0.010 C 
ATOM     42  C   UNL A   1      38.854 -15.781 -33.384  0.00  0.00    -0.047 C 
ATOM     43  C   UNL A   1      39.881 -15.871 -32.267  0.00  0.00    -0.049 C 
ATOM     44  C   UNL A   1      40.879 -16.995 -32.545  0.00  0.00    -0.024 C 
ENDBRANCH  29  31
ENDBRANCH  28  29
ENDBRANCH  27  28
ENDBRANCH  26  27
ENDBRANCH   3  26
TORSDOF 10
ENDMDL
MODEL 19
REMARK VINA RESULT:    -6.170     18.007     22.129
REMARK INTER + INTRA:         -14.543
REMARK INTER:                 -11.137
REMARK INTRA:                  -3.406
REMARK UNBOUND:                -4.766
REMARK  Name = cpd29.pdb
REMARK  12 active torsions:
REMARK  status: ('A' for Active; 'I' for Inactive)
REMARK    1  A    between atoms: C_1  and  C_2
REMARK    2  A    between atoms: C_6  and  N_7
REMARK    3  A    between atoms: N_7  and  C_8
REMARK    4  A    between atoms: C_13  and  C_14
REMARK    5  A    between atoms: N_16  and  C_17
REMARK    6  A    between atoms: C_17  and  C_18
REMARK    7  A    between atoms: N_20  and  C_21
REMARK    8  A    between atoms: C_21  and  C_22
REMARK    9  A    between atoms: C_22  and  C_23
REMARK   10  A    between atoms: C_23  and  N_24
REMARK   11  A    between atoms: N_24  and  C_25
REMARK   12  A    between atoms: C_39  and  C_40
REMARK                            x       y       z     vdW  Elec       q    Type
REMARK                         _______ _______ _______ _____ _____    ______ ____
ROOT
ATOM      1  C   UNL A   1      42.338 -14.960 -38.861  0.00  0.00    +0.230 C 
ATOM      2  O   UNL A   1      41.711 -13.907 -38.982  0.00  0.00    -0.274 OA
ATOM      3  N   UNL A   1      41.720 -16.190 -38.816  0.00  0.00    -0.314 N 
ATOM      4  H   UNL A   1      42.276 -17.002 -38.778  0.00  0.00    +0.000 HD
ENDROOT
BRANCH   1   5
ATOM      5  C   UNL A   1      43.842 -14.965 -38.544  0.00  0.00    +0.088 C 
BRANCH   5   8
ATOM      6  C   UNL A   1      45.584 -16.604 -37.874  0.00  0.00    +0.246 C 
ATOM      7  O   UNL A   1      46.468 -16.060 -38.529  0.00  0.00    -0.270 OA
ATOM      8  N   UNL A   1      44.343 -16.038 -37.698  0.00  0.00    -0.303 N 
ATOM      9  H   UNL A   1      43.770 -16.373 -36.970  0.00  0.00    +0.000 HD
BRANCH   6  15
ATOM     10  C   UNL A   1      46.293 -19.058 -37.855  0.00  0.00    +0.044 A 
ATOM     11  C   UNL A   1      46.550 -20.213 -37.095  0.00  0.00    -0.040 A 
ATOM     12  C   UNL A   1      46.310 -20.241 -35.719  0.00  0.00    -0.060 A 
ATOM     13  C   UNL A   1      45.842 -19.102 -35.070  0.00  0.00    -0.061 A 
ATOM     14  C   UNL A   1      45.618 -17.934 -35.796  0.00  0.00    -0.048 A 
ATOM     15  C   UNL A   1      45.842 -17.901 -37.182  0.00  0.00    +0.058 A 
BRANCH  10  16
ATOM     16  N   UNL A   1      46.678 -19.002 -39.227  0.00  0.00    -0.314 N 
ATOM     17  H   UNL A   1      47.606 -18.728 -39.409  0.00  0.00    +0.000 HD
BRANCH  16  23
ATOM     18  C   UNL A   1      45.142 -22.176 -42.817  0.00  0.00    -0.039 C 
ATOM     19  C   UNL A   1      45.151 -20.833 -42.134  0.00  0.00    -0.046 A 
ATOM     20  C   UNL A   1      44.351 -19.812 -42.670  0.00  0.00    -0.058 A 
ATOM     21  C   UNL A   1      44.336 -18.547 -42.095  0.00  0.00    -0.060 A 
ATOM     22  C   UNL A   1      45.099 -18.293 -40.960  0.00  0.00    -0.040 A 
ATOM     23  C   UNL A   1      45.872 -19.300 -40.363  0.00  0.00    +0.035 A 
ATOM     24  C   UNL A   1      45.955 -20.568 -40.997  0.00  0.00    -0.026 A 
ATOM     25  C   UNL A   1      46.862 -21.639 -40.438  0.00  0.00    -0.038 C 
ENDBRANCH  16  23
ENDBRANCH  10  16
ENDBRANCH   6  15
ENDBRANCH   5   8
ENDBRANCH   1   5
BRANCH   3  26
ATOM     26  C   UNL A   1      40.281 -16.329 -38.821  0.00  0.00    +0.013 C 
BRANCH  26  27
ATOM     27  C   UNL A   1      39.703 -16.527 -37.424  0.00  0.00    -0.022 C 
BRANCH  27  28
ATOM     28  C   UNL A   1      39.388 -18.002 -37.186  0.00  0.00    +0.011 C 
BRANCH  28  29
ATOM     29  N   UNL A   1      40.475 -18.621 -36.413  0.00  0.00    -0.343 N 
ATOM     30  H   UNL A   1      41.126 -18.118 -35.873  0.00  0.00    +0.000 HD
BRANCH  29  31
ATOM     31  C   UNL A   1      40.468 -20.043 -36.545  0.00  0.00    +0.041 A 
ATOM     32  C   UNL A   1      39.789 -20.853 -35.612  0.00  0.00    -0.005 A 
ATOM     33  C   UNL A   1      39.696 -22.220 -35.890  0.00  0.00    +0.047 A 
ATOM     34  N   UNL A   1      40.249 -22.798 -36.983  0.00  0.00    -0.251 NA
ATOM     35  C   UNL A   1      40.910 -22.030 -37.861  0.00  0.00    +0.073 A 
ATOM     36  C   UNL A   1      41.471 -22.639 -38.976  0.00  0.00    -0.036 A 
ATOM     37  C   UNL A   1      42.177 -21.914 -39.939  0.00  0.00    -0.060 A 
ATOM     38  C   UNL A   1      42.334 -20.544 -39.785  0.00  0.00    -0.061 A 
ATOM     39  C   UNL A   1      41.780 -19.914 -38.673  0.00  0.00    -0.051 A 
ATOM     40  C   UNL A   1      41.053 -20.639 -37.698  0.00  0.00    +0.021 A 
ATOM     41  C   UNL A   1      38.998 -23.176 -34.957  0.00  0.00    -0.010 C 
ATOM     42  C   UNL A   1      38.015 -22.491 -34.017  0.00  0.00    -0.047 C 
ATOM     43  C   UNL A   1      38.692 -21.306 -33.349  0.00  0.00    -0.049 C 
ATOM     44  C   UNL A   1      39.116 -20.271 -34.391  0.00  0.00    -0.024 C 
ENDBRANCH  29  31
ENDBRANCH  28  29
ENDBRANCH  27  28
ENDBRANCH  26  27
ENDBRANCH   3  26
TORSDOF 10
ENDMDL
MODEL 20
REMARK VINA RESULT:    -5.996     18.641     22.100
REMARK INTER + INTRA:         -14.268
REMARK INTER:                  -9.629
REMARK INTRA:                  -4.639
REMARK UNBOUND:                -4.766
REMARK  Name = cpd29.pdb
REMARK  12 active torsions:
REMARK  status: ('A' for Active; 'I' for Inactive)
REMARK    1  A    between atoms: C_1  and  C_2
REMARK    2  A    between atoms: C_6  and  N_7
REMARK    3  A    between atoms: N_7  and  C_8
REMARK    4  A    between atoms: C_13  and  C_14
REMARK    5  A    between atoms: N_16  and  C_17
REMARK    6  A    between atoms: C_17  and  C_18
REMARK    7  A    between atoms: N_20  and  C_21
REMARK    8  A    between atoms: C_21  and  C_22
REMARK    9  A    between atoms: C_22  and  C_23
REMARK   10  A    between atoms: C_23  and  N_24
REMARK   11  A    between atoms: N_24  and  C_25
REMARK   12  A    between atoms: C_39  and  C_40
REMARK                            x       y       z     vdW  Elec       q    Type
REMARK                         _______ _______ _______ _____ _____    ______ ____
ROOT
ATOM      1  C   UNL A   1      42.164 -14.404 -40.164  0.00  0.00    +0.230 C 
ATOM      2  O   UNL A   1      42.081 -14.033 -41.334  0.00  0.00    -0.274 OA
ATOM      3  N   UNL A   1      43.340 -14.346 -39.449  0.00  0.00    -0.314 N 
ATOM      4  H   UNL A   1      43.332 -14.602 -38.498  0.00  0.00    +0.000 HD
ENDROOT
BRANCH   1   5
ATOM      5  C   UNL A   1      41.011 -15.155 -39.479  0.00  0.00    +0.088 C 
BRANCH   5   8
ATOM      6  C   UNL A   1      41.906 -17.115 -38.241  0.00  0.00    +0.246 C 
ATOM      7  O   UNL A   1      42.214 -16.457 -37.252  0.00  0.00    -0.270 OA
ATOM      8  N   UNL A   1      41.172 -16.588 -39.278  0.00  0.00    -0.303 N 
ATOM      9  H   UNL A   1      40.737 -17.205 -39.910  0.00  0.00    +0.000 HD
BRANCH   6  15
ATOM     10  C   UNL A   1      42.231 -19.442 -37.240  0.00  0.00    +0.044 A 
ATOM     11  C   UNL A   1      42.557 -20.793 -37.458  0.00  0.00    -0.040 A 
ATOM     12  C   UNL A   1      42.975 -21.242 -38.713  0.00  0.00    -0.060 A 
ATOM     13  C   UNL A   1      43.041 -20.356 -39.783  0.00  0.00    -0.061 A 
ATOM     14  C   UNL A   1      42.685 -19.020 -39.601  0.00  0.00    -0.048 A 
ATOM     15  C   UNL A   1      42.278 -18.557 -38.339  0.00  0.00    +0.058 A 
BRANCH  10  16
ATOM     16  N   UNL A   1      41.670 -19.032 -35.995  0.00  0.00    -0.314 N 
ATOM     17  H   UNL A   1      41.696 -18.067 -35.800  0.00  0.00    +0.000 HD
BRANCH  16  23
ATOM     18  C   UNL A   1      37.670 -21.381 -34.046  0.00  0.00    -0.039 C 
ATOM     19  C   UNL A   1      39.121 -20.976 -34.030  0.00  0.00    -0.046 A 
ATOM     20  C   UNL A   1      39.917 -21.407 -32.959  0.00  0.00    -0.058 A 
ATOM     21  C   UNL A   1      41.257 -21.045 -32.880  0.00  0.00    -0.060 A 
ATOM     22  C   UNL A   1      41.825 -20.270 -33.886  0.00  0.00    -0.040 A 
ATOM     23  C   UNL A   1      41.076 -19.862 -35.001  0.00  0.00    +0.035 A 
ATOM     24  C   UNL A   1      39.688 -20.158 -35.040  0.00  0.00    -0.026 A 
ATOM     25  C   UNL A   1      38.832 -19.641 -36.172  0.00  0.00    -0.038 C 
ENDBRANCH  16  23
ENDBRANCH  10  16
ENDBRANCH   6  15
ENDBRANCH   5   8
ENDBRANCH   1   5
BRANCH   3  26
ATOM     26  C   UNL A   1      44.585 -13.921 -40.048  0.00  0.00    +0.013 C 
BRANCH  26  27
ATOM     27  C   UNL A   1      45.341 -15.068 -40.710  0.00  0.00    -0.022 C 
BRANCH  27  28
ATOM     28  C   UNL A   1      45.096 -16.371 -39.951  0.00  0.00    +0.011 C 
BRANCH  28  29
ATOM     29  N   UNL A   1      46.319 -16.763 -39.236  0.00  0.00    -0.343 N 
ATOM     30  H   UNL A   1      47.100 -16.178 -39.112  0.00  0.00    +0.000 HD
BRANCH  29  31
ATOM     31  C   UNL A   1      46.230 -18.101 -38.742  0.00  0.00    +0.041 A 
ATOM     32  C   UNL A   1      46.599 -19.196 -39.550  0.00  0.00    -0.005 A 
ATOM     33  C   UNL A   1      46.632 -20.459 -38.950  0.00  0.00    +0.047 A 
ATOM     34  N   UNL A   1      46.300 -20.678 -37.656  0.00  0.00    -0.251 NA
ATOM     35  C   UNL A   1      45.933 -19.639 -36.893  0.00  0.00    +0.073 A 
ATOM     36  C   UNL A   1      45.596 -19.881 -35.568  0.00  0.00    -0.036 A 
ATOM     37  C   UNL A   1      45.201 -18.856 -34.704  0.00  0.00    -0.060 A 
ATOM     38  C   UNL A   1      45.135 -17.553 -35.175  0.00  0.00    -0.061 A 
ATOM     39  C   UNL A   1      45.468 -17.288 -36.501  0.00  0.00    -0.051 A 
ATOM     40  C   UNL A   1      45.880 -18.319 -37.380  0.00  0.00    +0.021 A 
ATOM     41  C   UNL A   1      47.005 -21.698 -39.723  0.00  0.00    -0.010 C 
ATOM     42  C   UNL A   1      47.799 -21.401 -40.989  0.00  0.00    -0.047 C 
ATOM     43  C   UNL A   1      47.092 -20.320 -41.791  0.00  0.00    -0.049 C 
ATOM     44  C   UNL A   1      47.017 -19.020 -40.991  0.00  0.00    -0.024 C 
ENDBRANCH  29  31
ENDBRANCH  28  29
ENDBRANCH  27  28
ENDBRANCH  26  27
ENDBRANCH   3  26
TORSDOF 10
ENDMDL
