REMARK  Name = cpd29.pdb
REMARK  12 active torsions:
REMARK  status: ('A' for Active; 'I' for Inactive)
REMARK    1  A    between atoms: C_1  and  C_2
REMARK    2  A    between atoms: C_6  and  N_7
REMARK    3  A    between atoms: N_7  and  C_8
REMARK    4  A    between atoms: C_13  and  C_14
REMARK    5  A    between atoms: N_16  and  C_17
REMARK    6  A    between atoms: C_17  and  C_18
REMARK    7  A    between atoms: N_20  and  C_21
REMARK    8  A    between atoms: C_21  and  C_22
REMARK    9  A    between atoms: C_22  and  C_23
REMARK   10  A    between atoms: C_23  and  N_24
REMARK   11  A    between atoms: N_24  and  C_25
REMARK   12  A    between atoms: C_39  and  C_40
REMARK                            x       y       z     vdW  Elec       q    Type
REMARK                         _______ _______ _______ _____ _____    ______ ____
ROOT
ATOM      1  C   UNL A   1      -4.886  -1.624   1.158  0.00  0.00    +0.230 C 
ATOM      2  O   UNL A   1      -5.817  -0.833   1.004  0.00  0.00    -0.274 OA
ATOM      3  N   UNL A   1      -5.084  -2.972   1.357  0.00  0.00    -0.314 N 
ATOM      4  H   UNL A   1      -4.300  -3.565   1.415  0.00  0.00    +0.000 HD
ENDROOT
BRANCH   1   5
ATOM      5  C   UNL A   1      -3.442  -1.133   1.347  0.00  0.00    +0.088 C 
BRANCH   5   8
ATOM      6  C   UNL A   1      -1.939  -3.108   1.462  0.00  0.00    +0.246 C 
ATOM      7  O   UNL A   1      -2.597  -3.664   2.336  0.00  0.00    -0.270 OA
ATOM      8  N   UNL A   1      -2.376  -1.973   0.820  0.00  0.00    -0.303 N 
ATOM      9  H   UNL A   1      -1.951  -1.718  -0.031  0.00  0.00    +0.000 HD
BRANCH   6  15
ATOM     10  C   UNL A   1       0.418  -2.893   0.501  0.00  0.00    +0.044 A 
ATOM     11  C   UNL A   1       1.621  -3.534   0.154  0.00  0.00    -0.040 A 
ATOM     12  C   UNL A   1       1.756  -4.921   0.253  0.00  0.00    -0.060 A 
ATOM     13  C   UNL A   1       0.702  -5.690   0.736  0.00  0.00    -0.061 A 
ATOM     14  C   UNL A   1      -0.486  -5.073   1.124  0.00  0.00    -0.048 A 
ATOM     15  C   UNL A   1      -0.636  -3.681   1.013  0.00  0.00    +0.058 A 
BRANCH  10  16
ATOM     16  N   UNL A   1       0.347  -1.469   0.530  0.00  0.00    -0.314 N 
ATOM     17  H   UNL A   1      -0.158  -1.072   1.276  0.00  0.00    +0.000 HD
BRANCH  16  23
ATOM     18  C   UNL A   1       2.171   3.080  -0.609  0.00  0.00    -0.039 C 
ATOM     19  C   UNL A   1       1.779   1.669  -0.965  0.00  0.00    -0.046 A 
ATOM     20  C   UNL A   1       1.957   1.247  -2.291  0.00  0.00    -0.058 A 
ATOM     21  C   UNL A   1       1.593  -0.036  -2.682  0.00  0.00    -0.060 A 
ATOM     22  C   UNL A   1       1.071  -0.923  -1.746  0.00  0.00    -0.040 A 
ATOM     23  C   UNL A   1       0.925  -0.557  -0.399  0.00  0.00    +0.035 A 
ATOM     24  C   UNL A   1       1.216   0.779  -0.016  0.00  0.00    -0.026 A 
ATOM     25  C   UNL A   1       0.968   1.234   1.403  0.00  0.00    -0.038 C 
ENDBRANCH  16  23
ENDBRANCH  10  16
ENDBRANCH   6  15
ENDBRANCH   5   8
ENDBRANCH   1   5
BRANCH   3  26
ATOM     26  C   UNL A   1      -6.404  -3.546   1.484  0.00  0.00    +0.013 C 
BRANCH  26  27
ATOM     27  C   UNL A   1      -7.072  -3.792   0.135  0.00  0.00    -0.022 C 
BRANCH  27  28
ATOM     28  C   UNL A   1      -8.460  -4.396   0.335  0.00  0.00    +0.011 C 
BRANCH  28  29
ATOM     29  N   UNL A   1      -9.076  -4.663  -0.973  0.00  0.00    -0.343 N 
ATOM     30  H   UNL A   1      -8.621  -4.533  -1.836  0.00  0.00    +0.000 HD
BRANCH  29  31
ATOM     31  C   UNL A   1     -10.417  -5.135  -0.834  0.00  0.00    +0.041 A 
ATOM     32  C   UNL A   1     -10.694  -6.516  -0.764  0.00  0.00    -0.005 A 
ATOM     33  C   UNL A   1     -12.008  -6.897  -0.474  0.00  0.00    +0.047 A 
ATOM     34  N   UNL A   1     -13.018  -6.013  -0.293  0.00  0.00    -0.251 NA
ATOM     35  C   UNL A   1     -12.757  -4.701  -0.377  0.00  0.00    +0.073 A 
ATOM     36  C   UNL A   1     -13.804  -3.808  -0.188  0.00  0.00    -0.036 A 
ATOM     37  C   UNL A   1     -13.620  -2.425  -0.260  0.00  0.00    -0.060 A 
ATOM     38  C   UNL A   1     -12.359  -1.916  -0.533  0.00  0.00    -0.061 A 
ATOM     39  C   UNL A   1     -11.295  -2.794  -0.726  0.00  0.00    -0.051 A 
ATOM     40  C   UNL A   1     -11.470  -4.197  -0.644  0.00  0.00    +0.021 A 
ATOM     41  C   UNL A   1     -12.415  -8.345  -0.383  0.00  0.00    -0.010 C 
ATOM     42  C   UNL A   1     -11.243  -9.285  -0.128  0.00  0.00    -0.047 C 
ATOM     43  C   UNL A   1     -10.125  -8.983  -1.112  0.00  0.00    -0.049 C 
ATOM     44  C   UNL A   1      -9.610  -7.557  -0.919  0.00  0.00    -0.024 C 
ENDBRANCH  29  31
ENDBRANCH  28  29
ENDBRANCH  27  28
ENDBRANCH  26  27
ENDBRANCH   3  26
TORSDOF 10
