MODEL 1
REMARK VINA RESULT:    -8.616      0.000      0.000
REMARK INTER + INTRA:         -12.317
REMARK INTER:                 -11.638
REMARK INTRA:                  -0.679
REMARK UNBOUND:                -0.679
REMARK  Name = cpd331.pdb
REMARK  7 active torsions:
REMARK  status: ('A' for Active; 'I' for Inactive)
REMARK    1  A    between atoms: C_1  and  O_2
REMARK    2  A    between atoms: O_2  and  C_3
REMARK    3  A    between atoms: C_9  and  C_10
REMARK    4  A    between atoms: C_10  and  C_12
REMARK    5  A    between atoms: C_13  and  C_14
REMARK    6  A    between atoms: N_18  and  C_19
REMARK    7  A    between atoms: C_19  and  C_20
REMARK                            x       y       z     vdW  Elec       q    Type
REMARK                         _______ _______ _______ _____ _____    ______ ____
ROOT
ATOM      1  C   UNL A   1      36.045 -36.391 -28.921  0.00  0.00    -0.011 C 
ATOM      2  C   UNL A   1      34.891 -36.686 -28.301  0.00  0.00    -0.049 C 
ENDROOT
BRANCH   2   3
ATOM      3  C   UNL A   1      33.614 -36.034 -28.618  0.00  0.00    -0.009 A 
ATOM      4  C   UNL A   1      32.609 -35.997 -27.652  0.00  0.00    -0.052 A 
ATOM      5  C   UNL A   1      31.380 -35.417 -27.951  0.00  0.00    -0.045 A 
ATOM      6  C   UNL A   1      31.164 -34.892 -29.219  0.00  0.00    +0.005 A 
ATOM      7  N   UNL A   1      32.133 -34.948 -30.161  0.00  0.00    -0.348 N 
ATOM      8  C   UNL A   1      33.337 -35.505 -29.882  0.00  0.00    +0.012 A 
BRANCH   7   9
ATOM      9  C   UNL A   1      31.882 -34.388 -31.515  0.00  0.00    +0.048 C 
BRANCH   9  10
ATOM     10  C   UNL A   1      31.276 -33.010 -31.429  0.00  0.00    -0.028 A 
ATOM     11  C   UNL A   1      31.971 -31.967 -30.796  0.00  0.00    -0.055 A 
ATOM     12  C   UNL A   1      31.417 -30.686 -30.723  0.00  0.00    -0.043 A 
ATOM     13  C   UNL A   1      30.164 -30.438 -31.278  0.00  0.00    +0.041 A 
ATOM     14 CL   UNL A   1      29.484 -28.863 -31.189  0.00  0.00    -0.084 Cl
ATOM     15  C   UNL A   1      29.458 -31.463 -31.902  0.00  0.00    -0.043 A 
ATOM     16  C   UNL A   1      30.009 -32.746 -31.977  0.00  0.00    -0.055 A 
ENDBRANCH   9  10
ENDBRANCH   7   9
ENDBRANCH   2   3
BRANCH   1  17
ATOM     17  C   UNL A   1      37.337 -37.110 -28.696  0.00  0.00    +0.221 C 
ATOM     18  O   UNL A   1      37.388 -37.792 -27.672  0.00  0.00    -0.284 OA
BRANCH  17  25
ATOM     19  C   UNL A   1      41.706 -38.027 -30.568  0.00  0.00    +0.163 A 
ATOM     20  C   UNL A   1      42.429 -37.618 -31.697  0.00  0.00    -0.016 A 
ATOM     21  C   UNL A   1      41.892 -36.714 -32.623  0.00  0.00    -0.058 A 
ATOM     22  C   UNL A   1      40.610 -36.177 -32.455  0.00  0.00    -0.051 A 
ATOM     23  C   UNL A   1      39.865 -36.565 -31.329  0.00  0.00    +0.025 A 
ATOM     24  C   UNL A   1      38.575 -36.261 -30.817  0.00  0.00    -0.005 A 
ATOM     25  C   UNL A   1      38.419 -36.985 -29.648  0.00  0.00    +0.176 A 
ATOM     26  O   UNL A   1      39.548 -37.725 -29.425  0.00  0.00    -0.448 OA
ATOM     27  C   UNL A   1      40.428 -37.469 -30.435  0.00  0.00    +0.177 A 
BRANCH  19  29
ATOM     28  C   UNL A   1      43.367 -39.564 -29.844  0.00  0.00    +0.079 C 
ATOM     29  O   UNL A   1      42.136 -38.895 -29.606  0.00  0.00    -0.491 OA
ENDBRANCH  19  29
ENDBRANCH  17  25
ENDBRANCH   1  17
TORSDOF 6
ENDMDL
MODEL 2
REMARK VINA RESULT:    -7.951     25.650     28.716
REMARK INTER + INTRA:         -11.419
REMARK INTER:                 -10.502
REMARK INTRA:                  -0.917
REMARK UNBOUND:                -0.679
REMARK  Name = cpd331.pdb
REMARK  7 active torsions:
REMARK  status: ('A' for Active; 'I' for Inactive)
REMARK    1  A    between atoms: C_1  and  O_2
REMARK    2  A    between atoms: O_2  and  C_3
REMARK    3  A    between atoms: C_9  and  C_10
REMARK    4  A    between atoms: C_10  and  C_12
REMARK    5  A    between atoms: C_13  and  C_14
REMARK    6  A    between atoms: N_18  and  C_19
REMARK    7  A    between atoms: C_19  and  C_20
REMARK                            x       y       z     vdW  Elec       q    Type
REMARK                         _______ _______ _______ _____ _____    ______ ____
ROOT
ATOM      1  C   UNL A   1      50.989 -31.532 -53.646  0.00  0.00    -0.011 C 
ATOM      2  C   UNL A   1      51.917 -31.327 -52.698  0.00  0.00    -0.049 C 
ENDROOT
BRANCH   2   3
ATOM      3  C   UNL A   1      53.326 -31.714 -52.850  0.00  0.00    -0.009 A 
ATOM      4  C   UNL A   1      54.201 -30.855 -53.513  0.00  0.00    -0.052 A 
ATOM      5  C   UNL A   1      55.529 -31.226 -53.698  0.00  0.00    -0.045 A 
ATOM      6  C   UNL A   1      55.966 -32.459 -53.230  0.00  0.00    +0.005 A 
ATOM      7  N   UNL A   1      55.109 -33.300 -52.606  0.00  0.00    -0.348 N 
ATOM      8  C   UNL A   1      53.813 -32.950 -52.414  0.00  0.00    +0.012 A 
BRANCH   7   9
ATOM      9  C   UNL A   1      55.589 -34.619 -52.118  0.00  0.00    +0.048 C 
BRANCH   9  10
ATOM     10  C   UNL A   1      55.586 -34.674 -50.611  0.00  0.00    -0.028 A 
ATOM     11  C   UNL A   1      54.751 -35.579 -49.936  0.00  0.00    -0.055 A 
ATOM     12  C   UNL A   1      54.753 -35.641 -48.540  0.00  0.00    -0.043 A 
ATOM     13  C   UNL A   1      55.585 -34.797 -47.808  0.00  0.00    +0.041 A 
ATOM     14 CL   UNL A   1      55.587 -34.874 -46.091  0.00  0.00    -0.084 Cl
ATOM     15  C   UNL A   1      56.413 -33.889 -48.462  0.00  0.00    -0.043 A 
ATOM     16  C   UNL A   1      56.414 -33.824 -49.858  0.00  0.00    -0.055 A 
ENDBRANCH   9  10
ENDBRANCH   7   9
ENDBRANCH   2   3
BRANCH   1  17
ATOM     17  C   UNL A   1      49.573 -31.055 -53.566  0.00  0.00    +0.221 C 
ATOM     18  O   UNL A   1      49.426 -29.833 -53.618  0.00  0.00    -0.284 OA
BRANCH  17  25
ATOM     19  C   UNL A   1      47.552 -35.437 -53.196  0.00  0.00    +0.163 A 
ATOM     20  C   UNL A   1      46.252 -35.943 -53.061  0.00  0.00    -0.016 A 
ATOM     21  C   UNL A   1      45.138 -35.096 -53.004  0.00  0.00    -0.058 A 
ATOM     22  C   UNL A   1      45.278 -33.706 -53.084  0.00  0.00    -0.051 A 
ATOM     23  C   UNL A   1      46.569 -33.171 -53.224  0.00  0.00    +0.025 A 
ATOM     24  C   UNL A   1      47.115 -31.863 -53.334  0.00  0.00    -0.005 A 
ATOM     25  C   UNL A   1      48.488 -32.003 -53.443  0.00  0.00    +0.176 A 
ATOM     26  O   UNL A   1      48.808 -33.331 -53.396  0.00  0.00    -0.448 OA
ATOM     27  C   UNL A   1      47.651 -34.042 -53.271  0.00  0.00    +0.177 A 
BRANCH  19  29
ATOM     28  C   UNL A   1      48.683 -37.317 -54.108  0.00  0.00    +0.079 C 
ATOM     29  O   UNL A   1      48.700 -36.172 -53.266  0.00  0.00    -0.491 OA
ENDBRANCH  19  29
ENDBRANCH  17  25
ENDBRANCH   1  17
TORSDOF 6
ENDMDL
MODEL 3
REMARK VINA RESULT:    -7.881      5.586      9.513
REMARK INTER + INTRA:         -11.324
REMARK INTER:                 -10.734
REMARK INTRA:                  -0.590
REMARK UNBOUND:                -0.679
REMARK  Name = cpd331.pdb
REMARK  7 active torsions:
REMARK  status: ('A' for Active; 'I' for Inactive)
REMARK    1  A    between atoms: C_1  and  O_2
REMARK    2  A    between atoms: O_2  and  C_3
REMARK    3  A    between atoms: C_9  and  C_10
REMARK    4  A    between atoms: C_10  and  C_12
REMARK    5  A    between atoms: C_13  and  C_14
REMARK    6  A    between atoms: N_18  and  C_19
REMARK    7  A    between atoms: C_19  and  C_20
REMARK                            x       y       z     vdW  Elec       q    Type
REMARK                         _______ _______ _______ _____ _____    ______ ____
ROOT
ATOM      1  C   UNL A   1      33.045 -36.803 -26.717  0.00  0.00    -0.011 C 
ATOM      2  C   UNL A   1      34.222 -37.434 -26.856  0.00  0.00    -0.049 C 
ENDROOT
BRANCH   2   3
ATOM      3  C   UNL A   1      34.890 -37.623 -28.151  0.00  0.00    -0.009 A 
ATOM      4  C   UNL A   1      34.855 -38.877 -28.758  0.00  0.00    -0.052 A 
ATOM      5  C   UNL A   1      35.516 -39.081 -29.965  0.00  0.00    -0.045 A 
ATOM      6  C   UNL A   1      36.218 -38.032 -30.546  0.00  0.00    +0.005 A 
ATOM      7  N   UNL A   1      36.268 -36.822 -29.943  0.00  0.00    -0.348 N 
ATOM      8  C   UNL A   1      35.624 -36.607 -28.769  0.00  0.00    +0.012 A 
BRANCH   7   9
ATOM      9  C   UNL A   1      37.029 -35.712 -30.573  0.00  0.00    +0.048 C 
BRANCH   9  10
ATOM     10  C   UNL A   1      38.426 -36.148 -30.935  0.00  0.00    -0.028 A 
ATOM     11  C   UNL A   1      39.010 -35.732 -32.142  0.00  0.00    -0.055 A 
ATOM     12  C   UNL A   1      40.308 -36.126 -32.477  0.00  0.00    -0.043 A 
ATOM     13  C   UNL A   1      41.032 -36.942 -31.611  0.00  0.00    +0.041 A 
ATOM     14 CL   UNL A   1      42.628 -37.425 -32.023  0.00  0.00    -0.084 Cl
ATOM     15  C   UNL A   1      40.465 -37.371 -30.414  0.00  0.00    -0.043 A 
ATOM     16  C   UNL A   1      39.166 -36.979 -30.076  0.00  0.00    -0.055 A 
ENDBRANCH   9  10
ENDBRANCH   7   9
ENDBRANCH   2   3
BRANCH   1  17
ATOM     17  C   UNL A   1      32.393 -36.502 -25.405  0.00  0.00    +0.221 C 
ATOM     18  O   UNL A   1      31.366 -35.825 -25.471  0.00  0.00    -0.284 OA
BRANCH  17  25
ATOM     19  C   UNL A   1      33.651 -39.867 -22.161  0.00  0.00    +0.163 A 
ATOM     20  C   UNL A   1      34.306 -39.882 -20.922  0.00  0.00    -0.016 A 
ATOM     21  C   UNL A   1      34.780 -38.705 -20.329  0.00  0.00    -0.058 A 
ATOM     22  C   UNL A   1      34.615 -37.461 -20.950  0.00  0.00    -0.051 A 
ATOM     23  C   UNL A   1      33.958 -37.415 -22.191  0.00  0.00    +0.025 A 
ATOM     24  C   UNL A   1      33.606 -36.391 -23.110  0.00  0.00    -0.005 A 
ATOM     25  C   UNL A   1      32.962 -37.001 -24.173  0.00  0.00    +0.176 A 
ATOM     26  O   UNL A   1      32.912 -38.350 -23.952  0.00  0.00    -0.448 OA
ATOM     27  C   UNL A   1      33.506 -38.605 -22.751  0.00  0.00    +0.177 A 
BRANCH  19  29
ATOM     28  C   UNL A   1      31.873 -41.423 -22.407  0.00  0.00    +0.079 C 
ATOM     29  O   UNL A   1      33.148 -40.951 -22.821  0.00  0.00    -0.491 OA
ENDBRANCH  19  29
ENDBRANCH  17  25
ENDBRANCH   1  17
TORSDOF 6
ENDMDL
MODEL 4
REMARK VINA RESULT:    -7.749      4.525      9.224
REMARK INTER + INTRA:         -11.146
REMARK INTER:                 -10.289
REMARK INTRA:                  -0.857
REMARK UNBOUND:                -0.679
REMARK  Name = cpd331.pdb
REMARK  7 active torsions:
REMARK  status: ('A' for Active; 'I' for Inactive)
REMARK    1  A    between atoms: C_1  and  O_2
REMARK    2  A    between atoms: O_2  and  C_3
REMARK    3  A    between atoms: C_9  and  C_10
REMARK    4  A    between atoms: C_10  and  C_12
REMARK    5  A    between atoms: C_13  and  C_14
REMARK    6  A    between atoms: N_18  and  C_19
REMARK    7  A    between atoms: C_19  and  C_20
REMARK                            x       y       z     vdW  Elec       q    Type
REMARK                         _______ _______ _______ _____ _____    ______ ____
ROOT
ATOM      1  C   UNL A   1      33.339 -37.465 -32.742  0.00  0.00    -0.011 C 
ATOM      2  C   UNL A   1      33.233 -38.069 -31.547  0.00  0.00    -0.049 C 
ENDROOT
BRANCH   2   3
ATOM      3  C   UNL A   1      34.319 -38.848 -30.936  0.00  0.00    -0.009 A 
ATOM      4  C   UNL A   1      34.452 -40.198 -31.255  0.00  0.00    -0.052 A 
ATOM      5  C   UNL A   1      35.451 -40.957 -30.654  0.00  0.00    -0.045 A 
ATOM      6  C   UNL A   1      36.299 -40.361 -29.729  0.00  0.00    +0.005 A 
ATOM      7  N   UNL A   1      36.154 -39.055 -29.406  0.00  0.00    -0.348 N 
ATOM      8  C   UNL A   1      35.188 -38.302 -29.987  0.00  0.00    +0.012 A 
BRANCH   7   9
ATOM      9  C   UNL A   1      37.064 -38.433 -28.409  0.00  0.00    +0.048 C 
BRANCH   9  10
ATOM     10  C   UNL A   1      38.365 -38.016 -29.048  0.00  0.00    -0.028 A 
ATOM     11  C   UNL A   1      38.368 -37.140 -30.145  0.00  0.00    -0.055 A 
ATOM     12  C   UNL A   1      39.572 -36.742 -30.734  0.00  0.00    -0.043 A 
ATOM     13  C   UNL A   1      40.780 -37.220 -30.234  0.00  0.00    +0.041 A 
ATOM     14 CL   UNL A   1      42.260 -36.730 -30.957  0.00  0.00    -0.084 Cl
ATOM     15  C   UNL A   1      40.795 -38.095 -29.151  0.00  0.00    -0.043 A 
ATOM     16  C   UNL A   1      39.593 -38.496 -28.560  0.00  0.00    -0.055 A 
ENDBRANCH   9  10
ENDBRANCH   7   9
ENDBRANCH   2   3
BRANCH   1  17
ATOM     17  C   UNL A   1      32.292 -36.580 -33.341  0.00  0.00    +0.221 C 
ATOM     18  O   UNL A   1      31.763 -37.011 -34.366  0.00  0.00    -0.284 OA
BRANCH  17  25
ATOM     19  C   UNL A   1      33.163 -32.200 -31.475  0.00  0.00    +0.163 A 
ATOM     20  C   UNL A   1      32.397 -31.168 -30.916  0.00  0.00    -0.016 A 
ATOM     21  C   UNL A   1      31.006 -31.272 -30.792  0.00  0.00    -0.058 A 
ATOM     22  C   UNL A   1      30.323 -32.417 -31.219  0.00  0.00    -0.051 A 
ATOM     23  C   UNL A   1      31.066 -33.470 -31.778  0.00  0.00    +0.025 A 
ATOM     24  C   UNL A   1      30.760 -34.751 -32.312  0.00  0.00    -0.005 A 
ATOM     25  C   UNL A   1      31.955 -35.319 -32.717  0.00  0.00    +0.176 A 
ATOM     26  O   UNL A   1      32.976 -34.444 -32.465  0.00  0.00    -0.448 OA
ATOM     27  C   UNL A   1      32.444 -33.328 -31.890  0.00  0.00    +0.177 A 
BRANCH  19  29
ATOM     28  C   UNL A   1      35.285 -32.882 -30.651  0.00  0.00    +0.079 C 
ATOM     29  O   UNL A   1      34.519 -32.201 -31.636  0.00  0.00    -0.491 OA
ENDBRANCH  19  29
ENDBRANCH  17  25
ENDBRANCH   1  17
TORSDOF 6
ENDMDL
MODEL 5
REMARK VINA RESULT:    -7.743     16.118     17.873
REMARK INTER + INTRA:         -11.139
REMARK INTER:                 -10.265
REMARK INTRA:                  -0.873
REMARK UNBOUND:                -0.679
REMARK  Name = cpd331.pdb
REMARK  7 active torsions:
REMARK  status: ('A' for Active; 'I' for Inactive)
REMARK    1  A    between atoms: C_1  and  O_2
REMARK    2  A    between atoms: O_2  and  C_3
REMARK    3  A    between atoms: C_9  and  C_10
REMARK    4  A    between atoms: C_10  and  C_12
REMARK    5  A    between atoms: C_13  and  C_14
REMARK    6  A    between atoms: N_18  and  C_19
REMARK    7  A    between atoms: C_19  and  C_20
REMARK                            x       y       z     vdW  Elec       q    Type
REMARK                         _______ _______ _______ _____ _____    ______ ____
ROOT
ATOM      1  C   UNL A   1      43.351 -20.612 -36.166  0.00  0.00    -0.011 C 
ATOM      2  C   UNL A   1      42.297 -21.192 -36.762  0.00  0.00    -0.049 C 
ENDROOT
BRANCH   2   3
ATOM      3  C   UNL A   1      41.165 -21.766 -36.021  0.00  0.00    -0.009 A 
ATOM      4  C   UNL A   1      40.321 -22.672 -36.661  0.00  0.00    -0.052 A 
ATOM      5  C   UNL A   1      39.223 -23.194 -35.985  0.00  0.00    -0.045 A 
ATOM      6  C   UNL A   1      38.972 -22.793 -34.678  0.00  0.00    +0.005 A 
ATOM      7  N   UNL A   1      39.781 -21.897 -34.067  0.00  0.00    -0.348 N 
ATOM      8  C   UNL A   1      40.857 -21.384 -34.712  0.00  0.00    +0.012 A 
BRANCH   7   9
ATOM      9  C   UNL A   1      39.494 -21.473 -32.671  0.00  0.00    +0.048 C 
BRANCH   9  10
ATOM     10  C   UNL A   1      38.541 -20.305 -32.644  0.00  0.00    -0.028 A 
ATOM     11  C   UNL A   1      39.024 -18.998 -32.465  0.00  0.00    -0.055 A 
ATOM     12  C   UNL A   1      38.145 -17.912 -32.449  0.00  0.00    -0.043 A 
ATOM     13  C   UNL A   1      36.777 -18.122 -32.608  0.00  0.00    +0.041 A 
ATOM     14 CL   UNL A   1      35.697 -16.786 -32.589  0.00  0.00    -0.084 Cl
ATOM     15  C   UNL A   1      36.281 -19.412 -32.778  0.00  0.00    -0.043 A 
ATOM     16  C   UNL A   1      37.158 -20.501 -32.794  0.00  0.00    -0.055 A 
ENDBRANCH   9  10
ENDBRANCH   7   9
ENDBRANCH   2   3
BRANCH   1  17
ATOM     17  C   UNL A   1      44.464 -19.926 -36.893  0.00  0.00    +0.221 C 
ATOM     18  O   UNL A   1      45.283 -19.349 -36.176  0.00  0.00    -0.284 OA
BRANCH  17  25
ATOM     19  C   UNL A   1      45.555 -21.833 -41.206  0.00  0.00    +0.163 A 
ATOM     20  C   UNL A   1      45.389 -21.461 -42.547  0.00  0.00    -0.016 A 
ATOM     21  C   UNL A   1      44.768 -20.257 -42.903  0.00  0.00    -0.058 A 
ATOM     22  C   UNL A   1      44.289 -19.372 -41.930  0.00  0.00    -0.051 A 
ATOM     23  C   UNL A   1      44.447 -19.716 -40.577  0.00  0.00    +0.025 A 
ATOM     24  C   UNL A   1      44.109 -19.113 -39.335  0.00  0.00    -0.005 A 
ATOM     25  C   UNL A   1      44.535 -19.972 -38.337  0.00  0.00    +0.176 A 
ATOM     26  O   UNL A   1      45.107 -21.075 -38.908  0.00  0.00    -0.448 OA
ATOM     27  C   UNL A   1      45.063 -20.921 -40.263  0.00  0.00    +0.177 A 
BRANCH  19  29
ATOM     28  C   UNL A   1      47.565 -23.050 -40.854  0.00  0.00    +0.079 C 
ATOM     29  O   UNL A   1      46.149 -22.975 -40.753  0.00  0.00    -0.491 OA
ENDBRANCH  19  29
ENDBRANCH  17  25
ENDBRANCH   1  17
TORSDOF 6
ENDMDL
MODEL 6
REMARK VINA RESULT:    -7.686     33.153     36.499
REMARK INTER + INTRA:         -11.060
REMARK INTER:                 -10.462
REMARK INTRA:                  -0.598
REMARK UNBOUND:                -0.679
REMARK  Name = cpd331.pdb
REMARK  7 active torsions:
REMARK  status: ('A' for Active; 'I' for Inactive)
REMARK    1  A    between atoms: C_1  and  O_2
REMARK    2  A    between atoms: O_2  and  C_3
REMARK    3  A    between atoms: C_9  and  C_10
REMARK    4  A    between atoms: C_10  and  C_12
REMARK    5  A    between atoms: C_13  and  C_14
REMARK    6  A    between atoms: N_18  and  C_19
REMARK    7  A    between atoms: C_19  and  C_20
REMARK                            x       y       z     vdW  Elec       q    Type
REMARK                         _______ _______ _______ _____ _____    ______ ____
ROOT
ATOM      1  C   UNL A   1      61.220 -18.120 -10.359  0.00  0.00    -0.011 C 
ATOM      2  C   UNL A   1      62.041 -19.112 -10.741  0.00  0.00    -0.049 C 
ENDROOT
BRANCH   2   3
ATOM      3  C   UNL A   1      62.571 -20.124  -9.817  0.00  0.00    -0.009 A 
ATOM      4  C   UNL A   1      62.843 -19.766  -8.497  0.00  0.00    -0.052 A 
ATOM      5  C   UNL A   1      63.381 -20.703  -7.621  0.00  0.00    -0.045 A 
ATOM      6  C   UNL A   1      63.656 -21.986  -8.078  0.00  0.00    +0.005 A 
ATOM      7  N   UNL A   1      63.411 -22.324  -9.365  0.00  0.00    -0.348 N 
ATOM      8  C   UNL A   1      62.882 -21.423 -10.229  0.00  0.00    +0.012 A 
BRANCH   7   9
ATOM      9  C   UNL A   1      63.717 -23.699  -9.841  0.00  0.00    +0.048 C 
BRANCH   9  10
ATOM     10  C   UNL A   1      63.543 -24.708  -8.733  0.00  0.00    -0.028 A 
ATOM     11  C   UNL A   1      62.269 -25.212  -8.426  0.00  0.00    -0.055 A 
ATOM     12  C   UNL A   1      62.105 -26.155  -7.408  0.00  0.00    -0.043 A 
ATOM     13  C   UNL A   1      63.210 -26.597  -6.685  0.00  0.00    +0.041 A 
ATOM     14 CL   UNL A   1      63.008 -27.757  -5.434  0.00  0.00    -0.084 Cl
ATOM     15  C   UNL A   1      64.479 -26.102  -6.972  0.00  0.00    -0.043 A 
ATOM     16  C   UNL A   1      64.648 -25.158  -7.990  0.00  0.00    -0.055 A 
ENDBRANCH   9  10
ENDBRANCH   7   9
ENDBRANCH   2   3
BRANCH   1  17
ATOM     17  C   UNL A   1      60.581 -17.141 -11.291  0.00  0.00    +0.221 C 
ATOM     18  O   UNL A   1      61.339 -16.292 -11.762  0.00  0.00    -0.284 OA
BRANCH  17  25
ATOM     19  C   UNL A   1      56.537 -19.236 -12.928  0.00  0.00    +0.163 A 
ATOM     20  C   UNL A   1      55.181 -18.890 -13.012  0.00  0.00    -0.016 A 
ATOM     21  C   UNL A   1      54.709 -17.655 -12.548  0.00  0.00    -0.058 A 
ATOM     22  C   UNL A   1      55.577 -16.712 -11.984  0.00  0.00    -0.051 A 
ATOM     23  C   UNL A   1      56.942 -17.030 -11.892  0.00  0.00    +0.025 A 
ATOM     24  C   UNL A   1      58.102 -16.372 -11.402  0.00  0.00    -0.005 A 
ATOM     25  C   UNL A   1      59.170 -17.231 -11.593  0.00  0.00    +0.176 A 
ATOM     26  O   UNL A   1      58.717 -18.387 -12.168  0.00  0.00    -0.448 OA
ATOM     27  C   UNL A   1      57.372 -18.267 -12.357  0.00  0.00    +0.177 A 
BRANCH  19  29
ATOM     28  C   UNL A   1      57.453 -20.489 -14.727  0.00  0.00    +0.079 C 
ATOM     29  O   UNL A   1      57.098 -20.405 -13.353  0.00  0.00    -0.491 OA
ENDBRANCH  19  29
ENDBRANCH  17  25
ENDBRANCH   1  17
TORSDOF 6
ENDMDL
MODEL 7
REMARK VINA RESULT:    -7.646      7.965      9.828
REMARK INTER + INTRA:         -11.008
REMARK INTER:                 -10.185
REMARK INTRA:                  -0.823
REMARK UNBOUND:                -0.679
REMARK  Name = cpd331.pdb
REMARK  7 active torsions:
REMARK  status: ('A' for Active; 'I' for Inactive)
REMARK    1  A    between atoms: C_1  and  O_2
REMARK    2  A    between atoms: O_2  and  C_3
REMARK    3  A    between atoms: C_9  and  C_10
REMARK    4  A    between atoms: C_10  and  C_12
REMARK    5  A    between atoms: C_13  and  C_14
REMARK    6  A    between atoms: N_18  and  C_19
REMARK    7  A    between atoms: C_19  and  C_20
REMARK                            x       y       z     vdW  Elec       q    Type
REMARK                         _______ _______ _______ _____ _____    ______ ____
ROOT
ATOM      1  C   UNL A   1      33.619 -41.105 -32.502  0.00  0.00    -0.011 C 
ATOM      2  C   UNL A   1      34.952 -40.985 -32.386  0.00  0.00    -0.049 C 
ENDROOT
BRANCH   2   3
ATOM      3  C   UNL A   1      35.615 -40.478 -31.177  0.00  0.00    -0.009 A 
ATOM      4  C   UNL A   1      35.948 -41.370 -30.159  0.00  0.00    -0.052 A 
ATOM      5  C   UNL A   1      36.542 -40.900 -28.992  0.00  0.00    -0.045 A 
ATOM      6  C   UNL A   1      36.783 -39.539 -28.849  0.00  0.00    +0.005 A 
ATOM      7  N   UNL A   1      36.439 -38.673 -29.830  0.00  0.00    -0.348 N 
ATOM      8  C   UNL A   1      35.865 -39.118 -30.975  0.00  0.00    +0.012 A 
BRANCH   7   9
ATOM      9  C   UNL A   1      36.697 -37.219 -29.659  0.00  0.00    +0.048 C 
BRANCH   9  10
ATOM     10  C   UNL A   1      37.946 -36.799 -30.393  0.00  0.00    -0.028 A 
ATOM     11  C   UNL A   1      39.172 -37.427 -30.123  0.00  0.00    -0.055 A 
ATOM     12  C   UNL A   1      40.330 -37.048 -30.808  0.00  0.00    -0.043 A 
ATOM     13  C   UNL A   1      40.272 -36.037 -31.764  0.00  0.00    +0.041 A 
ATOM     14 CL   UNL A   1      41.695 -35.572 -32.606  0.00  0.00    -0.084 Cl
ATOM     15  C   UNL A   1      39.065 -35.399 -32.037  0.00  0.00    -0.043 A 
ATOM     16  C   UNL A   1      37.905 -35.775 -31.354  0.00  0.00    -0.055 A 
ENDBRANCH   9  10
ENDBRANCH   7   9
ENDBRANCH   2   3
BRANCH   1  17
ATOM     17  C   UNL A   1      32.921 -41.715 -33.676  0.00  0.00    +0.221 C 
ATOM     18  O   UNL A   1      32.065 -41.005 -34.205  0.00  0.00    -0.284 OA
BRANCH  17  25
ATOM     19  C   UNL A   1      33.049 -46.550 -33.495  0.00  0.00    +0.163 A 
ATOM     20  C   UNL A   1      33.574 -47.578 -34.289  0.00  0.00    -0.016 A 
ATOM     21  C   UNL A   1      34.269 -47.307 -35.475  0.00  0.00    -0.058 A 
ATOM     22  C   UNL A   1      34.472 -45.993 -35.913  0.00  0.00    -0.051 A 
ATOM     23  C   UNL A   1      33.962 -44.941 -35.133  0.00  0.00    +0.025 A 
ATOM     24  C   UNL A   1      33.955 -43.524 -35.229  0.00  0.00    -0.005 A 
ATOM     25  C   UNL A   1      33.270 -43.045 -34.126  0.00  0.00    +0.176 A 
ATOM     26  O   UNL A   1      32.850 -44.101 -33.365  0.00  0.00    -0.448 OA
ATOM     27  C   UNL A   1      33.272 -45.250 -33.966  0.00  0.00    +0.177 A 
BRANCH  19  29
ATOM     28  C   UNL A   1      32.804 -47.735 -31.450  0.00  0.00    +0.079 C 
ATOM     29  O   UNL A   1      32.364 -46.705 -32.324  0.00  0.00    -0.491 OA
ENDBRANCH  19  29
ENDBRANCH  17  25
ENDBRANCH   1  17
TORSDOF 6
ENDMDL
MODEL 8
REMARK VINA RESULT:    -7.590      8.173     10.210
REMARK INTER + INTRA:         -10.931
REMARK INTER:                 -10.234
REMARK INTRA:                  -0.697
REMARK UNBOUND:                -0.679
REMARK  Name = cpd331.pdb
REMARK  7 active torsions:
REMARK  status: ('A' for Active; 'I' for Inactive)
REMARK    1  A    between atoms: C_1  and  O_2
REMARK    2  A    between atoms: O_2  and  C_3
REMARK    3  A    between atoms: C_9  and  C_10
REMARK    4  A    between atoms: C_10  and  C_12
REMARK    5  A    between atoms: C_13  and  C_14
REMARK    6  A    between atoms: N_18  and  C_19
REMARK    7  A    between atoms: C_19  and  C_20
REMARK                            x       y       z     vdW  Elec       q    Type
REMARK                         _______ _______ _______ _____ _____    ______ ____
ROOT
ATOM      1  C   UNL A   1      34.551 -40.949 -33.114  0.00  0.00    -0.011 C 
ATOM      2  C   UNL A   1      34.248 -40.749 -31.822  0.00  0.00    -0.049 C 
ENDROOT
BRANCH   2   3
ATOM      3  C   UNL A   1      35.243 -40.379 -30.806  0.00  0.00    -0.009 A 
ATOM      4  C   UNL A   1      35.836 -41.379 -30.038  0.00  0.00    -0.052 A 
ATOM      5  C   UNL A   1      36.751 -41.040 -29.046  0.00  0.00    -0.045 A 
ATOM      6  C   UNL A   1      37.053 -39.702 -28.823  0.00  0.00    +0.005 A 
ATOM      7  N   UNL A   1      36.458 -38.733 -29.556  0.00  0.00    -0.348 N 
ATOM      8  C   UNL A   1      35.569 -39.048 -30.529  0.00  0.00    +0.012 A 
BRANCH   7   9
ATOM      9  C   UNL A   1      36.786 -37.305 -29.300  0.00  0.00    +0.048 C 
BRANCH   9  10
ATOM     10  C   UNL A   1      37.997 -36.876 -30.089  0.00  0.00    -0.028 A 
ATOM     11  C   UNL A   1      37.857 -36.028 -31.200  0.00  0.00    -0.055 A 
ATOM     12  C   UNL A   1      38.978 -35.620 -31.928  0.00  0.00    -0.043 A 
ATOM     13  C   UNL A   1      40.246 -36.059 -31.556  0.00  0.00    +0.041 A 
ATOM     14 CL   UNL A   1      41.623 -35.556 -32.451  0.00  0.00    -0.084 Cl
ATOM     15  C   UNL A   1      40.401 -36.906 -30.462  0.00  0.00    -0.043 A 
ATOM     16  C   UNL A   1      39.282 -37.317 -29.731  0.00  0.00    -0.055 A 
ENDBRANCH   9  10
ENDBRANCH   7   9
ENDBRANCH   2   3
BRANCH   1  17
ATOM     17  C   UNL A   1      33.547 -41.222 -34.189  0.00  0.00    +0.221 C 
ATOM     18  O   UNL A   1      32.815 -40.275 -34.478  0.00  0.00    -0.284 OA
BRANCH  17  25
ATOM     19  C   UNL A   1      32.084 -44.491 -37.446  0.00  0.00    +0.163 A 
ATOM     20  C   UNL A   1      32.350 -45.841 -37.714  0.00  0.00    -0.016 A 
ATOM     21  C   UNL A   1      33.245 -46.581 -36.931  0.00  0.00    -0.058 A 
ATOM     22  C   UNL A   1      33.909 -46.002 -35.843  0.00  0.00    -0.051 A 
ATOM     23  C   UNL A   1      33.658 -44.651 -35.548  0.00  0.00    +0.025 A 
ATOM     24  C   UNL A   1      34.115 -43.729 -34.568  0.00  0.00    -0.005 A 
ATOM     25  C   UNL A   1      33.485 -42.523 -34.819  0.00  0.00    +0.176 A 
ATOM     26  O   UNL A   1      32.672 -42.660 -35.911  0.00  0.00    -0.448 OA
ATOM     27  C   UNL A   1      32.768 -43.947 -36.351  0.00  0.00    +0.177 A 
BRANCH  19  29
ATOM     28  C   UNL A   1      29.848 -43.781 -37.820  0.00  0.00    +0.079 C 
ATOM     29  O   UNL A   1      31.229 -43.684 -38.140  0.00  0.00    -0.491 OA
ENDBRANCH  19  29
ENDBRANCH  17  25
ENDBRANCH   1  17
TORSDOF 6
ENDMDL
MODEL 9
REMARK VINA RESULT:    -7.491     17.010     20.042
REMARK INTER + INTRA:         -10.797
REMARK INTER:                  -9.948
REMARK INTRA:                  -0.850
REMARK UNBOUND:                -0.679
REMARK  Name = cpd331.pdb
REMARK  7 active torsions:
REMARK  status: ('A' for Active; 'I' for Inactive)
REMARK    1  A    between atoms: C_1  and  O_2
REMARK    2  A    between atoms: O_2  and  C_3
REMARK    3  A    between atoms: C_9  and  C_10
REMARK    4  A    between atoms: C_10  and  C_12
REMARK    5  A    between atoms: C_13  and  C_14
REMARK    6  A    between atoms: N_18  and  C_19
REMARK    7  A    between atoms: C_19  and  C_20
REMARK                            x       y       z     vdW  Elec       q    Type
REMARK                         _______ _______ _______ _____ _____    ______ ____
ROOT
ATOM      1  C   UNL A   1      43.088 -18.521 -34.602  0.00  0.00    -0.011 C 
ATOM      2  C   UNL A   1      44.260 -19.176 -34.583  0.00  0.00    -0.049 C 
ENDROOT
BRANCH   2   3
ATOM      3  C   UNL A   1      45.231 -19.125 -35.684  0.00  0.00    -0.009 A 
ATOM      4  C   UNL A   1      46.577 -18.900 -35.395  0.00  0.00    -0.052 A 
ATOM      5  C   UNL A   1      47.502 -18.810 -36.430  0.00  0.00    -0.045 A 
ATOM      6  C   UNL A   1      47.070 -18.932 -37.746  0.00  0.00    +0.005 A 
ATOM      7  N   UNL A   1      45.761 -19.128 -38.023  0.00  0.00    -0.348 N 
ATOM      8  C   UNL A   1      44.848 -19.223 -37.025  0.00  0.00    +0.012 A 
BRANCH   7   9
ATOM      9  C   UNL A   1      45.314 -19.249 -39.436  0.00  0.00    +0.048 C 
BRANCH   9  10
ATOM     10  C   UNL A   1      46.059 -20.349 -40.149  0.00  0.00    -0.028 A 
ATOM     11  C   UNL A   1      45.770 -21.695 -39.876  0.00  0.00    -0.055 A 
ATOM     12  C   UNL A   1      46.451 -22.717 -40.543  0.00  0.00    -0.043 A 
ATOM     13  C   UNL A   1      47.429 -22.403 -41.482  0.00  0.00    +0.041 A 
ATOM     14 CL   UNL A   1      48.265 -23.660 -42.302  0.00  0.00    -0.084 Cl
ATOM     15  C   UNL A   1      47.733 -21.073 -41.759  0.00  0.00    -0.043 A 
ATOM     16  C   UNL A   1      47.054 -20.047 -41.094  0.00  0.00    -0.055 A 
ENDBRANCH   9  10
ENDBRANCH   7   9
ENDBRANCH   2   3
BRANCH   1  17
ATOM     17  C   UNL A   1      42.127 -18.468 -33.456  0.00  0.00    +0.221 C 
ATOM     18  O   UNL A   1      42.371 -17.612 -32.605  0.00  0.00    -0.284 OA
BRANCH  17  25
ATOM     19  C   UNL A   1      39.586 -22.432 -34.579  0.00  0.00    +0.163 A 
ATOM     20  C   UNL A   1      38.354 -22.983 -34.204  0.00  0.00    -0.016 A 
ATOM     21  C   UNL A   1      37.519 -22.348 -33.275  0.00  0.00    -0.058 A 
ATOM     22  C   UNL A   1      37.882 -21.131 -32.685  0.00  0.00    -0.051 A 
ATOM     23  C   UNL A   1      39.110 -20.553 -33.047  0.00  0.00    +0.025 A 
ATOM     24  C   UNL A   1      39.816 -19.373 -32.688  0.00  0.00    -0.005 A 
ATOM     25  C   UNL A   1      41.002 -19.375 -33.402  0.00  0.00    +0.176 A 
ATOM     26  O   UNL A   1      41.059 -20.503 -34.173  0.00  0.00    -0.448 OA
ATOM     27  C   UNL A   1      39.914 -21.215 -33.967  0.00  0.00    +0.177 A 
BRANCH  19  29
ATOM     28  C   UNL A   1      40.259 -22.655 -36.847  0.00  0.00    +0.079 C 
ATOM     29  O   UNL A   1      40.468 -22.963 -35.475  0.00  0.00    -0.491 OA
ENDBRANCH  19  29
ENDBRANCH  17  25
ENDBRANCH   1  17
TORSDOF 6
ENDMDL
MODEL 10
REMARK VINA RESULT:    -7.435      4.957      6.434
REMARK INTER + INTRA:         -10.722
REMARK INTER:                 -10.502
REMARK INTRA:                  -0.220
REMARK UNBOUND:                -0.679
REMARK  Name = cpd331.pdb
REMARK  7 active torsions:
REMARK  status: ('A' for Active; 'I' for Inactive)
REMARK    1  A    between atoms: C_1  and  O_2
REMARK    2  A    between atoms: O_2  and  C_3
REMARK    3  A    between atoms: C_9  and  C_10
REMARK    4  A    between atoms: C_10  and  C_12
REMARK    5  A    between atoms: C_13  and  C_14
REMARK    6  A    between atoms: N_18  and  C_19
REMARK    7  A    between atoms: C_19  and  C_20
REMARK                            x       y       z     vdW  Elec       q    Type
REMARK                         _______ _______ _______ _____ _____    ______ ____
ROOT
ATOM      1  C   UNL A   1      35.998 -37.166 -29.533  0.00  0.00    -0.011 C 
ATOM      2  C   UNL A   1      36.178 -38.493 -29.623  0.00  0.00    -0.049 C 
ENDROOT
BRANCH   2   3
ATOM      3  C   UNL A   1      35.445 -39.466 -28.802  0.00  0.00    -0.009 A 
ATOM      4  C   UNL A   1      35.787 -40.815 -28.875  0.00  0.00    -0.052 A 
ATOM      5  C   UNL A   1      35.076 -41.753 -28.133  0.00  0.00    -0.045 A 
ATOM      6  C   UNL A   1      34.019 -41.332 -27.334  0.00  0.00    +0.005 A 
ATOM      7  N   UNL A   1      33.676 -40.025 -27.282  0.00  0.00    -0.348 N 
ATOM      8  C   UNL A   1      34.363 -39.100 -27.996  0.00  0.00    +0.012 A 
BRANCH   7   9
ATOM      9  C   UNL A   1      32.538 -39.592 -26.428  0.00  0.00    +0.048 C 
BRANCH   9  10
ATOM     10  C   UNL A   1      33.024 -39.064 -25.102  0.00  0.00    -0.028 A 
ATOM     11  C   UNL A   1      33.232 -37.687 -24.920  0.00  0.00    -0.055 A 
ATOM     12  C   UNL A   1      33.673 -37.192 -23.690  0.00  0.00    -0.043 A 
ATOM     13  C   UNL A   1      33.913 -38.068 -22.634  0.00  0.00    +0.041 A 
ATOM     14 CL   UNL A   1      34.454 -37.459 -21.121  0.00  0.00    -0.084 Cl
ATOM     15  C   UNL A   1      33.719 -39.436 -22.800  0.00  0.00    -0.043 A 
ATOM     16  C   UNL A   1      33.279 -39.936 -24.030  0.00  0.00    -0.055 A 
ENDBRANCH   9  10
ENDBRANCH   7   9
ENDBRANCH   2   3
BRANCH   1  17
ATOM     17  C   UNL A   1      36.649 -36.158 -30.426  0.00  0.00    +0.221 C 
ATOM     18  O   UNL A   1      35.926 -35.228 -30.785  0.00  0.00    -0.284 OA
BRANCH  17  25
ATOM     19  C   UNL A   1      41.136 -37.955 -30.169  0.00  0.00    +0.163 A 
ATOM     20  C   UNL A   1      42.336 -37.783 -30.872  0.00  0.00    -0.016 A 
ATOM     21  C   UNL A   1      42.432 -36.900 -31.955  0.00  0.00    -0.058 A 
ATOM     22  C   UNL A   1      41.329 -36.148 -32.378  0.00  0.00    -0.051 A 
ATOM     23  C   UNL A   1      40.114 -36.296 -31.688  0.00  0.00    +0.025 A 
ATOM     24  C   UNL A   1      38.813 -35.737 -31.801  0.00  0.00    -0.005 A 
ATOM     25  C   UNL A   1      38.037 -36.307 -30.808  0.00  0.00    +0.176 A 
ATOM     26  O   UNL A   1      38.797 -37.194 -30.098  0.00  0.00    -0.448 OA
ATOM     27  C   UNL A   1      40.057 -37.186 -30.622  0.00  0.00    +0.177 A 
BRANCH  19  29
ATOM     28  C   UNL A   1      40.511 -38.177 -27.887  0.00  0.00    +0.079 C 
ATOM     29  O   UNL A   1      40.939 -38.782 -29.101  0.00  0.00    -0.491 OA
ENDBRANCH  19  29
ENDBRANCH  17  25
ENDBRANCH   1  17
TORSDOF 6
ENDMDL
MODEL 11
REMARK VINA RESULT:    -7.422      3.448      5.256
REMARK INTER + INTRA:         -10.704
REMARK INTER:                  -9.901
REMARK INTRA:                  -0.803
REMARK UNBOUND:                -0.679
REMARK  Name = cpd331.pdb
REMARK  7 active torsions:
REMARK  status: ('A' for Active; 'I' for Inactive)
REMARK    1  A    between atoms: C_1  and  O_2
REMARK    2  A    between atoms: O_2  and  C_3
REMARK    3  A    between atoms: C_9  and  C_10
REMARK    4  A    between atoms: C_10  and  C_12
REMARK    5  A    between atoms: C_13  and  C_14
REMARK    6  A    between atoms: N_18  and  C_19
REMARK    7  A    between atoms: C_19  and  C_20
REMARK                            x       y       z     vdW  Elec       q    Type
REMARK                         _______ _______ _______ _____ _____    ______ ____
ROOT
ATOM      1  C   UNL A   1      33.040 -32.814 -31.070  0.00  0.00    -0.011 C 
ATOM      2  C   UNL A   1      32.395 -31.832 -30.420  0.00  0.00    -0.049 C 
ENDROOT
BRANCH   2   3
ATOM      3  C   UNL A   1      30.963 -31.882 -30.095  0.00  0.00    -0.009 A 
ATOM      4  C   UNL A   1      30.449 -33.011 -29.458  0.00  0.00    -0.052 A 
ATOM      5  C   UNL A   1      29.088 -33.089 -29.178  0.00  0.00    -0.045 A 
ATOM      6  C   UNL A   1      28.253 -32.044 -29.552  0.00  0.00    +0.005 A 
ATOM      7  N   UNL A   1      28.751 -30.960 -30.189  0.00  0.00    -0.348 N 
ATOM      8  C   UNL A   1      30.076 -30.867 -30.463  0.00  0.00    +0.012 A 
BRANCH   7   9
ATOM      9  C   UNL A   1      27.843 -29.853 -30.588  0.00  0.00    +0.048 C 
BRANCH   9  10
ATOM     10  C   UNL A   1      27.946 -28.693 -29.630  0.00  0.00    -0.028 A 
ATOM     11  C   UNL A   1      28.508 -27.475 -30.047  0.00  0.00    -0.055 A 
ATOM     12  C   UNL A   1      28.596 -26.395 -29.165  0.00  0.00    -0.043 A 
ATOM     13  C   UNL A   1      28.128 -26.524 -27.859  0.00  0.00    +0.041 A 
ATOM     14 CL   UNL A   1      28.236 -25.195 -26.776  0.00  0.00    -0.084 Cl
ATOM     15  C   UNL A   1      27.576 -27.726 -27.428  0.00  0.00    -0.043 A 
ATOM     16  C   UNL A   1      27.487 -28.810 -28.307  0.00  0.00    -0.055 A 
ENDBRANCH   9  10
ENDBRANCH   7   9
ENDBRANCH   2   3
BRANCH   1  17
ATOM     17  C   UNL A   1      34.514 -32.839 -31.322  0.00  0.00    +0.221 C 
ATOM     18  O   UNL A   1      34.957 -31.874 -31.945  0.00  0.00    -0.284 OA
BRANCH  17  25
ATOM     19  C   UNL A   1      38.410 -35.704 -31.109  0.00  0.00    +0.163 A 
ATOM     20  C   UNL A   1      38.809 -36.814 -30.352  0.00  0.00    -0.016 A 
ATOM     21  C   UNL A   1      37.983 -37.360 -29.361  0.00  0.00    -0.058 A 
ATOM     22  C   UNL A   1      36.721 -36.820 -29.088  0.00  0.00    -0.051 A 
ATOM     23  C   UNL A   1      36.293 -35.710 -29.836  0.00  0.00    +0.025 A 
ATOM     24  C   UNL A   1      35.126 -34.900 -29.863  0.00  0.00    -0.005 A 
ATOM     25  C   UNL A   1      35.320 -33.940 -30.840  0.00  0.00    +0.176 A 
ATOM     26  O   UNL A   1      36.552 -34.118 -31.406  0.00  0.00    -0.448 OA
ATOM     27  C   UNL A   1      37.141 -35.192 -30.807  0.00  0.00    +0.177 A 
BRANCH  19  29
ATOM     28  C   UNL A   1      40.392 -34.552 -31.734  0.00  0.00    +0.079 C 
ATOM     29  O   UNL A   1      39.132 -35.100 -32.098  0.00  0.00    -0.491 OA
ENDBRANCH  19  29
ENDBRANCH  17  25
ENDBRANCH   1  17
TORSDOF 6
ENDMDL
MODEL 12
REMARK VINA RESULT:    -7.411     16.662     19.557
REMARK INTER + INTRA:         -10.689
REMARK INTER:                  -9.753
REMARK INTRA:                  -0.937
REMARK UNBOUND:                -0.679
REMARK  Name = cpd331.pdb
REMARK  7 active torsions:
REMARK  status: ('A' for Active; 'I' for Inactive)
REMARK    1  A    between atoms: C_1  and  O_2
REMARK    2  A    between atoms: O_2  and  C_3
REMARK    3  A    between atoms: C_9  and  C_10
REMARK    4  A    between atoms: C_10  and  C_12
REMARK    5  A    between atoms: C_13  and  C_14
REMARK    6  A    between atoms: N_18  and  C_19
REMARK    7  A    between atoms: C_19  and  C_20
REMARK                            x       y       z     vdW  Elec       q    Type
REMARK                         _______ _______ _______ _____ _____    ______ ____
ROOT
ATOM      1  C   UNL A   1      42.103 -21.604 -38.796  0.00  0.00    -0.011 C 
ATOM      2  C   UNL A   1      42.484 -21.401 -40.068  0.00  0.00    -0.049 C 
ENDROOT
BRANCH   2   3
ATOM      3  C   UNL A   1      43.771 -20.797 -40.439  0.00  0.00    -0.009 A 
ATOM      4  C   UNL A   1      43.959 -20.344 -41.744  0.00  0.00    -0.052 A 
ATOM      5  C   UNL A   1      45.186 -19.805 -42.120  0.00  0.00    -0.045 A 
ATOM      6  C   UNL A   1      46.217 -19.739 -41.191  0.00  0.00    +0.005 A 
ATOM      7  N   UNL A   1      46.038 -20.200 -39.932  0.00  0.00    -0.348 N 
ATOM      8  C   UNL A   1      44.847 -20.723 -39.549  0.00  0.00    +0.012 A 
BRANCH   7   9
ATOM      9  C   UNL A   1      47.153 -20.130 -38.952  0.00  0.00    +0.048 C 
BRANCH   9  10
ATOM     10  C   UNL A   1      46.699 -19.506 -37.656  0.00  0.00    -0.028 A 
ATOM     11  C   UNL A   1      46.457 -20.307 -36.529  0.00  0.00    -0.055 A 
ATOM     12  C   UNL A   1      46.046 -19.732 -35.323  0.00  0.00    -0.043 A 
ATOM     13  C   UNL A   1      45.868 -18.354 -35.236  0.00  0.00    +0.041 A 
ATOM     14 CL   UNL A   1      45.363 -17.647 -33.754  0.00  0.00    -0.084 Cl
ATOM     15  C   UNL A   1      46.095 -17.546 -36.347  0.00  0.00    -0.043 A 
ATOM     16  C   UNL A   1      46.507 -18.117 -37.555  0.00  0.00    -0.055 A 
ENDBRANCH   9  10
ENDBRANCH   7   9
ENDBRANCH   2   3
BRANCH   1  17
ATOM     17  C   UNL A   1      40.849 -22.311 -38.389  0.00  0.00    +0.221 C 
ATOM     18  O   UNL A   1      40.492 -23.221 -39.138  0.00  0.00    -0.284 OA
BRANCH  17  25
ATOM     19  C   UNL A   1      39.557 -22.601 -33.733  0.00  0.00    +0.163 A 
ATOM     20  C   UNL A   1      38.727 -21.875 -32.867  0.00  0.00    -0.016 A 
ATOM     21  C   UNL A   1      38.017 -20.749 -33.303  0.00  0.00    -0.058 A 
ATOM     22  C   UNL A   1      38.104 -20.304 -34.628  0.00  0.00    -0.051 A 
ATOM     23  C   UNL A   1      38.924 -21.016 -35.520  0.00  0.00    +0.025 A 
ATOM     24  C   UNL A   1      39.270 -20.891 -36.892  0.00  0.00    -0.005 A 
ATOM     25  C   UNL A   1      40.147 -21.921 -37.186  0.00  0.00    +0.176 A 
ATOM     26  O   UNL A   1      40.361 -22.663 -36.058  0.00  0.00    -0.448 OA
ATOM     27  C   UNL A   1      39.618 -22.124 -35.049  0.00  0.00    +0.177 A 
BRANCH  19  29
ATOM     28  C   UNL A   1      41.193 -23.595 -32.326  0.00  0.00    +0.079 C 
ATOM     29  O   UNL A   1      40.284 -23.710 -33.413  0.00  0.00    -0.491 OA
ENDBRANCH  19  29
ENDBRANCH  17  25
ENDBRANCH   1  17
TORSDOF 6
ENDMDL
MODEL 13
REMARK VINA RESULT:    -7.308      1.924      2.977
REMARK INTER + INTRA:         -10.551
REMARK INTER:                  -9.715
REMARK INTRA:                  -0.836
REMARK UNBOUND:                -0.679
REMARK  Name = cpd331.pdb
REMARK  7 active torsions:
REMARK  status: ('A' for Active; 'I' for Inactive)
REMARK    1  A    between atoms: C_1  and  O_2
REMARK    2  A    between atoms: O_2  and  C_3
REMARK    3  A    between atoms: C_9  and  C_10
REMARK    4  A    between atoms: C_10  and  C_12
REMARK    5  A    between atoms: C_13  and  C_14
REMARK    6  A    between atoms: N_18  and  C_19
REMARK    7  A    between atoms: C_19  and  C_20
REMARK                            x       y       z     vdW  Elec       q    Type
REMARK                         _______ _______ _______ _____ _____    ______ ____
ROOT
ATOM      1  C   UNL A   1      35.195 -36.293 -29.771  0.00  0.00    -0.011 C 
ATOM      2  C   UNL A   1      34.377 -35.379 -29.225  0.00  0.00    -0.049 C 
ENDROOT
BRANCH   2   3
ATOM      3  C   UNL A   1      33.541 -34.468 -30.018  0.00  0.00    -0.009 A 
ATOM      4  C   UNL A   1      34.152 -33.555 -30.877  0.00  0.00    -0.052 A 
ATOM      5  C   UNL A   1      33.374 -32.660 -31.605  0.00  0.00    -0.045 A 
ATOM      6  C   UNL A   1      31.992 -32.677 -31.456  0.00  0.00    +0.005 A 
ATOM      7  N   UNL A   1      31.404 -33.549 -30.605  0.00  0.00    -0.348 N 
ATOM      8  C   UNL A   1      32.148 -34.431 -29.894  0.00  0.00    +0.012 A 
BRANCH   7   9
ATOM      9  C   UNL A   1      29.925 -33.550 -30.451  0.00  0.00    +0.048 C 
BRANCH   9  10
ATOM     10  C   UNL A   1      29.434 -32.226 -29.925  0.00  0.00    -0.028 A 
ATOM     11  C   UNL A   1      29.823 -31.779 -28.652  0.00  0.00    -0.055 A 
ATOM     12  C   UNL A   1      29.377 -30.547 -28.165  0.00  0.00    -0.043 A 
ATOM     13  C   UNL A   1      28.537 -29.755 -28.942  0.00  0.00    +0.041 A 
ATOM     14 CL   UNL A   1      27.991 -28.240 -28.343  0.00  0.00    -0.084 Cl
ATOM     15  C   UNL A   1      28.136 -30.186 -30.204  0.00  0.00    -0.043 A 
ATOM     16  C   UNL A   1      28.579 -31.418 -30.695  0.00  0.00    -0.055 A 
ENDBRANCH   9  10
ENDBRANCH   7   9
ENDBRANCH   2   3
BRANCH   1  17
ATOM     17  C   UNL A   1      35.977 -37.304 -28.993  0.00  0.00    +0.221 C 
ATOM     18  O   UNL A   1      35.326 -37.960 -28.179  0.00  0.00    -0.284 OA
BRANCH  17  25
ATOM     19  C   UNL A   1      40.245 -36.410 -31.093  0.00  0.00    +0.163 A 
ATOM     20  C   UNL A   1      41.559 -36.877 -30.952  0.00  0.00    -0.016 A 
ATOM     21  C   UNL A   1      41.893 -37.854 -30.005  0.00  0.00    -0.058 A 
ATOM     22  C   UNL A   1      40.923 -38.409 -29.162  0.00  0.00    -0.051 A 
ATOM     23  C   UNL A   1      39.596 -37.964 -29.285  0.00  0.00    +0.025 A 
ATOM     24  C   UNL A   1      38.366 -38.264 -28.641  0.00  0.00    -0.005 A 
ATOM     25  C   UNL A   1      37.396 -37.466 -29.222  0.00  0.00    +0.176 A 
ATOM     26  O   UNL A   1      37.975 -36.686 -30.185  0.00  0.00    -0.448 OA
ATOM     27  C   UNL A   1      39.304 -36.988 -30.232  0.00  0.00    +0.177 A 
BRANCH  19  29
ATOM     28  C   UNL A   1      40.157 -34.117 -31.709  0.00  0.00    +0.079 C 
ATOM     29  O   UNL A   1      39.815 -35.469 -31.983  0.00  0.00    -0.491 OA
ENDBRANCH  19  29
ENDBRANCH  17  25
ENDBRANCH   1  17
TORSDOF 6
ENDMDL
MODEL 14
REMARK VINA RESULT:    -7.276     17.002     19.758
REMARK INTER + INTRA:         -10.507
REMARK INTER:                  -9.449
REMARK INTRA:                  -1.058
REMARK UNBOUND:                -0.679
REMARK  Name = cpd331.pdb
REMARK  7 active torsions:
REMARK  status: ('A' for Active; 'I' for Inactive)
REMARK    1  A    between atoms: C_1  and  O_2
REMARK    2  A    between atoms: O_2  and  C_3
REMARK    3  A    between atoms: C_9  and  C_10
REMARK    4  A    between atoms: C_10  and  C_12
REMARK    5  A    between atoms: C_13  and  C_14
REMARK    6  A    between atoms: N_18  and  C_19
REMARK    7  A    between atoms: C_19  and  C_20
REMARK                            x       y       z     vdW  Elec       q    Type
REMARK                         _______ _______ _______ _____ _____    ______ ____
ROOT
ATOM      1  C   UNL A   1      42.048 -21.753 -38.907  0.00  0.00    -0.011 C 
ATOM      2  C   UNL A   1      42.342 -21.588 -40.206  0.00  0.00    -0.049 C 
ENDROOT
BRANCH   2   3
ATOM      3  C   UNL A   1      43.610 -21.018 -40.682  0.00  0.00    -0.009 A 
ATOM      4  C   UNL A   1      43.718 -20.614 -42.012  0.00  0.00    -0.052 A 
ATOM      5  C   UNL A   1      44.925 -20.109 -42.487  0.00  0.00    -0.045 A 
ATOM      6  C   UNL A   1      46.015 -20.026 -41.630  0.00  0.00    +0.005 A 
ATOM      7  N   UNL A   1      45.913 -20.438 -40.346  0.00  0.00    -0.348 N 
ATOM      8  C   UNL A   1      44.742 -20.928 -39.867  0.00  0.00    +0.012 A 
BRANCH   7   9
ATOM      9  C   UNL A   1      47.091 -20.350 -39.443  0.00  0.00    +0.048 C 
BRANCH   9  10
ATOM     10  C   UNL A   1      46.731 -19.668 -38.147  0.00  0.00    -0.028 A 
ATOM     11  C   UNL A   1      46.549 -20.421 -36.976  0.00  0.00    -0.055 A 
ATOM     12  C   UNL A   1      46.226 -19.792 -35.770  0.00  0.00    -0.043 A 
ATOM     13  C   UNL A   1      46.078 -18.408 -35.726  0.00  0.00    +0.041 A 
ATOM     14 CL   UNL A   1      45.682 -17.636 -34.243  0.00  0.00    -0.084 Cl
ATOM     15  C   UNL A   1      46.248 -17.648 -36.880  0.00  0.00    -0.043 A 
ATOM     16  C   UNL A   1      46.571 -18.273 -38.088  0.00  0.00    -0.055 A 
ENDBRANCH   9  10
ENDBRANCH   7   9
ENDBRANCH   2   3
BRANCH   1  17
ATOM     17  C   UNL A   1      40.815 -22.426 -38.394  0.00  0.00    +0.221 C 
ATOM     18  O   UNL A   1      40.172 -23.055 -39.234  0.00  0.00    -0.284 OA
BRANCH  17  25
ATOM     19  C   UNL A   1      40.902 -20.553 -33.931  0.00  0.00    +0.163 A 
ATOM     20  C   UNL A   1      40.264 -20.817 -32.711  0.00  0.00    -0.016 A 
ATOM     21  C   UNL A   1      39.334 -21.855 -32.580  0.00  0.00    -0.058 A 
ATOM     22  C   UNL A   1      39.005 -22.678 -33.664  0.00  0.00    -0.051 A 
ATOM     23  C   UNL A   1      39.634 -22.440 -34.898  0.00  0.00    +0.025 A 
ATOM     24  C   UNL A   1      39.576 -23.027 -36.191  0.00  0.00    -0.005 A 
ATOM     25  C   UNL A   1      40.450 -22.320 -36.998  0.00  0.00    +0.176 A 
ATOM     26  O   UNL A   1      41.032 -21.324 -36.264  0.00  0.00    -0.448 OA
ATOM     27  C   UNL A   1      40.547 -21.397 -34.992  0.00  0.00    +0.177 A 
BRANCH  19  29
ATOM     28  C   UNL A   1      42.756 -19.304 -33.125  0.00  0.00    +0.079 C 
ATOM     29  O   UNL A   1      41.825 -19.574 -34.164  0.00  0.00    -0.491 OA
ENDBRANCH  19  29
ENDBRANCH  17  25
ENDBRANCH   1  17
TORSDOF 6
ENDMDL
MODEL 15
REMARK VINA RESULT:    -7.255     16.406     19.545
REMARK INTER + INTRA:         -10.479
REMARK INTER:                  -9.526
REMARK INTRA:                  -0.953
REMARK UNBOUND:                -0.679
REMARK  Name = cpd331.pdb
REMARK  7 active torsions:
REMARK  status: ('A' for Active; 'I' for Inactive)
REMARK    1  A    between atoms: C_1  and  O_2
REMARK    2  A    between atoms: O_2  and  C_3
REMARK    3  A    between atoms: C_9  and  C_10
REMARK    4  A    between atoms: C_10  and  C_12
REMARK    5  A    between atoms: C_13  and  C_14
REMARK    6  A    between atoms: N_18  and  C_19
REMARK    7  A    between atoms: C_19  and  C_20
REMARK                            x       y       z     vdW  Elec       q    Type
REMARK                         _______ _______ _______ _____ _____    ______ ____
ROOT
ATOM      1  C   UNL A   1      42.000 -20.816 -37.471  0.00  0.00    -0.011 C 
ATOM      2  C   UNL A   1      42.586 -20.423 -36.328  0.00  0.00    -0.049 C 
ENDROOT
BRANCH   2   3
ATOM      3  C   UNL A   1      43.975 -19.952 -36.253  0.00  0.00    -0.009 A 
ATOM      4  C   UNL A   1      44.585 -19.824 -35.005  0.00  0.00    -0.052 A 
ATOM      5  C   UNL A   1      45.887 -19.342 -34.916  0.00  0.00    -0.045 A 
ATOM      6  C   UNL A   1      46.562 -18.979 -36.075  0.00  0.00    +0.005 A 
ATOM      7  N   UNL A   1      45.960 -19.084 -37.282  0.00  0.00    -0.348 N 
ATOM      8  C   UNL A   1      44.694 -19.557 -37.385  0.00  0.00    +0.012 A 
BRANCH   7   9
ATOM      9  C   UNL A   1      46.693 -18.684 -38.512  0.00  0.00    +0.048 C 
BRANCH   9  10
ATOM     10  C   UNL A   1      46.585 -19.746 -39.577  0.00  0.00    -0.028 A 
ATOM     11  C   UNL A   1      47.247 -20.975 -39.424  0.00  0.00    -0.055 A 
ATOM     12  C   UNL A   1      47.141 -21.965 -40.404  0.00  0.00    -0.043 A 
ATOM     13  C   UNL A   1      46.378 -21.734 -41.546  0.00  0.00    +0.041 A 
ATOM     14 CL   UNL A   1      46.248 -22.953 -42.751  0.00  0.00    -0.084 Cl
ATOM     15  C   UNL A   1      45.723 -20.518 -41.717  0.00  0.00    -0.043 A 
ATOM     16  C   UNL A   1      45.826 -19.524 -40.739  0.00  0.00    -0.055 A 
ENDBRANCH   9  10
ENDBRANCH   7   9
ENDBRANCH   2   3
BRANCH   1  17
ATOM     17  C   UNL A   1      40.560 -21.199 -37.598  0.00  0.00    +0.221 C 
ATOM     18  O   UNL A   1      40.228 -21.635 -38.701  0.00  0.00    -0.284 OA
BRANCH  17  25
ATOM     19  C   UNL A   1      38.125 -22.646 -33.673  0.00  0.00    +0.163 A 
ATOM     20  C   UNL A   1      37.248 -22.055 -32.752  0.00  0.00    -0.016 A 
ATOM     21  C   UNL A   1      36.879 -20.708 -32.851  0.00  0.00    -0.058 A 
ATOM     22  C   UNL A   1      37.368 -19.895 -33.880  0.00  0.00    -0.051 A 
ATOM     23  C   UNL A   1      38.244 -20.461 -34.821  0.00  0.00    +0.025 A 
ATOM     24  C   UNL A   1      38.936 -19.990 -35.970  0.00  0.00    -0.005 A 
ATOM     25  C   UNL A   1      39.662 -21.055 -36.473  0.00  0.00    +0.176 A 
ATOM     26  O   UNL A   1      39.455 -22.152 -35.683  0.00  0.00    -0.448 OA
ATOM     27  C   UNL A   1      38.593 -21.800 -34.687  0.00  0.00    +0.177 A 
BRANCH  19  29
ATOM     28  C   UNL A   1      37.537 -24.947 -33.751  0.00  0.00    +0.079 C 
ATOM     29  O   UNL A   1      38.543 -23.945 -33.670  0.00  0.00    -0.491 OA
ENDBRANCH  19  29
ENDBRANCH  17  25
ENDBRANCH   1  17
TORSDOF 6
ENDMDL
MODEL 16
REMARK VINA RESULT:    -7.186     17.934     20.673
REMARK INTER + INTRA:         -10.385
REMARK INTER:                  -9.479
REMARK INTRA:                  -0.906
REMARK UNBOUND:                -0.679
REMARK  Name = cpd331.pdb
REMARK  7 active torsions:
REMARK  status: ('A' for Active; 'I' for Inactive)
REMARK    1  A    between atoms: C_1  and  O_2
REMARK    2  A    between atoms: O_2  and  C_3
REMARK    3  A    between atoms: C_9  and  C_10
REMARK    4  A    between atoms: C_10  and  C_12
REMARK    5  A    between atoms: C_13  and  C_14
REMARK    6  A    between atoms: N_18  and  C_19
REMARK    7  A    between atoms: C_19  and  C_20
REMARK                            x       y       z     vdW  Elec       q    Type
REMARK                         _______ _______ _______ _____ _____    ______ ____
ROOT
ATOM      1  C   UNL A   1      44.725 -19.284 -36.020  0.00  0.00    -0.011 C 
ATOM      2  C   UNL A   1      45.458 -18.164 -36.126  0.00  0.00    -0.049 C 
ENDROOT
BRANCH   2   3
ATOM      3  C   UNL A   1      45.924 -17.622 -37.409  0.00  0.00    -0.009 A 
ATOM      4  C   UNL A   1      46.804 -16.540 -37.412  0.00  0.00    -0.052 A 
ATOM      5  C   UNL A   1      47.224 -15.991 -38.619  0.00  0.00    -0.045 A 
ATOM      6  C   UNL A   1      46.748 -16.521 -39.813  0.00  0.00    +0.005 A 
ATOM      7  N   UNL A   1      45.878 -17.557 -39.806  0.00  0.00    -0.348 N 
ATOM      8  C   UNL A   1      45.464 -18.105 -38.637  0.00  0.00    +0.012 A 
BRANCH   7   9
ATOM      9  C   UNL A   1      45.372 -18.107 -41.091  0.00  0.00    +0.048 C 
BRANCH   9  10
ATOM     10  C   UNL A   1      45.908 -19.496 -41.335  0.00  0.00    -0.028 A 
ATOM     11  C   UNL A   1      45.035 -20.593 -41.397  0.00  0.00    -0.055 A 
ATOM     12  C   UNL A   1      45.526 -21.880 -41.633  0.00  0.00    -0.043 A 
ATOM     13  C   UNL A   1      46.894 -22.081 -41.804  0.00  0.00    +0.041 A 
ATOM     14 CL   UNL A   1      47.497 -23.662 -42.096  0.00  0.00    -0.084 Cl
ATOM     15  C   UNL A   1      47.774 -21.004 -41.738  0.00  0.00    -0.043 A 
ATOM     16  C   UNL A   1      47.286 -19.715 -41.502  0.00  0.00    -0.055 A 
ENDBRANCH   9  10
ENDBRANCH   7   9
ENDBRANCH   2   3
BRANCH   1  17
ATOM     17  C   UNL A   1      44.146 -19.802 -34.741  0.00  0.00    +0.221 C 
ATOM     18  O   UNL A   1      44.923 -19.830 -33.786  0.00  0.00    -0.284 OA
BRANCH  17  25
ATOM     19  C   UNL A   1      40.284 -22.040 -32.870  0.00  0.00    +0.163 A 
ATOM     20  C   UNL A   1      38.930 -22.174 -33.209  0.00  0.00    -0.016 A 
ATOM     21  C   UNL A   1      38.397 -21.567 -34.353  0.00  0.00    -0.058 A 
ATOM     22  C   UNL A   1      39.198 -20.803 -35.210  0.00  0.00    -0.051 A 
ATOM     23  C   UNL A   1      40.560 -20.656 -34.898  0.00  0.00    +0.025 A 
ATOM     24  C   UNL A   1      41.665 -19.985 -35.488  0.00  0.00    -0.005 A 
ATOM     25  C   UNL A   1      42.763 -20.221 -34.680  0.00  0.00    +0.176 A 
ATOM     26  O   UNL A   1      42.382 -20.996 -33.620  0.00  0.00    -0.448 OA
ATOM     27  C   UNL A   1      41.052 -21.268 -33.751  0.00  0.00    +0.177 A 
BRANCH  19  29
ATOM     28  C   UNL A   1      41.309 -23.950 -31.897  0.00  0.00    +0.079 C 
ATOM     29  O   UNL A   1      40.903 -22.592 -31.786  0.00  0.00    -0.491 OA
ENDBRANCH  19  29
ENDBRANCH  17  25
ENDBRANCH   1  17
TORSDOF 6
ENDMDL
MODEL 17
REMARK VINA RESULT:    -7.117      3.095      4.349
REMARK INTER + INTRA:         -10.292
REMARK INTER:                  -9.598
REMARK INTRA:                  -0.694
REMARK UNBOUND:                -0.679
REMARK  Name = cpd331.pdb
REMARK  7 active torsions:
REMARK  status: ('A' for Active; 'I' for Inactive)
REMARK    1  A    between atoms: C_1  and  O_2
REMARK    2  A    between atoms: O_2  and  C_3
REMARK    3  A    between atoms: C_9  and  C_10
REMARK    4  A    between atoms: C_10  and  C_12
REMARK    5  A    between atoms: C_13  and  C_14
REMARK    6  A    between atoms: N_18  and  C_19
REMARK    7  A    between atoms: C_19  and  C_20
REMARK                            x       y       z     vdW  Elec       q    Type
REMARK                         _______ _______ _______ _____ _____    ______ ____
ROOT
ATOM      1  C   UNL A   1      35.788 -36.240 -29.954  0.00  0.00    -0.011 C 
ATOM      2  C   UNL A   1      34.830 -35.452 -29.441  0.00  0.00    -0.049 C 
ENDROOT
BRANCH   2   3
ATOM      3  C   UNL A   1      33.899 -34.671 -30.265  0.00  0.00    -0.009 A 
ATOM      4  C   UNL A   1      34.293 -33.421 -30.741  0.00  0.00    -0.052 A 
ATOM      5  C   UNL A   1      33.407 -32.653 -31.491  0.00  0.00    -0.045 A 
ATOM      6  C   UNL A   1      32.129 -33.137 -31.744  0.00  0.00    +0.005 A 
ATOM      7  N   UNL A   1      31.742 -34.341 -31.263  0.00  0.00    -0.348 N 
ATOM      8  C   UNL A   1      32.596 -35.102 -30.536  0.00  0.00    +0.012 A 
BRANCH   7   9
ATOM      9  C   UNL A   1      30.370 -34.841 -31.536  0.00  0.00    +0.048 C 
BRANCH   9  10
ATOM     10  C   UNL A   1      30.403 -36.055 -32.430  0.00  0.00    -0.028 A 
ATOM     11  C   UNL A   1      30.862 -35.951 -33.753  0.00  0.00    -0.055 A 
ATOM     12  C   UNL A   1      30.904 -37.075 -34.582  0.00  0.00    -0.043 A 
ATOM     13  C   UNL A   1      30.483 -38.311 -34.097  0.00  0.00    +0.041 A 
ATOM     14 CL   UNL A   1      30.536 -39.694 -35.116  0.00  0.00    -0.084 Cl
ATOM     15  C   UNL A   1      30.017 -38.431 -32.791  0.00  0.00    -0.043 A 
ATOM     16  C   UNL A   1      29.974 -37.308 -31.959  0.00  0.00    -0.055 A 
ENDBRANCH   9  10
ENDBRANCH   7   9
ENDBRANCH   2   3
BRANCH   1  17
ATOM     17  C   UNL A   1      36.681 -37.128 -29.146  0.00  0.00    +0.221 C 
ATOM     18  O   UNL A   1      36.141 -37.686 -28.190  0.00  0.00    -0.284 OA
BRANCH  17  25
ATOM     19  C   UNL A   1      40.760 -36.173 -31.571  0.00  0.00    +0.163 A 
ATOM     20  C   UNL A   1      42.075 -36.658 -31.568  0.00  0.00    -0.016 A 
ATOM     21  C   UNL A   1      42.477 -37.682 -30.702  0.00  0.00    -0.058 A 
ATOM     22  C   UNL A   1      41.577 -38.268 -29.803  0.00  0.00    -0.051 A 
ATOM     23  C   UNL A   1      40.251 -37.806 -29.788  0.00  0.00    +0.025 A 
ATOM     24  C   UNL A   1      39.078 -38.125 -29.052  0.00  0.00    -0.005 A 
ATOM     25  C   UNL A   1      38.072 -37.292 -29.508  0.00  0.00    +0.176 A 
ATOM     26  O   UNL A   1      38.575 -36.472 -30.480  0.00  0.00    -0.448 OA
ATOM     27  C   UNL A   1      39.890 -36.784 -30.658  0.00  0.00    +0.177 A 
BRANCH  19  29
ATOM     28  C   UNL A   1      39.933 -33.953 -31.752  0.00  0.00    +0.079 C 
ATOM     29  O   UNL A   1      40.265 -35.187 -32.374  0.00  0.00    -0.491 OA
ENDBRANCH  19  29
ENDBRANCH  17  25
ENDBRANCH   1  17
TORSDOF 6
ENDMDL
MODEL 18
REMARK VINA RESULT:    -7.111      7.104      9.538
REMARK INTER + INTRA:         -10.284
REMARK INTER:                  -9.662
REMARK INTRA:                  -0.622
REMARK UNBOUND:                -0.679
REMARK  Name = cpd331.pdb
REMARK  7 active torsions:
REMARK  status: ('A' for Active; 'I' for Inactive)
REMARK    1  A    between atoms: C_1  and  O_2
REMARK    2  A    between atoms: O_2  and  C_3
REMARK    3  A    between atoms: C_9  and  C_10
REMARK    4  A    between atoms: C_10  and  C_12
REMARK    5  A    between atoms: C_13  and  C_14
REMARK    6  A    between atoms: N_18  and  C_19
REMARK    7  A    between atoms: C_19  and  C_20
REMARK                            x       y       z     vdW  Elec       q    Type
REMARK                         _______ _______ _______ _____ _____    ______ ____
ROOT
ATOM      1  C   UNL A   1      33.859 -40.574 -31.049  0.00  0.00    -0.011 C 
ATOM      2  C   UNL A   1      35.168 -40.419 -30.793  0.00  0.00    -0.049 C 
ENDROOT
BRANCH   2   3
ATOM      3  C   UNL A   1      35.713 -39.294 -30.022  0.00  0.00    -0.009 A 
ATOM      4  C   UNL A   1      35.519 -39.256 -28.642  0.00  0.00    -0.052 A 
ATOM      5  C   UNL A   1      35.996 -38.177 -27.904  0.00  0.00    -0.045 A 
ATOM      6  C   UNL A   1      36.650 -37.139 -28.557  0.00  0.00    +0.005 A 
ATOM      7  N   UNL A   1      36.817 -37.168 -29.899  0.00  0.00    -0.348 N 
ATOM      8  C   UNL A   1      36.363 -38.215 -30.630  0.00  0.00    +0.012 A 
BRANCH   7   9
ATOM      9  C   UNL A   1      37.512 -36.046 -30.583  0.00  0.00    +0.048 C 
BRANCH   9  10
ATOM     10  C   UNL A   1      38.961 -36.378 -30.835  0.00  0.00    -0.028 A 
ATOM     11  C   UNL A   1      39.678 -37.168 -29.922  0.00  0.00    -0.055 A 
ATOM     12  C   UNL A   1      41.018 -37.486 -30.157  0.00  0.00    -0.043 A 
ATOM     13  C   UNL A   1      41.654 -37.015 -31.303  0.00  0.00    +0.041 A 
ATOM     14 CL   UNL A   1      43.301 -37.408 -31.592  0.00  0.00    -0.084 Cl
ATOM     15  C   UNL A   1      40.960 -36.225 -32.215  0.00  0.00    -0.043 A 
ATOM     16  C   UNL A   1      39.619 -35.903 -31.983  0.00  0.00    -0.055 A 
ENDBRANCH   9  10
ENDBRANCH   7   9
ENDBRANCH   2   3
BRANCH   1  17
ATOM     17  C   UNL A   1      33.264 -41.761 -31.738  0.00  0.00    +0.221 C 
ATOM     18  O   UNL A   1      32.945 -42.692 -30.999  0.00  0.00    -0.284 OA
BRANCH  17  25
ATOM     19  C   UNL A   1      32.940 -43.724 -36.150  0.00  0.00    +0.163 A 
ATOM     20  C   UNL A   1      32.707 -43.256 -37.451  0.00  0.00    -0.016 A 
ATOM     21  C   UNL A   1      32.496 -41.897 -37.714  0.00  0.00    -0.058 A 
ATOM     22  C   UNL A   1      32.512 -40.947 -36.686  0.00  0.00    -0.051 A 
ATOM     23  C   UNL A   1      32.748 -41.387 -35.373  0.00  0.00    +0.025 A 
ATOM     24  C   UNL A   1      32.839 -40.763 -34.099  0.00  0.00    -0.005 A 
ATOM     25  C   UNL A   1      33.088 -41.762 -33.174  0.00  0.00    +0.176 A 
ATOM     26  O   UNL A   1      33.146 -42.967 -33.819  0.00  0.00    -0.448 OA
ATOM     27  C   UNL A   1      32.948 -42.744 -35.150  0.00  0.00    +0.177 A 
BRANCH  19  29
ATOM     28  C   UNL A   1      32.900 -46.019 -36.766  0.00  0.00    +0.079 C 
ATOM     29  O   UNL A   1      33.162 -45.021 -35.788  0.00  0.00    -0.491 OA
ENDBRANCH  19  29
ENDBRANCH  17  25
ENDBRANCH   1  17
TORSDOF 6
ENDMDL
MODEL 19
REMARK VINA RESULT:    -6.958      4.466      7.877
REMARK INTER + INTRA:         -10.077
REMARK INTER:                  -9.404
REMARK INTRA:                  -0.673
REMARK UNBOUND:                -0.679
REMARK  Name = cpd331.pdb
REMARK  7 active torsions:
REMARK  status: ('A' for Active; 'I' for Inactive)
REMARK    1  A    between atoms: C_1  and  O_2
REMARK    2  A    between atoms: O_2  and  C_3
REMARK    3  A    between atoms: C_9  and  C_10
REMARK    4  A    between atoms: C_10  and  C_12
REMARK    5  A    between atoms: C_13  and  C_14
REMARK    6  A    between atoms: N_18  and  C_19
REMARK    7  A    between atoms: C_19  and  C_20
REMARK                            x       y       z     vdW  Elec       q    Type
REMARK                         _______ _______ _______ _____ _____    ______ ____
ROOT
ATOM      1  C   UNL A   1      33.460 -36.860 -26.821  0.00  0.00    -0.011 C 
ATOM      2  C   UNL A   1      34.763 -37.177 -26.759  0.00  0.00    -0.049 C 
ENDROOT
BRANCH   2   3
ATOM      3  C   UNL A   1      35.685 -37.036 -27.894  0.00  0.00    -0.009 A 
ATOM      4  C   UNL A   1      36.769 -37.906 -28.005  0.00  0.00    -0.052 A 
ATOM      5  C   UNL A   1      37.671 -37.759 -29.053  0.00  0.00    -0.045 A 
ATOM      6  C   UNL A   1      37.488 -36.734 -29.974  0.00  0.00    +0.005 A 
ATOM      7  N   UNL A   1      36.448 -35.879 -29.852  0.00  0.00    -0.348 N 
ATOM      8  C   UNL A   1      35.557 -36.012 -28.838  0.00  0.00    +0.012 A 
BRANCH   7   9
ATOM      9  C   UNL A   1      36.270 -34.783 -30.840  0.00  0.00    +0.048 C 
BRANCH   9  10
ATOM     10  C   UNL A   1      34.910 -34.145 -30.706  0.00  0.00    -0.028 A 
ATOM     11  C   UNL A   1      33.816 -34.647 -31.430  0.00  0.00    -0.055 A 
ATOM     12  C   UNL A   1      32.552 -34.066 -31.300  0.00  0.00    -0.043 A 
ATOM     13  C   UNL A   1      32.372 -32.977 -30.451  0.00  0.00    +0.041 A 
ATOM     14 CL   UNL A   1      30.817 -32.264 -30.292  0.00  0.00    -0.084 Cl
ATOM     15  C   UNL A   1      33.447 -32.462 -29.733  0.00  0.00    -0.043 A 
ATOM     16  C   UNL A   1      34.714 -33.041 -29.860  0.00  0.00    -0.055 A 
ENDBRANCH   9  10
ENDBRANCH   7   9
ENDBRANCH   2   3
BRANCH   1  17
ATOM     17  C   UNL A   1      32.522 -36.892 -25.656  0.00  0.00    +0.221 C 
ATOM     18  O   UNL A   1      31.394 -36.452 -25.878  0.00  0.00    -0.284 OA
BRANCH  17  25
ATOM     19  C   UNL A   1      33.825 -40.331 -22.510  0.00  0.00    +0.163 A 
ATOM     20  C   UNL A   1      34.247 -40.373 -21.173  0.00  0.00    -0.016 A 
ATOM     21  C   UNL A   1      34.377 -39.206 -20.409  0.00  0.00    -0.058 A 
ATOM     22  C   UNL A   1      34.086 -37.948 -20.950  0.00  0.00    -0.051 A 
ATOM     23  C   UNL A   1      33.655 -37.877 -22.285  0.00  0.00    +0.025 A 
ATOM     24  C   UNL A   1      33.277 -36.832 -23.171  0.00  0.00    -0.005 A 
ATOM     25  C   UNL A   1      32.956 -37.421 -24.381  0.00  0.00    +0.176 A 
ATOM     26  O   UNL A   1      33.128 -38.774 -24.282  0.00  0.00    -0.448 OA
ATOM     27  C   UNL A   1      33.544 -39.055 -23.014  0.00  0.00    +0.177 A 
BRANCH  19  29
ATOM     28  C   UNL A   1      32.495 -42.195 -23.145  0.00  0.00    +0.079 C 
ATOM     29  O   UNL A   1      33.661 -41.405 -23.337  0.00  0.00    -0.491 OA
ENDBRANCH  19  29
ENDBRANCH  17  25
ENDBRANCH   1  17
TORSDOF 6
ENDMDL
MODEL 20
REMARK VINA RESULT:    -6.707     17.824     21.008
REMARK INTER + INTRA:          -9.739
REMARK INTER:                  -8.921
REMARK INTRA:                  -0.818
REMARK UNBOUND:                -0.679
REMARK  Name = cpd331.pdb
REMARK  7 active torsions:
REMARK  status: ('A' for Active; 'I' for Inactive)
REMARK    1  A    between atoms: C_1  and  O_2
REMARK    2  A    between atoms: O_2  and  C_3
REMARK    3  A    between atoms: C_9  and  C_10
REMARK    4  A    between atoms: C_10  and  C_12
REMARK    5  A    between atoms: C_13  and  C_14
REMARK    6  A    between atoms: N_18  and  C_19
REMARK    7  A    between atoms: C_19  and  C_20
REMARK                            x       y       z     vdW  Elec       q    Type
REMARK                         _______ _______ _______ _____ _____    ______ ____
ROOT
ATOM      1  C   UNL A   1      43.137 -17.666 -34.479  0.00  0.00    -0.011 C 
ATOM      2  C   UNL A   1      44.394 -18.131 -34.550  0.00  0.00    -0.049 C 
ENDROOT
BRANCH   2   3
ATOM      3  C   UNL A   1      45.246 -17.981 -35.737  0.00  0.00    -0.009 A 
ATOM      4  C   UNL A   1      46.501 -17.389 -35.604  0.00  0.00    -0.052 A 
ATOM      5  C   UNL A   1      47.303 -17.204 -36.726  0.00  0.00    -0.045 A 
ATOM      6  C   UNL A   1      46.834 -17.601 -37.973  0.00  0.00    +0.005 A 
ATOM      7  N   UNL A   1      45.607 -18.155 -38.102  0.00  0.00    -0.348 N 
ATOM      8  C   UNL A   1      44.817 -18.346 -37.017  0.00  0.00    +0.012 A 
BRANCH   7   9
ATOM      9  C   UNL A   1      45.117 -18.567 -39.443  0.00  0.00    +0.048 C 
BRANCH   9  10
ATOM     10  C   UNL A   1      45.913 -19.731 -39.978  0.00  0.00    -0.028 A 
ATOM     11  C   UNL A   1      45.908 -20.963 -39.305  0.00  0.00    -0.055 A 
ATOM     12  C   UNL A   1      46.636 -22.047 -39.803  0.00  0.00    -0.043 A 
ATOM     13  C   UNL A   1      47.377 -21.908 -40.973  0.00  0.00    +0.041 A 
ATOM     14 CL   UNL A   1      48.271 -23.242 -41.584  0.00  0.00    -0.084 Cl
ATOM     15  C   UNL A   1      47.400 -20.691 -41.648  0.00  0.00    -0.043 A 
ATOM     16  C   UNL A   1      46.673 -19.603 -41.153  0.00  0.00    -0.055 A 
ENDBRANCH   9  10
ENDBRANCH   7   9
ENDBRANCH   2   3
BRANCH   1  17
ATOM     17  C   UNL A   1      42.283 -17.709 -33.251  0.00  0.00    +0.221 C 
ATOM     18  O   UNL A   1      42.586 -16.902 -32.371  0.00  0.00    -0.284 OA
BRANCH  17  25
ATOM     19  C   UNL A   1      37.664 -19.074 -32.774  0.00  0.00    +0.163 A 
ATOM     20  C   UNL A   1      36.965 -20.289 -32.752  0.00  0.00    -0.016 A 
ATOM     21  C   UNL A   1      37.625 -21.516 -32.891  0.00  0.00    -0.058 A 
ATOM     22  C   UNL A   1      39.014 -21.580 -33.053  0.00  0.00    -0.051 A 
ATOM     23  C   UNL A   1      39.741 -20.378 -33.073  0.00  0.00    +0.025 A 
ATOM     24  C   UNL A   1      41.111 -20.028 -33.213  0.00  0.00    -0.005 A 
ATOM     25  C   UNL A   1      41.186 -18.647 -33.155  0.00  0.00    +0.176 A 
ATOM     26  O   UNL A   1      39.928 -18.136 -32.996  0.00  0.00    -0.448 OA
ATOM     27  C   UNL A   1      39.051 -19.179 -32.938  0.00  0.00    +0.177 A 
BRANCH  19  29
ATOM     28  C   UNL A   1      35.716 -17.755 -32.436  0.00  0.00    +0.079 C 
ATOM     29  O   UNL A   1      37.121 -17.828 -32.642  0.00  0.00    -0.491 OA
ENDBRANCH  19  29
ENDBRANCH  17  25
ENDBRANCH   1  17
TORSDOF 6
ENDMDL
