REMARK  Name = cpd331.pdb
REMARK  7 active torsions:
REMARK  status: ('A' for Active; 'I' for Inactive)
REMARK    1  A    between atoms: C_1  and  O_2
REMARK    2  A    between atoms: O_2  and  C_3
REMARK    3  A    between atoms: C_9  and  C_10
REMARK    4  A    between atoms: C_10  and  C_12
REMARK    5  A    between atoms: C_13  and  C_14
REMARK    6  A    between atoms: N_18  and  C_19
REMARK    7  A    between atoms: C_19  and  C_20
REMARK                            x       y       z     vdW  Elec       q    Type
REMARK                         _______ _______ _______ _____ _____    ______ ____
ROOT
ATOM      1  C   UNL A   1      -3.061  -0.432   1.567  0.00  0.00    -0.011 C 
ATOM      2  C   UNL A   1      -3.416  -1.025   0.416  0.00  0.00    -0.049 C 
ENDROOT
BRANCH   2   3
ATOM      3  C   UNL A   1      -4.772  -1.523   0.148  0.00  0.00    -0.009 A 
ATOM      4  C   UNL A   1      -4.933  -2.719  -0.550  0.00  0.00    -0.052 A 
ATOM      5  C   UNL A   1      -6.211  -3.183  -0.845  0.00  0.00    -0.045 A 
ATOM      6  C   UNL A   1      -7.316  -2.438  -0.451  0.00  0.00    +0.005 A 
ATOM      7  N   UNL A   1      -7.156  -1.267   0.207  0.00  0.00    -0.348 N 
ATOM      8  C   UNL A   1      -5.917  -0.805   0.506  0.00  0.00    +0.012 A 
BRANCH   7   9
ATOM      9  C   UNL A   1      -8.348  -0.478   0.615  0.00  0.00    +0.048 C 
BRANCH   9  10
ATOM     10  C   UNL A   1      -8.459   0.793  -0.189  0.00  0.00    -0.028 A 
ATOM     11  C   UNL A   1      -8.332   2.043   0.438  0.00  0.00    -0.055 A 
ATOM     12  C   UNL A   1      -8.424   3.223  -0.305  0.00  0.00    -0.043 A 
ATOM     13  C   UNL A   1      -8.648   3.164  -1.678  0.00  0.00    +0.041 A 
ATOM     14 CL   UNL A   1      -8.760   4.615  -2.591  0.00  0.00    -0.084 Cl
ATOM     15  C   UNL A   1      -8.784   1.933  -2.314  0.00  0.00    -0.043 A 
ATOM     16  C   UNL A   1      -8.693   0.750  -1.574  0.00  0.00    -0.055 A 
ENDBRANCH   9  10
ENDBRANCH   7   9
ENDBRANCH   2   3
BRANCH   1  17
ATOM     17  C   UNL A   1      -1.721   0.179   1.829  0.00  0.00    +0.221 C 
ATOM     18  O   UNL A   1      -1.732   1.185   2.539  0.00  0.00    -0.284 OA
BRANCH  17  25
ATOM     19  C   UNL A   1       2.839   0.120   0.207  0.00  0.00    +0.163 A 
ATOM     20  C   UNL A   1       3.719  -0.845  -0.302  0.00  0.00    -0.016 A 
ATOM     21  C   UNL A   1       3.336  -2.185  -0.443  0.00  0.00    -0.058 A 
ATOM     22  C   UNL A   1       2.053  -2.615  -0.084  0.00  0.00    -0.051 A 
ATOM     23  C   UNL A   1       1.148  -1.668   0.424  0.00  0.00    +0.025 A 
ATOM     24  C   UNL A   1      -0.195  -1.701   0.887  0.00  0.00    -0.005 A 
ATOM     25  C   UNL A   1      -0.525  -0.413   1.271  0.00  0.00    +0.176 A 
ATOM     26  O   UNL A   1       0.554   0.404   1.074  0.00  0.00    -0.448 OA
ATOM     27  C   UNL A   1       1.566  -0.349   0.555  0.00  0.00    +0.177 A 
BRANCH  19  29
ATOM     28  C   UNL A   1       4.445   1.870   0.141  0.00  0.00    +0.079 C 
ATOM     29  O   UNL A   1       3.109   1.447   0.379  0.00  0.00    -0.491 OA
ENDBRANCH  19  29
ENDBRANCH  17  25
ENDBRANCH   1  17
TORSDOF 6
