REMARK  Name = cpd58.pdb
REMARK  15 active torsions:
REMARK  status: ('A' for Active; 'I' for Inactive)
REMARK    1  A    between atoms: C_1  and  O_2
REMARK    2  A    between atoms: O_2  and  C_3
REMARK    3  A    between atoms: C_3  and  C_5
REMARK    4  A    between atoms: C_5  and  C_6
REMARK    5  A    between atoms: C_5  and  N_16
REMARK    6  A    between atoms: C_6  and  C_7
REMARK    7  A    between atoms: C_17  and  C_19
REMARK    8  A    between atoms: C_19  and  C_20
REMARK    9  A    between atoms: C_20  and  C_21
REMARK   10  A    between atoms: C_21  and  C_22
REMARK   11  A    between atoms: C_22  and  C_23
REMARK   12  A    between atoms: C_23  and  N_24
REMARK   13  A    between atoms: C_30  and  O_31
REMARK   14  A    between atoms: C_36  and  O_37
REMARK   15  A    between atoms: O_37  and  C_38
REMARK                            x       y       z     vdW  Elec       q    Type
REMARK                         _______ _______ _______ _____ _____    ______ ____
ROOT
ATOM      1  C   UNL     1       2.496   0.664  -0.149  0.00  0.00    -0.040 C 
ENDROOT
BRANCH   1   2
ATOM      2  C   UNL     1       3.711   1.554   0.127  0.00  0.00    -0.051 C 
BRANCH   2   3
ATOM      3  C   UNL     1       4.747   1.381  -0.988  0.00  0.00    -0.045 C 
BRANCH   3   4
ATOM      4  C   UNL     1       6.034   2.161  -0.738  0.00  0.00    +0.024 C 
BRANCH   4   6
ATOM      5  N   UNL     1       7.715   0.480  -0.007  0.00  0.00    -0.302 N 
ATOM      6  C   UNL     1       6.910   1.527   0.321  0.00  0.00    +0.214 C 
ATOM      7  O   UNL     1       6.922   1.950   1.476  0.00  0.00    -0.276 OA
ATOM      8  H   UNL     1       8.389   0.242   0.670  0.00  0.00    +0.000 HD
BRANCH   5   9
ATOM      9  C   UNL     1       7.729  -0.349  -1.220  0.00  0.00    +0.124 C 
BRANCH   9  10
ATOM     10  C   UNL     1       7.284  -1.799  -0.960  0.00  0.00    +0.328 C 
ATOM     11  O   UNL     1       7.161  -2.637  -1.848  0.00  0.00    -0.249 OA
BRANCH  10  13
ATOM     12  C   UNL     1       6.701  -3.382   0.668  0.00  0.00    +0.082 C 
ATOM     13  O   UNL     1       7.074  -2.037   0.364  0.00  0.00    -0.467 OA
ENDBRANCH  10  13
ENDBRANCH   9  10
BRANCH   9  14
ATOM     14  C   UNL     1       9.103  -0.339  -1.911  0.00  0.00    +0.003 C 
BRANCH  14  15
ATOM     15  C   UNL     1      10.232  -0.836  -1.075  0.00  0.00    -0.018 C 
ATOM     16  C   UNL     1      10.752  -2.080  -1.007  0.00  0.00    +0.032 C 
ATOM     17  N   UNL     1      11.845  -2.222  -0.163  0.00  0.00    -0.259 NA
ATOM     18  C   UNL     1      12.050  -1.016   0.311  0.00  0.00    +0.052 C 
ATOM     19  C   UNL     1      13.133  -0.600   1.267  0.00  0.00    +0.009 C 
ATOM     20  C   UNL     1      13.058   0.874   1.576  0.00  0.00    -0.078 C 
ATOM     21  C   UNL     1      12.133   1.702   1.063  0.00  0.00    -0.065 C 
ATOM     22  C   UNL     1      11.113   1.234   0.149  0.00  0.00    -0.053 C 
ATOM     23  C   UNL     1      11.065  -0.048  -0.213  0.00  0.00    +0.001 C 
ENDBRANCH  14  15
ENDBRANCH   9  14
ENDBRANCH   5   9
ENDBRANCH   4   6
ENDBRANCH   3   4
ENDBRANCH   2   3
ENDBRANCH   1   2
BRANCH   1  24
ATOM     24  C   UNL     1       1.391   0.840   0.905  0.00  0.00    -0.001 C 
BRANCH  24  25
ATOM     25  N   UNL     1       0.249  -0.095   0.787  0.00  0.00    -0.298 N 
ATOM     26  C   UNL     1       0.639  -1.452   1.216  0.00  0.00    +0.000 C 
ATOM     27  C   UNL     1      -0.465  -2.530   1.366  0.00  0.00    -0.023 C 
ATOM     28  C   UNL     1      -1.141  -2.927   0.034  0.00  0.00    +0.056 C 
ATOM     29  C   UNL     1      -0.111  -3.419  -0.952  0.00  0.00    -0.071 C 
ATOM     30  C   UNL     1       0.213  -4.728  -0.989  0.00  0.00    -0.059 C 
ATOM     31  C   UNL     1      -0.470  -5.794  -0.151  0.00  0.00    +0.077 C 
ATOM     32  C   UNL     1      -1.682  -5.315   0.680  0.00  0.00    +0.015 C 
ATOM     33  C   UNL     1      -2.220  -4.040   0.049  0.00  0.00    +0.116 C 
ATOM     34  O   UNL     1      -3.423  -3.500   0.605  0.00  0.00    -0.484 OA
ATOM     35  C   UNL     1      -3.401  -2.219   0.071  0.00  0.00    +0.167 A 
ATOM     36  C   UNL     1      -4.476  -1.348   0.001  0.00  0.00    +0.162 A 
ATOM     37  C   UNL     1      -4.199  -0.031  -0.383  0.00  0.00    -0.016 A 
ATOM     38  C   UNL     1      -2.882   0.400  -0.627  0.00  0.00    -0.053 A 
ATOM     39  C   UNL     1      -1.804  -0.492  -0.539  0.00  0.00    -0.026 A 
ATOM     40  C   UNL     1      -2.097  -1.823  -0.280  0.00  0.00    +0.016 A 
ATOM     41  C   UNL     1      -0.377  -0.009  -0.545  0.00  0.00    +0.024 C 
ATOM     42  H   UNL     1      -0.490   0.183   1.432  0.00  0.00    +0.000 HD
BRANCH  31  43
ATOM     43  O   UNL     1      -0.941  -6.789  -1.058  0.00  0.00    -0.388 OA
ATOM     44  H   UNL     1      -1.590  -6.395  -1.661  0.00  0.00    +0.000 HD
ENDBRANCH  31  43
BRANCH  36  45
ATOM     45  O   UNL     1      -5.787  -1.595   0.282  0.00  0.00    -0.491 OA
ATOM     46  C   UNL     1      -6.152  -2.949   0.512  0.00  0.00    +0.079 C 
ENDBRANCH  36  45
ENDBRANCH  24  25
ENDBRANCH   1  24
TORSDOF 13
