@<TRIPOS>MOLECULE
*****
 43 48 0 0 0
SMALL
GASTEIGER

@<TRIPOS>ATOM
      1 C           6.4965   -3.5667    0.0000 C.3     1  UNL1        0.2557
      2 O           6.3387   -2.5821    0.0000 O.3     1  UNL1       -0.4432
      3 C           7.1124   -1.9532    0.0000 C.2     1  UNL1        0.3374
      4 O           8.0439   -2.3088    0.0000 O.2     1  UNL1       -0.2482
      5 C           6.9546   -0.9687    0.0000 C.3     1  UNL1        0.1978
      6 C           7.7284   -0.3398    0.0000 C.3     1  UNL1        0.0611
      7 C           8.6599   -0.6954    0.0000 C.ar    1  UNL1        0.0007
      8 C           8.9197   -1.6580    0.0000 C.ar    1  UNL1        0.0946
      9 N           9.9155   -1.7084    0.0000 N.ar    1  UNL1       -0.2442
     10 C          10.2711   -0.7769    0.0000 C.ar    1  UNL1        0.0810
     11 C          11.2013   -0.4178    0.0000 C.ar    1  UNL1        0.0191
     12 C          11.3555    0.5673    0.0000 C.ar    1  UNL1        0.0015
     13 C          10.5794    1.1933    0.0000 C.ar    1  UNL1        0.0001
     14 C           9.6492    0.8343    0.0000 C.ar    1  UNL1        0.0012
     15 C           9.4951   -0.1508    0.0000 C.ar    1  UNL1        0.0152
     16 N           6.0231   -0.6131    0.0000 N.am    1  UNL1       -0.1954
     17 C           5.8653    0.3714    0.0000 C.2     1  UNL1        0.2418
     18 O           6.6390    1.0003    0.0000 O.2     1  UNL1       -0.2733
     19 C           4.9338    0.7270    0.0000 C.3     1  UNL1        0.0868
     20 C           4.1601    0.0981    0.0000 C.3     1  UNL1        0.0097
     21 C           3.2286    0.4537    0.0000 C.3     1  UNL1        0.0019
     22 C           2.4549   -0.1752    0.0000 C.3     1  UNL1        0.0173
     23 C           1.5233    0.1804    0.0000 C.3     1  UNL1        0.0724
     24 N           0.7496   -0.4485    0.0000 N.3     1  UNL1       -0.2689
     25 C           1.0356   -1.2740    0.0000 C.3     1  UNL1        0.0732
     26 C           0.7240   -2.0901    0.0000 C.3     1  UNL1        0.0290
     27 C          -0.0393   -2.5150    0.0000 C.3     1  UNL1        0.0780
     28 C           0.7840   -2.9906    0.0000 C.2     1  UNL1       -0.0211
     29 C           0.7839   -3.9410    0.0000 C.2     1  UNL1        0.0021
     30 C          -0.0397   -4.4164    0.0000 C.3     1  UNL1        0.1773
     31 O          -0.0397   -5.3998    0.0000 O.3     1  UNL1       -0.2182
     32 C          -0.8627   -3.9413    0.0000 C.3     1  UNL1        0.0816
     33 C          -0.8628   -2.9905    0.0000 C.3     1  UNL1        0.1762
     34 O          -1.6859   -2.5153    0.0000 O.3     1  UNL1       -0.4757
     35 C          -1.6860   -1.5645    0.0000 C.ar    1  UNL1        0.1682
     36 C          -2.5093   -1.0889    0.0000 C.ar    1  UNL1        0.1721
     37 O          -3.3324   -1.5639    0.0000 O.3     1  UNL1       -0.4684
     38 C          -3.3042   -2.5138    0.0000 C.3     1  UNL1        0.2526
     39 C          -2.5092   -0.1385    0.0000 C.ar    1  UNL1        0.0397
     40 C          -1.6856    0.3369    0.0000 C.ar    1  UNL1        0.0001
     41 C          -0.8626   -0.1383    0.0000 C.ar    1  UNL1       -0.0066
     42 C          -0.8624   -1.0890    0.0000 C.ar    1  UNL1        0.0187
     43 C           0.0000   -0.0000    0.0000 C.3     1  UNL1        0.0989
@<TRIPOS>BOND
     1     1     2    1
     2     2     3    1
     3     3     4    2
     4     3     5    1
     5     5     6    1
     6     6     7    1
     7     7     8   ar
     8     8     9   ar
     9     9    10   ar
    10    10    11   ar
    11    11    12   ar
    12    12    13   ar
    13    13    14   ar
    14    14    15   ar
    15     7    15   ar
    16    10    15   ar
    17     5    16    1
    18    16    17   am
    19    17    18    2
    20    17    19    1
    21    19    20    1
    22    20    21    1
    23    21    22    1
    24    22    23    1
    25    23    24    1
    26    24    25    1
    27    25    26    1
    28    26    27    1
    29    27    28    1
    30    28    29    2
    31    29    30    1
    32    30    31    1
    33    30    32    1
    34    32    33    1
    35    27    33    1
    36    33    34    1
    37    34    35    1
    38    35    36   ar
    39    36    37    1
    40    37    38    1
    41    36    39   ar
    42    39    40   ar
    43    40    41   ar
    44    41    42   ar
    45    35    42   ar
    46    27    42    1
    47    41    43    1
    48    24    43    1
