MODEL 1
REMARK VINA RESULT:    -8.296      0.000      0.000
REMARK INTER + INTRA:          -9.656
REMARK INTER:                  -9.266
REMARK INTRA:                  -0.390
REMARK UNBOUND:                -0.390
REMARK  Name = cpd279.pdb
REMARK  11 active torsions:
REMARK  status: ('A' for Active; 'I' for Inactive)
REMARK    1  A    between atoms: C_1  and  C_2
REMARK    2  A    between atoms: C_2  and  C_3
REMARK    3  A    between atoms: C_2  and  C_4
REMARK    4  A    between atoms: C_7  and  C_8
REMARK    5  A    between atoms: C_14  and  C_15
REMARK    6  A    between atoms: C_18  and  O_19
REMARK    7  A    between atoms: C_20  and  C_21
REMARK    8  A    between atoms: C_20  and  C_22
REMARK    9  A    between atoms: C_26  and  C_27
REMARK   10  A    between atoms: C_28  and  C_29
REMARK   11  A    between atoms: C_31  and  O_32
REMARK                            x       y       z     vdW  Elec       q    Type
REMARK                         _______ _______ _______ _____ _____    ______ ____
ROOT
ATOM      1  C   UNL A   1      45.956 -20.563 -40.673  0.00  0.00    -0.035 C 
ATOM      2  C   UNL A   1      47.100 -20.642 -39.656  0.00  0.00    -0.049 C 
ATOM      3  C   UNL A   1      47.146 -19.286 -38.954  0.00  0.00    -0.045 C 
ATOM      4  C   UNL A   1      45.972 -18.449 -39.521  0.00  0.00    -0.003 C 
ATOM      5  C   UNL A   1      46.500 -17.593 -40.707  0.00  0.00    -0.057 C 
ATOM      6  C   UNL A   1      44.954 -19.543 -40.020  0.00  0.00    -0.027 C 
ATOM      7  C   UNL A   1      44.033 -20.094 -38.860  0.00  0.00    -0.031 C 
ATOM      8  C   UNL A   1      42.891 -21.002 -39.354  0.00  0.00    -0.049 C 
ATOM      9  C   UNL A   1      42.085 -21.627 -38.215  0.00  0.00    -0.049 C 
ATOM     10  C   UNL A   1      41.452 -20.573 -37.292  0.00  0.00    -0.029 C 
ATOM     11  C   UNL A   1      40.356 -21.159 -36.283  0.00  0.00    -0.025 C 
ATOM     12  C   UNL A   1      39.083 -21.355 -37.187  0.00  0.00    -0.059 C 
ATOM     13  C   UNL A   1      40.726 -22.552 -35.722  0.00  0.00    -0.045 C 
ATOM     14  C   UNL A   1      39.663 -23.200 -34.831  0.00  0.00    -0.026 C 
ATOM     15  C   UNL A   1      38.735 -22.223 -34.109  0.00  0.00    +0.061 C 
ATOM     16  C   UNL A   1      39.408 -20.871 -33.771  0.00  0.00    -0.006 C 
ATOM     17  C   UNL A   1      40.487 -21.093 -32.679  0.00  0.00    -0.057 C 
ATOM     18  C   UNL A   1      38.341 -19.941 -33.136  0.00  0.00    -0.057 C 
ATOM     19  C   UNL A   1      39.970 -20.171 -35.098  0.00  0.00    -0.028 C 
ATOM     20  C   UNL A   1      41.022 -19.095 -34.748  0.00  0.00    -0.049 C 
ATOM     21  C   UNL A   1      41.781 -18.527 -35.934  0.00  0.00    -0.047 C 
ATOM     22  C   UNL A   1      42.549 -19.617 -36.724  0.00  0.00    -0.023 C 
ATOM     23  C   UNL A   1      43.502 -20.368 -35.752  0.00  0.00    -0.059 C 
ATOM     24  C   UNL A   1      43.411 -18.962 -37.944  0.00  0.00    -0.021 C 
ATOM     25  C   UNL A   1      42.514 -18.009 -38.798  0.00  0.00    -0.059 C 
ATOM     26  C   UNL A   1      44.586 -18.115 -37.391  0.00  0.00    -0.020 C 
ATOM     27  C   UNL A   1      45.417 -17.454 -38.482  0.00  0.00    +0.061 C 
ENDROOT
BRANCH   1  29
ATOM     28  C   UNL A   1      46.573 -23.016 -41.010  0.00  0.00    -0.062 C 
ATOM     29  C   UNL A   1      45.491 -21.938 -41.191  0.00  0.00    -0.044 C 
ATOM     30  C   UNL A   1      45.135 -21.870 -42.682  0.00  0.00    -0.062 C 
ENDBRANCH   1  29
BRANCH  15  31
ATOM     31  O   UNL A   1      38.185 -22.866 -32.955  0.00  0.00    -0.391 OA
ATOM     32  H   UNL A   1      38.626 -23.718 -32.817  0.00  0.00    +0.000 HD
ENDBRANCH  15  31
BRANCH  27  33
ATOM     33  O   UNL A   1      46.497 -16.748 -37.864  0.00  0.00    -0.391 OA
ATOM     34  H   UNL A   1      46.445 -15.808 -38.099  0.00  0.00    +0.000 HD
ENDBRANCH  27  33
TORSDOF 3
ENDMDL
MODEL 2
REMARK VINA RESULT:    -7.554      1.542      8.208
REMARK INTER + INTRA:          -8.828
REMARK INTER:                  -8.475
REMARK INTRA:                  -0.353
REMARK UNBOUND:                -0.390
REMARK  Name = cpd279.pdb
REMARK  11 active torsions:
REMARK  status: ('A' for Active; 'I' for Inactive)
REMARK    1  A    between atoms: C_1  and  C_2
REMARK    2  A    between atoms: C_2  and  C_3
REMARK    3  A    between atoms: C_2  and  C_4
REMARK    4  A    between atoms: C_7  and  C_8
REMARK    5  A    between atoms: C_14  and  C_15
REMARK    6  A    between atoms: C_18  and  O_19
REMARK    7  A    between atoms: C_20  and  C_21
REMARK    8  A    between atoms: C_20  and  C_22
REMARK    9  A    between atoms: C_26  and  C_27
REMARK   10  A    between atoms: C_28  and  C_29
REMARK   11  A    between atoms: C_31  and  O_32
REMARK                            x       y       z     vdW  Elec       q    Type
REMARK                         _______ _______ _______ _____ _____    ______ ____
ROOT
ATOM      1  C   UNL A   1      39.489 -19.059 -33.249  0.00  0.00    -0.035 C 
ATOM      2  C   UNL A   1      40.283 -20.102 -32.455  0.00  0.00    -0.049 C 
ATOM      3  C   UNL A   1      39.959 -21.457 -33.081  0.00  0.00    -0.045 C 
ATOM      4  C   UNL A   1      39.030 -21.181 -34.290  0.00  0.00    -0.003 C 
ATOM      5  C   UNL A   1      37.553 -21.305 -33.820  0.00  0.00    -0.057 C 
ATOM      6  C   UNL A   1      39.378 -19.695 -34.683  0.00  0.00    -0.027 C 
ATOM      7  C   UNL A   1      40.656 -19.592 -35.608  0.00  0.00    -0.031 C 
ATOM      8  C   UNL A   1      40.893 -18.181 -36.180  0.00  0.00    -0.049 C 
ATOM      9  C   UNL A   1      42.197 -18.066 -36.970  0.00  0.00    -0.049 C 
ATOM     10  C   UNL A   1      42.260 -19.045 -38.153  0.00  0.00    -0.029 C 
ATOM     11  C   UNL A   1      43.448 -18.753 -39.184  0.00  0.00    -0.025 C 
ATOM     12  C   UNL A   1      42.922 -17.531 -40.025  0.00  0.00    -0.059 C 
ATOM     13  C   UNL A   1      44.755 -18.293 -38.495  0.00  0.00    -0.045 C 
ATOM     14  C   UNL A   1      45.891 -17.904 -39.444  0.00  0.00    -0.026 C 
ATOM     15  C   UNL A   1      45.858 -18.584 -40.813  0.00  0.00    +0.061 C 
ATOM     16  C   UNL A   1      45.234 -20.000 -40.782  0.00  0.00    -0.006 C 
ATOM     17  C   UNL A   1      46.178 -20.961 -40.013  0.00  0.00    -0.057 C 
ATOM     18  C   UNL A   1      45.168 -20.536 -42.236  0.00  0.00    -0.057 C 
ATOM     19  C   UNL A   1      43.746 -19.948 -40.189  0.00  0.00    -0.028 C 
ATOM     20  C   UNL A   1      43.294 -21.351 -39.722  0.00  0.00    -0.049 C 
ATOM     21  C   UNL A   1      41.991 -21.379 -38.941  0.00  0.00    -0.047 C 
ATOM     22  C   UNL A   1      42.049 -20.512 -37.657  0.00  0.00    -0.023 C 
ATOM     23  C   UNL A   1      43.243 -20.987 -36.782  0.00  0.00    -0.059 C 
ATOM     24  C   UNL A   1      40.663 -20.625 -36.808  0.00  0.00    -0.021 C 
ATOM     25  C   UNL A   1      39.429 -20.382 -37.736  0.00  0.00    -0.059 C 
ATOM     26  C   UNL A   1      40.508 -22.043 -36.199  0.00  0.00    -0.020 C 
ATOM     27  C   UNL A   1      39.217 -22.222 -35.412  0.00  0.00    +0.061 C 
ENDROOT
BRANCH   1  29
ATOM     28  C   UNL A   1      41.496 -17.557 -32.772  0.00  0.00    -0.062 C 
ATOM     29  C   UNL A   1      39.983 -17.613 -33.040  0.00  0.00    -0.044 C 
ATOM     30  C   UNL A   1      39.266 -16.957 -31.853  0.00  0.00    -0.062 C 
ENDBRANCH   1  29
BRANCH  15  31
ATOM     31  O   UNL A   1      47.176 -18.577 -41.371  0.00  0.00    -0.391 OA
ATOM     32  H   UNL A   1      47.689 -17.851 -40.983  0.00  0.00    +0.000 HD
ENDBRANCH  15  31
BRANCH  27  33
ATOM     33  O   UNL A   1      39.205 -23.540 -34.855  0.00  0.00    -0.391 OA
ATOM     34  H   UNL A   1      40.105 -23.787 -34.590  0.00  0.00    +0.000 HD
ENDBRANCH  27  33
TORSDOF 3
ENDMDL
MODEL 3
REMARK VINA RESULT:    -7.423      2.859      4.372
REMARK INTER + INTRA:          -8.681
REMARK INTER:                  -8.283
REMARK INTRA:                  -0.398
REMARK UNBOUND:                -0.390
REMARK  Name = cpd279.pdb
REMARK  11 active torsions:
REMARK  status: ('A' for Active; 'I' for Inactive)
REMARK    1  A    between atoms: C_1  and  C_2
REMARK    2  A    between atoms: C_2  and  C_3
REMARK    3  A    between atoms: C_2  and  C_4
REMARK    4  A    between atoms: C_7  and  C_8
REMARK    5  A    between atoms: C_14  and  C_15
REMARK    6  A    between atoms: C_18  and  O_19
REMARK    7  A    between atoms: C_20  and  C_21
REMARK    8  A    between atoms: C_20  and  C_22
REMARK    9  A    between atoms: C_26  and  C_27
REMARK   10  A    between atoms: C_28  and  C_29
REMARK   11  A    between atoms: C_31  and  O_32
REMARK                            x       y       z     vdW  Elec       q    Type
REMARK                         _______ _______ _______ _____ _____    ______ ____
ROOT
ATOM      1  C   UNL A   1      46.703 -16.873 -37.354  0.00  0.00    -0.035 C 
ATOM      2  C   UNL A   1      46.992 -18.162 -38.133  0.00  0.00    -0.049 C 
ATOM      3  C   UNL A   1      47.379 -19.214 -37.096  0.00  0.00    -0.045 C 
ATOM      4  C   UNL A   1      47.239 -18.544 -35.705  0.00  0.00    -0.003 C 
ATOM      5  C   UNL A   1      48.621 -17.963 -35.292  0.00  0.00    -0.057 C 
ATOM      6  C   UNL A   1      46.194 -17.393 -35.961  0.00  0.00    -0.027 C 
ATOM      7  C   UNL A   1      44.698 -17.901 -35.894  0.00  0.00    -0.031 C 
ATOM      8  C   UNL A   1      43.657 -16.765 -35.927  0.00  0.00    -0.049 C 
ATOM      9  C   UNL A   1      42.217 -17.275 -35.988  0.00  0.00    -0.049 C 
ATOM     10  C   UNL A   1      41.858 -18.177 -34.796  0.00  0.00    -0.029 C 
ATOM     11  C   UNL A   1      40.293 -18.477 -34.647  0.00  0.00    -0.025 C 
ATOM     12  C   UNL A   1      39.717 -17.155 -34.017  0.00  0.00    -0.059 C 
ATOM     13  C   UNL A   1      39.578 -18.674 -36.006  0.00  0.00    -0.045 C 
ATOM     14  C   UNL A   1      38.061 -18.863 -35.923  0.00  0.00    -0.026 C 
ATOM     15  C   UNL A   1      37.550 -19.457 -34.610  0.00  0.00    +0.061 C 
ATOM     16  C   UNL A   1      38.557 -20.420 -33.937  0.00  0.00    -0.006 C 
ATOM     17  C   UNL A   1      38.691 -21.706 -34.794  0.00  0.00    -0.057 C 
ATOM     18  C   UNL A   1      37.964 -20.872 -32.577  0.00  0.00    -0.057 C 
ATOM     19  C   UNL A   1      39.952 -19.679 -33.665  0.00  0.00    -0.028 C 
ATOM     20  C   UNL A   1      41.083 -20.707 -33.439  0.00  0.00    -0.049 C 
ATOM     21  C   UNL A   1      42.485 -20.122 -33.395  0.00  0.00    -0.047 C 
ATOM     22  C   UNL A   1      42.857 -19.375 -34.701  0.00  0.00    -0.023 C 
ATOM     23  C   UNL A   1      42.688 -20.346 -35.903  0.00  0.00    -0.059 C 
ATOM     24  C   UNL A   1      44.391 -18.826 -34.647  0.00  0.00    -0.021 C 
ATOM     25  C   UNL A   1      44.646 -18.042 -33.318  0.00  0.00    -0.059 C 
ATOM     26  C   UNL A   1      45.397 -20.005 -34.684  0.00  0.00    -0.020 C 
ATOM     27  C   UNL A   1      46.850 -19.558 -34.611  0.00  0.00    +0.061 C 
ENDROOT
BRANCH   1  29
ATOM     28  C   UNL A   1      46.274 -15.867 -39.660  0.00  0.00    -0.062 C 
ATOM     29  C   UNL A   1      45.919 -15.822 -38.164  0.00  0.00    -0.044 C 
ATOM     30  C   UNL A   1      46.210 -14.406 -37.651  0.00  0.00    -0.062 C 
ENDBRANCH   1  29
BRANCH  15  31
ATOM     31  O   UNL A   1      36.275 -20.067 -34.838  0.00  0.00    -0.391 OA
ATOM     32  H   UNL A   1      35.727 -19.479 -35.380  0.00  0.00    +0.000 HD
ENDBRANCH  15  31
BRANCH  27  33
ATOM     33  O   UNL A   1      47.685 -20.716 -34.708  0.00  0.00    -0.391 OA
ATOM     34  H   UNL A   1      48.562 -20.514 -34.346  0.00  0.00    +0.000 HD
ENDBRANCH  27  33
TORSDOF 3
ENDMDL
MODEL 4
REMARK VINA RESULT:    -7.369     17.488     19.845
REMARK INTER + INTRA:          -8.621
REMARK INTER:                  -8.181
REMARK INTRA:                  -0.441
REMARK UNBOUND:                -0.390
REMARK  Name = cpd279.pdb
REMARK  11 active torsions:
REMARK  status: ('A' for Active; 'I' for Inactive)
REMARK    1  A    between atoms: C_1  and  C_2
REMARK    2  A    between atoms: C_2  and  C_3
REMARK    3  A    between atoms: C_2  and  C_4
REMARK    4  A    between atoms: C_7  and  C_8
REMARK    5  A    between atoms: C_14  and  C_15
REMARK    6  A    between atoms: C_18  and  O_19
REMARK    7  A    between atoms: C_20  and  C_21
REMARK    8  A    between atoms: C_20  and  C_22
REMARK    9  A    between atoms: C_26  and  C_27
REMARK   10  A    between atoms: C_28  and  C_29
REMARK   11  A    between atoms: C_31  and  O_32
REMARK                            x       y       z     vdW  Elec       q    Type
REMARK                         _______ _______ _______ _____ _____    ______ ____
ROOT
ATOM      1  C   UNL A   1      35.297 -38.450 -28.500  0.00  0.00    -0.035 C 
ATOM      2  C   UNL A   1      36.300 -37.602 -27.709  0.00  0.00    -0.049 C 
ATOM      3  C   UNL A   1      37.049 -36.754 -28.736  0.00  0.00    -0.045 C 
ATOM      4  C   UNL A   1      36.419 -37.064 -30.118  0.00  0.00    -0.003 C 
ATOM      5  C   UNL A   1      37.243 -38.196 -30.796  0.00  0.00    -0.057 C 
ATOM      6  C   UNL A   1      34.969 -37.558 -29.753  0.00  0.00    -0.027 C 
ATOM      7  C   UNL A   1      33.955 -36.366 -29.531  0.00  0.00    -0.031 C 
ATOM      8  C   UNL A   1      32.489 -36.818 -29.385  0.00  0.00    -0.049 C 
ATOM      9  C   UNL A   1      31.538 -35.670 -29.048  0.00  0.00    -0.049 C 
ATOM     10  C   UNL A   1      31.559 -34.555 -30.106  0.00  0.00    -0.029 C 
ATOM     11  C   UNL A   1      30.370 -33.494 -29.965  0.00  0.00    -0.025 C 
ATOM     12  C   UNL A   1      29.124 -34.247 -30.562  0.00  0.00    -0.059 C 
ATOM     13  C   UNL A   1      30.026 -33.155 -28.495  0.00  0.00    -0.045 C 
ATOM     14  C   UNL A   1      28.827 -32.221 -28.304  0.00  0.00    -0.026 C 
ATOM     15  C   UNL A   1      28.545 -31.276 -29.472  0.00  0.00    +0.061 C 
ATOM     16  C   UNL A   1      29.817 -30.866 -30.252  0.00  0.00    -0.006 C 
ATOM     17  C   UNL A   1      30.696 -29.953 -29.358  0.00  0.00    -0.057 C 
ATOM     18  C   UNL A   1      29.387 -29.995 -31.462  0.00  0.00    -0.057 C 
ATOM     19  C   UNL A   1      30.585 -32.160 -30.803  0.00  0.00    -0.028 C 
ATOM     20  C   UNL A   1      32.049 -31.818 -31.161  0.00  0.00    -0.049 C 
ATOM     21  C   UNL A   1      32.930 -33.014 -31.479  0.00  0.00    -0.047 C 
ATOM     22  C   UNL A   1      33.014 -34.019 -30.303  0.00  0.00    -0.023 C 
ATOM     23  C   UNL A   1      33.515 -33.271 -29.035  0.00  0.00    -0.059 C 
ATOM     24  C   UNL A   1      34.025 -35.250 -30.652  0.00  0.00    -0.021 C 
ATOM     25  C   UNL A   1      33.679 -35.864 -32.047  0.00  0.00    -0.059 C 
ATOM     26  C   UNL A   1      35.491 -34.751 -30.720  0.00  0.00    -0.020 C 
ATOM     27  C   UNL A   1      36.485 -35.851 -31.068  0.00  0.00    +0.061 C 
ENDROOT
BRANCH   1  29
ATOM     28  C   UNL A   1      34.155 -38.455 -26.219  0.00  0.00    -0.062 C 
ATOM     29  C   UNL A   1      34.184 -39.067 -27.629  0.00  0.00    -0.044 C 
ATOM     30  C   UNL A   1      34.378 -40.582 -27.485  0.00  0.00    -0.062 C 
ENDBRANCH   1  29
BRANCH  15  31
ATOM     31  O   UNL A   1      27.807 -30.148 -28.994  0.00  0.00    -0.391 OA
ATOM     32  H   UNL A   1      27.127 -29.907 -29.642  0.00  0.00    +0.000 HD
ENDBRANCH  15  31
BRANCH  27  33
ATOM     33  O   UNL A   1      37.802 -35.294 -31.050  0.00  0.00    -0.391 OA
ATOM     34  H   UNL A   1      38.427 -35.951 -30.703  0.00  0.00    +0.000 HD
ENDBRANCH  27  33
TORSDOF 3
ENDMDL
MODEL 5
REMARK VINA RESULT:    -7.311      1.884      8.013
REMARK INTER + INTRA:          -8.557
REMARK INTER:                  -8.111
REMARK INTRA:                  -0.445
REMARK UNBOUND:                -0.390
REMARK  Name = cpd279.pdb
REMARK  11 active torsions:
REMARK  status: ('A' for Active; 'I' for Inactive)
REMARK    1  A    between atoms: C_1  and  C_2
REMARK    2  A    between atoms: C_2  and  C_3
REMARK    3  A    between atoms: C_2  and  C_4
REMARK    4  A    between atoms: C_7  and  C_8
REMARK    5  A    between atoms: C_14  and  C_15
REMARK    6  A    between atoms: C_18  and  O_19
REMARK    7  A    between atoms: C_20  and  C_21
REMARK    8  A    between atoms: C_20  and  C_22
REMARK    9  A    between atoms: C_26  and  C_27
REMARK   10  A    between atoms: C_28  and  C_29
REMARK   11  A    between atoms: C_31  and  O_32
REMARK                            x       y       z     vdW  Elec       q    Type
REMARK                         _______ _______ _______ _____ _____    ______ ____
ROOT
ATOM      1  C   UNL A   1      40.899 -17.843 -33.553  0.00  0.00    -0.035 C 
ATOM      2  C   UNL A   1      41.460 -19.007 -32.729  0.00  0.00    -0.049 C 
ATOM      3  C   UNL A   1      40.708 -20.257 -33.183  0.00  0.00    -0.045 C 
ATOM      4  C   UNL A   1      39.762 -19.818 -34.330  0.00  0.00    -0.003 C 
ATOM      5  C   UNL A   1      38.369 -19.484 -33.723  0.00  0.00    -0.057 C 
ATOM      6  C   UNL A   1      40.458 -18.525 -34.900  0.00  0.00    -0.027 C 
ATOM      7  C   UNL A   1      41.603 -18.856 -35.938  0.00  0.00    -0.031 C 
ATOM      8  C   UNL A   1      42.154 -17.616 -36.669  0.00  0.00    -0.049 C 
ATOM      9  C   UNL A   1      43.343 -17.933 -37.576  0.00  0.00    -0.049 C 
ATOM     10  C   UNL A   1      43.002 -18.974 -38.655  0.00  0.00    -0.029 C 
ATOM     11  C   UNL A   1      44.102 -19.107 -39.809  0.00  0.00    -0.025 C 
ATOM     12  C   UNL A   1      43.841 -17.851 -40.721  0.00  0.00    -0.059 C 
ATOM     13  C   UNL A   1      45.553 -18.987 -39.286  0.00  0.00    -0.045 C 
ATOM     14  C   UNL A   1      46.639 -19.006 -40.365  0.00  0.00    -0.026 C 
ATOM     15  C   UNL A   1      46.268 -19.747 -41.650  0.00  0.00    +0.061 C 
ATOM     16  C   UNL A   1      45.287 -20.922 -41.420  0.00  0.00    -0.006 C 
ATOM     17  C   UNL A   1      46.011 -22.052 -40.643  0.00  0.00    -0.057 C 
ATOM     18  C   UNL A   1      44.914 -21.523 -42.801  0.00  0.00    -0.057 C 
ATOM     19  C   UNL A   1      43.946 -20.408 -40.710  0.00  0.00    -0.028 C 
ATOM     20  C   UNL A   1      43.181 -21.587 -40.065  0.00  0.00    -0.049 C 
ATOM     21  C   UNL A   1      42.016 -21.188 -39.175  0.00  0.00    -0.047 C 
ATOM     22  C   UNL A   1      42.453 -20.281 -37.996  0.00  0.00    -0.023 C 
ATOM     23  C   UNL A   1      43.561 -21.009 -37.183  0.00  0.00    -0.059 C 
ATOM     24  C   UNL A   1      41.193 -19.934 -37.022  0.00  0.00    -0.021 C 
ATOM     25  C   UNL A   1      39.978 -19.420 -37.860  0.00  0.00    -0.059 C 
ATOM     26  C   UNL A   1      40.724 -21.201 -36.262  0.00  0.00    -0.020 C 
ATOM     27  C   UNL A   1      39.530 -20.949 -35.351  0.00  0.00    +0.061 C 
ENDROOT
BRANCH   1  29
ATOM     28  C   UNL A   1      43.204 -16.891 -33.015  0.00  0.00    -0.062 C 
ATOM     29  C   UNL A   1      41.790 -16.585 -33.536  0.00  0.00    -0.044 C 
ATOM     30  C   UNL A   1      41.182 -15.496 -32.642  0.00  0.00    -0.062 C 
ENDBRANCH   1  29
BRANCH  15  31
ATOM     31  O   UNL A   1      47.466 -20.155 -42.318  0.00  0.00    -0.391 OA
ATOM     32  H   UNL A   1      47.971 -19.371 -42.583  0.00  0.00    +0.000 HD
ENDBRANCH  15  31
BRANCH  27  33
ATOM     33  O   UNL A   1      39.219 -22.165 -34.664  0.00  0.00    -0.391 OA
ATOM     34  H   UNL A   1      39.610 -22.144 -33.777  0.00  0.00    +0.000 HD
ENDBRANCH  27  33
TORSDOF 3
ENDMDL
MODEL 6
REMARK VINA RESULT:    -7.199      3.722      8.307
REMARK INTER + INTRA:          -8.431
REMARK INTER:                  -8.034
REMARK INTRA:                  -0.397
REMARK UNBOUND:                -0.390
REMARK  Name = cpd279.pdb
REMARK  11 active torsions:
REMARK  status: ('A' for Active; 'I' for Inactive)
REMARK    1  A    between atoms: C_1  and  C_2
REMARK    2  A    between atoms: C_2  and  C_3
REMARK    3  A    between atoms: C_2  and  C_4
REMARK    4  A    between atoms: C_7  and  C_8
REMARK    5  A    between atoms: C_14  and  C_15
REMARK    6  A    between atoms: C_18  and  O_19
REMARK    7  A    between atoms: C_20  and  C_21
REMARK    8  A    between atoms: C_20  and  C_22
REMARK    9  A    between atoms: C_26  and  C_27
REMARK   10  A    between atoms: C_28  and  C_29
REMARK   11  A    between atoms: C_31  and  O_32
REMARK                            x       y       z     vdW  Elec       q    Type
REMARK                         _______ _______ _______ _____ _____    ______ ____
ROOT
ATOM      1  C   UNL A   1      44.946 -21.780 -40.852  0.00  0.00    -0.035 C 
ATOM      2  C   UNL A   1      43.869 -21.643 -41.934  0.00  0.00    -0.049 C 
ATOM      3  C   UNL A   1      42.635 -21.067 -41.241  0.00  0.00    -0.045 C 
ATOM      4  C   UNL A   1      43.033 -20.802 -39.767  0.00  0.00    -0.003 C 
ATOM      5  C   UNL A   1      42.643 -22.045 -38.917  0.00  0.00    -0.057 C 
ATOM      6  C   UNL A   1      44.597 -20.630 -39.838  0.00  0.00    -0.027 C 
ATOM      7  C   UNL A   1      45.032 -19.166 -40.245  0.00  0.00    -0.031 C 
ATOM      8  C   UNL A   1      46.546 -18.912 -40.115  0.00  0.00    -0.049 C 
ATOM      9  C   UNL A   1      46.969 -17.535 -40.628  0.00  0.00    -0.049 C 
ATOM     10  C   UNL A   1      46.257 -16.386 -39.895  0.00  0.00    -0.029 C 
ATOM     11  C   UNL A   1      46.886 -14.941 -40.172  0.00  0.00    -0.025 C 
ATOM     12  C   UNL A   1      48.179 -14.918 -39.274  0.00  0.00    -0.059 C 
ATOM     13  C   UNL A   1      47.353 -14.750 -41.634  0.00  0.00    -0.045 C 
ATOM     14  C   UNL A   1      48.055 -13.420 -41.926  0.00  0.00    -0.026 C 
ATOM     15  C   UNL A   1      47.659 -12.261 -41.011  0.00  0.00    +0.061 C 
ATOM     16  C   UNL A   1      46.201 -12.350 -40.501  0.00  0.00    -0.006 C 
ATOM     17  C   UNL A   1      45.226 -12.119 -41.685  0.00  0.00    -0.057 C 
ATOM     18  C   UNL A   1      45.959 -11.179 -39.512  0.00  0.00    -0.057 C 
ATOM     19  C   UNL A   1      45.957 -13.731 -39.726  0.00  0.00    -0.028 C 
ATOM     20  C   UNL A   1      44.446 -14.043 -39.624  0.00  0.00    -0.049 C 
ATOM     21  C   UNL A   1      44.110 -15.432 -39.109  0.00  0.00    -0.047 C 
ATOM     22  C   UNL A   1      44.707 -16.555 -39.996  0.00  0.00    -0.023 C 
ATOM     23  C   UNL A   1      44.214 -16.359 -41.457  0.00  0.00    -0.059 C 
ATOM     24  C   UNL A   1      44.264 -18.028 -39.457  0.00  0.00    -0.021 C 
ATOM     25  C   UNL A   1      44.537 -18.155 -37.923  0.00  0.00    -0.059 C 
ATOM     26  C   UNL A   1      42.746 -18.257 -39.674  0.00  0.00    -0.020 C 
ATOM     27  C   UNL A   1      42.263 -19.609 -39.167  0.00  0.00    +0.061 C 
ENDROOT
BRANCH   1  29
ATOM     28  C   UNL A   1      46.396 -22.921 -42.615  0.00  0.00    -0.062 C 
ATOM     29  C   UNL A   1      46.370 -21.959 -41.415  0.00  0.00    -0.044 C 
ATOM     30  C   UNL A   1      47.317 -22.513 -40.343  0.00  0.00    -0.062 C 
ENDBRANCH   1  29
BRANCH  15  31
ATOM     31  O   UNL A   1      47.932 -11.024 -41.678  0.00  0.00    -0.391 OA
ATOM     32  H   UNL A   1      47.778 -10.286 -41.068  0.00  0.00    +0.000 HD
ENDBRANCH  15  31
BRANCH  27  33
ATOM     33  O   UNL A   1      40.869 -19.733 -39.465  0.00  0.00    -0.391 OA
ATOM     34  H   UNL A   1      40.650 -20.668 -39.606  0.00  0.00    +0.000 HD
ENDBRANCH  27  33
TORSDOF 3
ENDMDL
MODEL 7
REMARK VINA RESULT:    -7.182      4.824      8.064
REMARK INTER + INTRA:          -8.412
REMARK INTER:                  -8.006
REMARK INTRA:                  -0.407
REMARK UNBOUND:                -0.390
REMARK  Name = cpd279.pdb
REMARK  11 active torsions:
REMARK  status: ('A' for Active; 'I' for Inactive)
REMARK    1  A    between atoms: C_1  and  C_2
REMARK    2  A    between atoms: C_2  and  C_3
REMARK    3  A    between atoms: C_2  and  C_4
REMARK    4  A    between atoms: C_7  and  C_8
REMARK    5  A    between atoms: C_14  and  C_15
REMARK    6  A    between atoms: C_18  and  O_19
REMARK    7  A    between atoms: C_20  and  C_21
REMARK    8  A    between atoms: C_20  and  C_22
REMARK    9  A    between atoms: C_26  and  C_27
REMARK   10  A    between atoms: C_28  and  C_29
REMARK   11  A    between atoms: C_31  and  O_32
REMARK                            x       y       z     vdW  Elec       q    Type
REMARK                         _______ _______ _______ _____ _____    ______ ____
ROOT
ATOM      1  C   UNL A   1      45.847 -11.469 -39.704  0.00  0.00    -0.035 C 
ATOM      2  C   UNL A   1      47.154 -11.336 -40.494  0.00  0.00    -0.049 C 
ATOM      3  C   UNL A   1      48.256 -11.899 -39.598  0.00  0.00    -0.045 C 
ATOM      4  C   UNL A   1      47.565 -12.427 -38.316  0.00  0.00    -0.003 C 
ATOM      5  C   UNL A   1      47.587 -11.303 -37.242  0.00  0.00    -0.057 C 
ATOM      6  C   UNL A   1      46.094 -12.727 -38.794  0.00  0.00    -0.027 C 
ATOM      7  C   UNL A   1      45.953 -14.142 -39.482  0.00  0.00    -0.031 C 
ATOM      8  C   UNL A   1      44.493 -14.550 -39.765  0.00  0.00    -0.049 C 
ATOM      9  C   UNL A   1      44.378 -15.862 -40.542  0.00  0.00    -0.049 C 
ATOM     10  C   UNL A   1      45.039 -17.042 -39.811  0.00  0.00    -0.029 C 
ATOM     11  C   UNL A   1      44.678 -18.477 -40.421  0.00  0.00    -0.025 C 
ATOM     12  C   UNL A   1      43.226 -18.757 -39.882  0.00  0.00    -0.059 C 
ATOM     13  C   UNL A   1      44.590 -18.478 -41.966  0.00  0.00    -0.045 C 
ATOM     14  C   UNL A   1      44.148 -19.804 -42.593  0.00  0.00    -0.026 C 
ATOM     15  C   UNL A   1      44.464 -21.052 -41.768  0.00  0.00    +0.061 C 
ATOM     16  C   UNL A   1      45.741 -20.912 -40.905  0.00  0.00    -0.006 C 
ATOM     17  C   UNL A   1      46.984 -20.865 -41.831  0.00  0.00    -0.057 C 
ATOM     18  C   UNL A   1      45.892 -22.196 -40.048  0.00  0.00    -0.057 C 
ATOM     19  C   UNL A   1      45.623 -19.653 -39.920  0.00  0.00    -0.028 C 
ATOM     20  C   UNL A   1      47.017 -19.225 -39.408  0.00  0.00    -0.049 C 
ATOM     21  C   UNL A   1      47.048 -17.909 -38.650  0.00  0.00    -0.047 C 
ATOM     22  C   UNL A   1      46.536 -16.720 -39.503  0.00  0.00    -0.023 C 
ATOM     23  C   UNL A   1      47.375 -16.639 -40.809  0.00  0.00    -0.059 C 
ATOM     24  C   UNL A   1      46.654 -15.316 -38.684  0.00  0.00    -0.021 C 
ATOM     25  C   UNL A   1      46.019 -15.456 -37.262  0.00  0.00    -0.059 C 
ATOM     26  C   UNL A   1      48.140 -14.920 -38.487  0.00  0.00    -0.020 C 
ATOM     27  C   UNL A   1      48.318 -13.626 -37.704  0.00  0.00    +0.061 C 
ENDROOT
BRANCH   1  29
ATOM     28  C   UNL A   1      44.757 -10.283 -41.683  0.00  0.00    -0.062 C 
ATOM     29  C   UNL A   1      44.581 -11.333 -40.574  0.00  0.00    -0.044 C 
ATOM     30  C   UNL A   1      43.373 -10.925 -39.721  0.00  0.00    -0.062 C 
ENDBRANCH   1  29
BRANCH  15  31
ATOM     31  O   UNL A   1      44.510 -22.188 -42.636  0.00  0.00    -0.391 OA
ATOM     32  H   UNL A   1      45.154 -22.829 -42.297  0.00  0.00    +0.000 HD
ENDBRANCH  15  31
BRANCH  27  33
ATOM     33  O   UNL A   1      49.716 -13.330 -37.630  0.00  0.00    -0.391 OA
ATOM     34  H   UNL A   1      49.926 -12.600 -38.234  0.00  0.00    +0.000 HD
ENDBRANCH  27  33
TORSDOF 3
ENDMDL
MODEL 8
REMARK VINA RESULT:    -7.160      2.084      7.798
REMARK INTER + INTRA:          -8.387
REMARK INTER:                  -7.991
REMARK INTRA:                  -0.397
REMARK UNBOUND:                -0.390
REMARK  Name = cpd279.pdb
REMARK  11 active torsions:
REMARK  status: ('A' for Active; 'I' for Inactive)
REMARK    1  A    between atoms: C_1  and  C_2
REMARK    2  A    between atoms: C_2  and  C_3
REMARK    3  A    between atoms: C_2  and  C_4
REMARK    4  A    between atoms: C_7  and  C_8
REMARK    5  A    between atoms: C_14  and  C_15
REMARK    6  A    between atoms: C_18  and  O_19
REMARK    7  A    between atoms: C_20  and  C_21
REMARK    8  A    between atoms: C_20  and  C_22
REMARK    9  A    between atoms: C_26  and  C_27
REMARK   10  A    between atoms: C_28  and  C_29
REMARK   11  A    between atoms: C_31  and  O_32
REMARK                            x       y       z     vdW  Elec       q    Type
REMARK                         _______ _______ _______ _____ _____    ______ ____
ROOT
ATOM      1  C   UNL A   1      39.349 -21.196 -33.778  0.00  0.00    -0.035 C 
ATOM      2  C   UNL A   1      38.149 -21.061 -34.723  0.00  0.00    -0.049 C 
ATOM      3  C   UNL A   1      37.955 -19.564 -34.958  0.00  0.00    -0.045 C 
ATOM      4  C   UNL A   1      39.098 -18.840 -34.203  0.00  0.00    -0.003 C 
ATOM      5  C   UNL A   1      38.587 -18.447 -32.788  0.00  0.00    -0.057 C 
ATOM      6  C   UNL A   1      40.226 -19.936 -34.115  0.00  0.00    -0.027 C 
ATOM      7  C   UNL A   1      41.107 -20.012 -35.425  0.00  0.00    -0.031 C 
ATOM      8  C   UNL A   1      42.345 -20.920 -35.287  0.00  0.00    -0.049 C 
ATOM      9  C   UNL A   1      43.117 -21.083 -36.596  0.00  0.00    -0.049 C 
ATOM     10  C   UNL A   1      43.608 -19.741 -37.164  0.00  0.00    -0.029 C 
ATOM     11  C   UNL A   1      44.675 -19.880 -38.348  0.00  0.00    -0.025 C 
ATOM     12  C   UNL A   1      46.017 -20.230 -37.603  0.00  0.00    -0.059 C 
ATOM     13  C   UNL A   1      44.374 -21.058 -39.305  0.00  0.00    -0.045 C 
ATOM     14  C   UNL A   1      45.422 -21.296 -40.395  0.00  0.00    -0.026 C 
ATOM     15  C   UNL A   1      46.225 -20.062 -40.808  0.00  0.00    +0.061 C 
ATOM     16  C   UNL A   1      45.431 -18.740 -40.676  0.00  0.00    -0.006 C 
ATOM     17  C   UNL A   1      44.302 -18.710 -41.739  0.00  0.00    -0.057 C 
ATOM     18  C   UNL A   1      46.381 -17.565 -41.027  0.00  0.00    -0.057 C 
ATOM     19  C   UNL A   1      44.908 -18.543 -39.175  0.00  0.00    -0.028 C 
ATOM     20  C   UNL A   1      43.757 -17.512 -39.127  0.00  0.00    -0.049 C 
ATOM     21  C   UNL A   1      43.037 -17.413 -37.793  0.00  0.00    -0.047 C 
ATOM     22  C   UNL A   1      42.406 -18.761 -37.357  0.00  0.00    -0.023 C 
ATOM     23  C   UNL A   1      41.451 -19.256 -38.479  0.00  0.00    -0.059 C 
ATOM     24  C   UNL A   1      41.581 -18.600 -35.961  0.00  0.00    -0.021 C 
ATOM     25  C   UNL A   1      42.458 -17.881 -34.885  0.00  0.00    -0.059 C 
ATOM     26  C   UNL A   1      40.311 -17.734 -36.172  0.00  0.00    -0.020 C 
ATOM     27  C   UNL A   1      39.507 -17.525 -34.896  0.00  0.00    +0.061 C 
ENDROOT
BRANCH   1  29
ATOM     28  C   UNL A   1      38.859 -23.699 -33.706  0.00  0.00    -0.062 C 
ATOM     29  C   UNL A   1      39.949 -22.616 -33.739  0.00  0.00    -0.044 C 
ATOM     30  C   UNL A   1      40.838 -22.801 -32.501  0.00  0.00    -0.062 C 
ENDBRANCH   1  29
BRANCH  15  31
ATOM     31  O   UNL A   1      46.744 -20.261 -42.127  0.00  0.00    -0.391 OA
ATOM     32  H   UNL A   1      46.702 -21.203 -42.353  0.00  0.00    +0.000 HD
ENDBRANCH  15  31
BRANCH  27  33
ATOM     33  O   UNL A   1      38.339 -16.764 -35.217  0.00  0.00    -0.391 OA
ATOM     34  H   UNL A   1      38.067 -16.246 -34.443  0.00  0.00    +0.000 HD
ENDBRANCH  27  33
TORSDOF 3
ENDMDL
MODEL 9
REMARK VINA RESULT:    -7.145      4.685      7.797
REMARK INTER + INTRA:          -8.371
REMARK INTER:                  -7.983
REMARK INTRA:                  -0.389
REMARK UNBOUND:                -0.390
REMARK  Name = cpd279.pdb
REMARK  11 active torsions:
REMARK  status: ('A' for Active; 'I' for Inactive)
REMARK    1  A    between atoms: C_1  and  C_2
REMARK    2  A    between atoms: C_2  and  C_3
REMARK    3  A    between atoms: C_2  and  C_4
REMARK    4  A    between atoms: C_7  and  C_8
REMARK    5  A    between atoms: C_14  and  C_15
REMARK    6  A    between atoms: C_18  and  O_19
REMARK    7  A    between atoms: C_20  and  C_21
REMARK    8  A    between atoms: C_20  and  C_22
REMARK    9  A    between atoms: C_26  and  C_27
REMARK   10  A    between atoms: C_28  and  C_29
REMARK   11  A    between atoms: C_31  and  O_32
REMARK                            x       y       z     vdW  Elec       q    Type
REMARK                         _______ _______ _______ _____ _____    ______ ____
ROOT
ATOM      1  C   UNL A   1      43.200 -12.816 -38.882  0.00  0.00    -0.035 C 
ATOM      2  C   UNL A   1      44.381 -12.103 -39.551  0.00  0.00    -0.049 C 
ATOM      3  C   UNL A   1      45.594 -12.347 -38.654  0.00  0.00    -0.045 C 
ATOM      4  C   UNL A   1      45.120 -13.270 -37.502  0.00  0.00    -0.003 C 
ATOM      5  C   UNL A   1      44.700 -12.382 -36.297  0.00  0.00    -0.057 C 
ATOM      6  C   UNL A   1      43.877 -14.014 -38.121  0.00  0.00    -0.027 C 
ATOM      7  C   UNL A   1      44.287 -15.268 -38.990  0.00  0.00    -0.031 C 
ATOM      8  C   UNL A   1      43.091 -16.135 -39.428  0.00  0.00    -0.049 C 
ATOM      9  C   UNL A   1      43.488 -17.273 -40.370  0.00  0.00    -0.049 C 
ATOM     10  C   UNL A   1      44.524 -18.221 -39.747  0.00  0.00    -0.029 C 
ATOM     11  C   UNL A   1      44.736 -19.585 -40.557  0.00  0.00    -0.025 C 
ATOM     12  C   UNL A   1      43.482 -20.451 -40.166  0.00  0.00    -0.059 C 
ATOM     13  C   UNL A   1      44.689 -19.397 -42.092  0.00  0.00    -0.045 C 
ATOM     14  C   UNL A   1      44.785 -20.687 -42.911  0.00  0.00    -0.026 C 
ATOM     15  C   UNL A   1      45.524 -21.838 -42.228  0.00  0.00    +0.061 C 
ATOM     16  C   UNL A   1      46.639 -21.367 -41.263  0.00  0.00    -0.006 C 
ATOM     17  C   UNL A   1      47.795 -20.737 -42.082  0.00  0.00    -0.057 C 
ATOM     18  C   UNL A   1      47.238 -22.616 -40.565  0.00  0.00    -0.057 C 
ATOM     19  C   UNL A   1      46.040 -20.394 -40.140  0.00  0.00    -0.028 C 
ATOM     20  C   UNL A   1      47.164 -19.565 -39.477  0.00  0.00    -0.049 C 
ATOM     21  C   UNL A   1      46.687 -18.452 -38.559  0.00  0.00    -0.047 C 
ATOM     22  C   UNL A   1      45.788 -17.423 -39.291  0.00  0.00    -0.023 C 
ATOM     23  C   UNL A   1      46.564 -16.854 -40.512  0.00  0.00    -0.059 C 
ATOM     24  C   UNL A   1      45.357 -16.206 -38.296  0.00  0.00    -0.021 C 
ATOM     25  C   UNL A   1      44.789 -16.771 -36.954  0.00  0.00    -0.059 C 
ATOM     26  C   UNL A   1      46.584 -15.328 -37.942  0.00  0.00    -0.020 C 
ATOM     27  C   UNL A   1      46.252 -14.185 -36.993  0.00  0.00    +0.061 C 
ENDROOT
BRANCH   1  29
ATOM     28  C   UNL A   1      41.692 -11.776 -40.658  0.00  0.00    -0.062 C 
ATOM     29  C   UNL A   1      41.994 -13.028 -39.818  0.00  0.00    -0.044 C 
ATOM     30  C   UNL A   1      40.733 -13.377 -39.016  0.00  0.00    -0.062 C 
ENDBRANCH   1  29
BRANCH  15  31
ATOM     31  O   UNL A   1      46.008 -22.741 -43.227  0.00  0.00    -0.391 OA
ATOM     32  H   UNL A   1      46.587 -23.401 -42.814  0.00  0.00    +0.000 HD
ENDBRANCH  15  31
BRANCH  27  33
ATOM     33  O   UNL A   1      47.438 -13.413 -36.779  0.00  0.00    -0.391 OA
ATOM     34  H   UNL A   1      48.089 -13.624 -37.468  0.00  0.00    +0.000 HD
ENDBRANCH  27  33
TORSDOF 3
ENDMDL
MODEL 10
REMARK VINA RESULT:    -7.129     17.171     19.536
REMARK INTER + INTRA:          -8.353
REMARK INTER:                  -7.916
REMARK INTRA:                  -0.437
REMARK UNBOUND:                -0.390
REMARK  Name = cpd279.pdb
REMARK  11 active torsions:
REMARK  status: ('A' for Active; 'I' for Inactive)
REMARK    1  A    between atoms: C_1  and  C_2
REMARK    2  A    between atoms: C_2  and  C_3
REMARK    3  A    between atoms: C_2  and  C_4
REMARK    4  A    between atoms: C_7  and  C_8
REMARK    5  A    between atoms: C_14  and  C_15
REMARK    6  A    between atoms: C_18  and  O_19
REMARK    7  A    between atoms: C_20  and  C_21
REMARK    8  A    between atoms: C_20  and  C_22
REMARK    9  A    between atoms: C_26  and  C_27
REMARK   10  A    between atoms: C_28  and  C_29
REMARK   11  A    between atoms: C_31  and  O_32
REMARK                            x       y       z     vdW  Elec       q    Type
REMARK                         _______ _______ _______ _____ _____    ______ ____
ROOT
ATOM      1  C   UNL A   1      27.010 -30.281 -32.222  0.00  0.00    -0.035 C 
ATOM      2  C   UNL A   1      27.817 -29.022 -32.556  0.00  0.00    -0.049 C 
ATOM      3  C   UNL A   1      28.349 -28.488 -31.227  0.00  0.00    -0.045 C 
ATOM      4  C   UNL A   1      27.905 -29.491 -30.132  0.00  0.00    -0.003 C 
ATOM      5  C   UNL A   1      26.560 -29.000 -29.525  0.00  0.00    -0.057 C 
ATOM      6  C   UNL A   1      27.711 -30.835 -30.929  0.00  0.00    -0.027 C 
ATOM      7  C   UNL A   1      29.066 -31.623 -31.136  0.00  0.00    -0.031 C 
ATOM      8  C   UNL A   1      28.877 -33.036 -31.720  0.00  0.00    -0.049 C 
ATOM      9  C   UNL A   1      30.200 -33.738 -32.031  0.00  0.00    -0.049 C 
ATOM     10  C   UNL A   1      31.098 -33.882 -30.792  0.00  0.00    -0.029 C 
ATOM     11  C   UNL A   1      32.338 -34.873 -30.992  0.00  0.00    -0.025 C 
ATOM     12  C   UNL A   1      31.694 -36.305 -30.881  0.00  0.00    -0.059 C 
ATOM     13  C   UNL A   1      32.975 -34.777 -32.400  0.00  0.00    -0.045 C 
ATOM     14  C   UNL A   1      34.101 -35.777 -32.676  0.00  0.00    -0.026 C 
ATOM     15  C   UNL A   1      34.862 -36.258 -31.440  0.00  0.00    +0.061 C 
ATOM     16  C   UNL A   1      34.930 -35.203 -30.310  0.00  0.00    -0.006 C 
ATOM     17  C   UNL A   1      35.837 -34.028 -30.758  0.00  0.00    -0.057 C 
ATOM     18  C   UNL A   1      35.635 -35.846 -29.086  0.00  0.00    -0.057 C 
ATOM     19  C   UNL A   1      33.457 -34.750 -29.870  0.00  0.00    -0.028 C 
ATOM     20  C   UNL A   1      33.503 -33.406 -29.108  0.00  0.00    -0.049 C 
ATOM     21  C   UNL A   1      32.148 -32.772 -28.842  0.00  0.00    -0.047 C 
ATOM     22  C   UNL A   1      31.361 -32.484 -30.146  0.00  0.00    -0.023 C 
ATOM     23  C   UNL A   1      32.230 -31.589 -31.073  0.00  0.00    -0.059 C 
ATOM     24  C   UNL A   1      29.947 -31.737 -29.826  0.00  0.00    -0.021 C 
ATOM     25  C   UNL A   1      29.162 -32.504 -28.713  0.00  0.00    -0.059 C 
ATOM     26  C   UNL A   1      30.194 -30.297 -29.306  0.00  0.00    -0.020 C 
ATOM     27  C   UNL A   1      28.910 -29.553 -28.964  0.00  0.00    +0.061 C 
ENDROOT
BRANCH   1  29
ATOM     28  C   UNL A   1      27.536 -30.738 -34.677  0.00  0.00    -0.062 C 
ATOM     29  C   UNL A   1      26.732 -31.181 -33.443  0.00  0.00    -0.044 C 
ATOM     30  C   UNL A   1      25.244 -31.157 -33.814  0.00  0.00    -0.062 C 
ENDBRANCH   1  29
BRANCH  15  31
ATOM     31  O   UNL A   1      36.157 -36.721 -31.838  0.00  0.00    -0.391 OA
ATOM     32  H   UNL A   1      36.609 -37.114 -31.075  0.00  0.00    +0.000 HD
ENDBRANCH  15  31
BRANCH  27  33
ATOM     33  O   UNL A   1      29.252 -28.227 -28.550  0.00  0.00    -0.391 OA
ATOM     34  H   UNL A   1      29.544 -28.242 -27.624  0.00  0.00    +0.000 HD
ENDBRANCH  27  33
TORSDOF 3
ENDMDL
MODEL 11
REMARK VINA RESULT:    -7.113     17.506     21.127
REMARK INTER + INTRA:          -8.335
REMARK INTER:                  -7.896
REMARK INTRA:                  -0.439
REMARK UNBOUND:                -0.390
REMARK  Name = cpd279.pdb
REMARK  11 active torsions:
REMARK  status: ('A' for Active; 'I' for Inactive)
REMARK    1  A    between atoms: C_1  and  C_2
REMARK    2  A    between atoms: C_2  and  C_3
REMARK    3  A    between atoms: C_2  and  C_4
REMARK    4  A    between atoms: C_7  and  C_8
REMARK    5  A    between atoms: C_14  and  C_15
REMARK    6  A    between atoms: C_18  and  O_19
REMARK    7  A    between atoms: C_20  and  C_21
REMARK    8  A    between atoms: C_20  and  C_22
REMARK    9  A    between atoms: C_26  and  C_27
REMARK   10  A    between atoms: C_28  and  C_29
REMARK   11  A    between atoms: C_31  and  O_32
REMARK                            x       y       z     vdW  Elec       q    Type
REMARK                         _______ _______ _______ _____ _____    ______ ____
ROOT
ATOM      1  C   UNL A   1      36.396 -38.809 -28.917  0.00  0.00    -0.035 C 
ATOM      2  C   UNL A   1      36.412 -39.358 -30.348  0.00  0.00    -0.049 C 
ATOM      3  C   UNL A   1      35.133 -40.177 -30.508  0.00  0.00    -0.045 C 
ATOM      4  C   UNL A   1      34.341 -40.033 -29.184  0.00  0.00    -0.003 C 
ATOM      5  C   UNL A   1      34.710 -41.224 -28.254  0.00  0.00    -0.057 C 
ATOM      6  C   UNL A   1      34.864 -38.669 -28.594  0.00  0.00    -0.027 C 
ATOM      7  C   UNL A   1      34.119 -37.416 -29.204  0.00  0.00    -0.031 C 
ATOM      8  C   UNL A   1      34.458 -36.090 -28.495  0.00  0.00    -0.049 C 
ATOM      9  C   UNL A   1      33.829 -34.871 -29.171  0.00  0.00    -0.049 C 
ATOM     10  C   UNL A   1      32.296 -34.961 -29.245  0.00  0.00    -0.029 C 
ATOM     11  C   UNL A   1      31.577 -33.591 -29.653  0.00  0.00    -0.025 C 
ATOM     12  C   UNL A   1      31.617 -32.739 -28.330  0.00  0.00    -0.059 C 
ATOM     13  C   UNL A   1      32.355 -32.789 -30.725  0.00  0.00    -0.045 C 
ATOM     14  C   UNL A   1      31.761 -31.423 -31.076  0.00  0.00    -0.026 C 
ATOM     15  C   UNL A   1      30.253 -31.293 -30.860  0.00  0.00    +0.061 C 
ATOM     16  C   UNL A   1      29.487 -32.622 -31.061  0.00  0.00    -0.006 C 
ATOM     17  C   UNL A   1      29.523 -33.014 -32.562  0.00  0.00    -0.057 C 
ATOM     18  C   UNL A   1      27.993 -32.380 -30.718  0.00  0.00    -0.057 C 
ATOM     19  C   UNL A   1      30.057 -33.757 -30.085  0.00  0.00    -0.028 C 
ATOM     20  C   UNL A   1      29.647 -35.163 -30.580  0.00  0.00    -0.049 C 
ATOM     21  C   UNL A   1      30.318 -36.320 -29.860  0.00  0.00    -0.047 C 
ATOM     22  C   UNL A   1      31.863 -36.273 -29.974  0.00  0.00    -0.023 C 
ATOM     23  C   UNL A   1      32.257 -36.239 -31.477  0.00  0.00    -0.059 C 
ATOM     24  C   UNL A   1      32.544 -37.568 -29.254  0.00  0.00    -0.021 C 
ATOM     25  C   UNL A   1      31.974 -37.756 -27.811  0.00  0.00    -0.059 C 
ATOM     26  C   UNL A   1      32.229 -38.863 -30.045  0.00  0.00    -0.020 C 
ATOM     27  C   UNL A   1      32.818 -40.115 -29.409  0.00  0.00    +0.061 C 
ENDROOT
BRANCH   1  29
ATOM     28  C   UNL A   1      37.735 -36.927 -30.002  0.00  0.00    -0.062 C 
ATOM     29  C   UNL A   1      37.382 -37.645 -28.689  0.00  0.00    -0.044 C 
ATOM     30  C   UNL A   1      38.687 -38.149 -28.059  0.00  0.00    -0.062 C 
ENDBRANCH   1  29
BRANCH  15  31
ATOM     31  O   UNL A   1      29.751 -30.238 -31.687  0.00  0.00    -0.391 OA
ATOM     32  H   UNL A   1      29.188 -29.652 -31.158  0.00  0.00    +0.000 HD
ENDBRANCH  15  31
BRANCH  27  33
ATOM     33  O   UNL A   1      32.512 -41.235 -30.246  0.00  0.00    -0.391 OA
ATOM     34  H   UNL A   1      31.793 -40.999 -30.853  0.00  0.00    +0.000 HD
ENDBRANCH  27  33
TORSDOF 3
ENDMDL
MODEL 12
REMARK VINA RESULT:    -7.000      2.034      3.938
REMARK INTER + INTRA:          -8.208
REMARK INTER:                  -7.793
REMARK INTRA:                  -0.415
REMARK UNBOUND:                -0.390
REMARK  Name = cpd279.pdb
REMARK  11 active torsions:
REMARK  status: ('A' for Active; 'I' for Inactive)
REMARK    1  A    between atoms: C_1  and  C_2
REMARK    2  A    between atoms: C_2  and  C_3
REMARK    3  A    between atoms: C_2  and  C_4
REMARK    4  A    between atoms: C_7  and  C_8
REMARK    5  A    between atoms: C_14  and  C_15
REMARK    6  A    between atoms: C_18  and  O_19
REMARK    7  A    between atoms: C_20  and  C_21
REMARK    8  A    between atoms: C_20  and  C_22
REMARK    9  A    between atoms: C_26  and  C_27
REMARK   10  A    between atoms: C_28  and  C_29
REMARK   11  A    between atoms: C_31  and  O_32
REMARK                            x       y       z     vdW  Elec       q    Type
REMARK                         _______ _______ _______ _____ _____    ______ ____
ROOT
ATOM      1  C   UNL A   1      45.034 -17.217 -40.851  0.00  0.00    -0.035 C 
ATOM      2  C   UNL A   1      44.185 -17.979 -41.876  0.00  0.00    -0.049 C 
ATOM      3  C   UNL A   1      44.502 -19.460 -41.680  0.00  0.00    -0.045 C 
ATOM      4  C   UNL A   1      45.482 -19.554 -40.484  0.00  0.00    -0.003 C 
ATOM      5  C   UNL A   1      46.937 -19.555 -41.033  0.00  0.00    -0.057 C 
ATOM      6  C   UNL A   1      45.184 -18.241 -39.667  0.00  0.00    -0.027 C 
ATOM      7  C   UNL A   1      43.946 -18.393 -38.696  0.00  0.00    -0.031 C 
ATOM      8  C   UNL A   1      43.764 -17.203 -37.734  0.00  0.00    -0.049 C 
ATOM      9  C   UNL A   1      42.494 -17.305 -36.888  0.00  0.00    -0.049 C 
ATOM     10  C   UNL A   1      42.454 -18.582 -36.034  0.00  0.00    -0.029 C 
ATOM     11  C   UNL A   1      41.313 -18.585 -34.911  0.00  0.00    -0.025 C 
ATOM     12  C   UNL A   1      41.900 -17.663 -33.779  0.00  0.00    -0.059 C 
ATOM     13  C   UNL A   1      39.992 -17.931 -35.383  0.00  0.00    -0.045 C 
ATOM     14  C   UNL A   1      38.903 -17.818 -34.313  0.00  0.00    -0.026 C 
ATOM     15  C   UNL A   1      38.972 -18.863 -33.199  0.00  0.00    +0.061 C 
ATOM     16  C   UNL A   1      39.561 -20.217 -33.663  0.00  0.00    -0.006 C 
ATOM     17  C   UNL A   1      38.566 -20.906 -34.633  0.00  0.00    -0.057 C 
ATOM     18  C   UNL A   1      39.670 -21.150 -32.428  0.00  0.00    -0.057 C 
ATOM     19  C   UNL A   1      41.026 -20.016 -34.280  0.00  0.00    -0.028 C 
ATOM     20  C   UNL A   1      41.427 -21.229 -35.149  0.00  0.00    -0.049 C 
ATOM     21  C   UNL A   1      42.698 -21.047 -35.961  0.00  0.00    -0.047 C 
ATOM     22  C   UNL A   1      42.611 -19.847 -36.938  0.00  0.00    -0.023 C 
ATOM     23  C   UNL A   1      41.373 -20.036 -37.860  0.00  0.00    -0.059 C 
ATOM     24  C   UNL A   1      43.960 -19.727 -37.844  0.00  0.00    -0.021 C 
ATOM     25  C   UNL A   1      45.234 -19.776 -36.939  0.00  0.00    -0.059 C 
ATOM     26  C   UNL A   1      44.058 -20.912 -38.840  0.00  0.00    -0.020 C 
ATOM     27  C   UNL A   1      45.314 -20.872 -39.701  0.00  0.00    +0.061 C 
ENDROOT
BRANCH   1  29
ATOM     28  C   UNL A   1      43.347 -15.409 -41.480  0.00  0.00    -0.062 C 
ATOM     29  C   UNL A   1      44.567 -15.767 -40.615  0.00  0.00    -0.044 C 
ATOM     30  C   UNL A   1      45.688 -14.772 -40.941  0.00  0.00    -0.062 C 
ENDBRANCH   1  29
BRANCH  15  31
ATOM     31  O   UNL A   1      37.678 -19.002 -32.606  0.00  0.00    -0.391 OA
ATOM     32  H   UNL A   1      37.653 -18.518 -31.766  0.00  0.00    +0.000 HD
ENDBRANCH  15  31
BRANCH  27  33
ATOM     33  O   UNL A   1      45.273 -21.974 -40.612  0.00  0.00    -0.391 OA
ATOM     34  H   UNL A   1      46.105 -22.014 -41.109  0.00  0.00    +0.000 HD
ENDBRANCH  27  33
TORSDOF 3
ENDMDL
MODEL 13
REMARK VINA RESULT:    -6.942      3.482      6.285
REMARK INTER + INTRA:          -8.143
REMARK INTER:                  -7.725
REMARK INTRA:                  -0.419
REMARK UNBOUND:                -0.390
REMARK  Name = cpd279.pdb
REMARK  11 active torsions:
REMARK  status: ('A' for Active; 'I' for Inactive)
REMARK    1  A    between atoms: C_1  and  C_2
REMARK    2  A    between atoms: C_2  and  C_3
REMARK    3  A    between atoms: C_2  and  C_4
REMARK    4  A    between atoms: C_7  and  C_8
REMARK    5  A    between atoms: C_14  and  C_15
REMARK    6  A    between atoms: C_18  and  O_19
REMARK    7  A    between atoms: C_20  and  C_21
REMARK    8  A    between atoms: C_20  and  C_22
REMARK    9  A    between atoms: C_26  and  C_27
REMARK   10  A    between atoms: C_28  and  C_29
REMARK   11  A    between atoms: C_31  and  O_32
REMARK                            x       y       z     vdW  Elec       q    Type
REMARK                         _______ _______ _______ _____ _____    ______ ____
ROOT
ATOM      1  C   UNL A   1      47.869 -13.696 -41.888  0.00  0.00    -0.035 C 
ATOM      2  C   UNL A   1      47.672 -12.487 -40.966  0.00  0.00    -0.049 C 
ATOM      3  C   UNL A   1      46.167 -12.233 -40.906  0.00  0.00    -0.045 C 
ATOM      4  C   UNL A   1      45.490 -13.351 -41.739  0.00  0.00    -0.003 C 
ATOM      5  C   UNL A   1      45.285 -12.832 -43.191  0.00  0.00    -0.057 C 
ATOM      6  C   UNL A   1      46.544 -14.522 -41.699  0.00  0.00    -0.027 C 
ATOM      7  C   UNL A   1      46.432 -15.398 -40.388  0.00  0.00    -0.031 C 
ATOM      8  C   UNL A   1      47.300 -16.671 -40.418  0.00  0.00    -0.049 C 
ATOM      9  C   UNL A   1      47.280 -17.442 -39.098  0.00  0.00    -0.049 C 
ATOM     10  C   UNL A   1      45.863 -17.876 -38.689  0.00  0.00    -0.029 C 
ATOM     11  C   UNL A   1      45.821 -18.941 -37.496  0.00  0.00    -0.025 C 
ATOM     12  C   UNL A   1      46.201 -20.300 -38.195  0.00  0.00    -0.059 C 
ATOM     13  C   UNL A   1      46.892 -18.682 -36.409  0.00  0.00    -0.045 C 
ATOM     14  C   UNL A   1      46.960 -19.732 -35.297  0.00  0.00    -0.026 C 
ATOM     15  C   UNL A   1      45.655 -20.483 -35.030  0.00  0.00    +0.061 C 
ATOM     16  C   UNL A   1      44.390 -19.639 -35.315  0.00  0.00    -0.006 C 
ATOM     17  C   UNL A   1      44.282 -18.503 -34.263  0.00  0.00    -0.057 C 
ATOM     18  C   UNL A   1      43.145 -20.540 -35.102  0.00  0.00    -0.057 C 
ATOM     19  C   UNL A   1      44.389 -19.116 -36.830  0.00  0.00    -0.028 C 
ATOM     20  C   UNL A   1      43.417 -17.926 -36.998  0.00  0.00    -0.049 C 
ATOM     21  C   UNL A   1      43.502 -17.210 -38.335  0.00  0.00    -0.047 C 
ATOM     22  C   UNL A   1      44.915 -16.636 -38.612  0.00  0.00    -0.023 C 
ATOM     23  C   UNL A   1      45.315 -15.694 -37.441  0.00  0.00    -0.059 C 
ATOM     24  C   UNL A   1      44.950 -15.812 -40.018  0.00  0.00    -0.021 C 
ATOM     25  C   UNL A   1      44.326 -16.666 -41.169  0.00  0.00    -0.059 C 
ATOM     26  C   UNL A   1      44.117 -14.509 -39.910  0.00  0.00    -0.020 C 
ATOM     27  C   UNL A   1      44.089 -13.704 -41.203  0.00  0.00    +0.061 C 
ENDROOT
BRANCH   1  29
ATOM     28  C   UNL A   1      50.127 -13.657 -40.701  0.00  0.00    -0.062 C 
ATOM     29  C   UNL A   1      49.258 -14.353 -41.762  0.00  0.00    -0.044 C 
ATOM     30  C   UNL A   1      50.011 -14.302 -43.098  0.00  0.00    -0.062 C 
ENDBRANCH   1  29
BRANCH  15  31
ATOM     31  O   UNL A   1      45.679 -21.003 -33.696  0.00  0.00    -0.391 OA
ATOM     32  H   UNL A   1      44.985 -20.576 -33.170  0.00  0.00    +0.000 HD
ENDBRANCH  15  31
BRANCH  27  33
ATOM     33  O   UNL A   1      43.343 -12.505 -40.973  0.00  0.00    -0.391 OA
ATOM     34  H   UNL A   1      43.451 -11.907 -41.730  0.00  0.00    +0.000 HD
ENDBRANCH  27  33
TORSDOF 3
ENDMDL
MODEL 14
REMARK VINA RESULT:    -6.859     18.422     23.281
REMARK INTER + INTRA:          -8.051
REMARK INTER:                  -7.640
REMARK INTRA:                  -0.411
REMARK UNBOUND:                -0.390
REMARK  Name = cpd279.pdb
REMARK  11 active torsions:
REMARK  status: ('A' for Active; 'I' for Inactive)
REMARK    1  A    between atoms: C_1  and  C_2
REMARK    2  A    between atoms: C_2  and  C_3
REMARK    3  A    between atoms: C_2  and  C_4
REMARK    4  A    between atoms: C_7  and  C_8
REMARK    5  A    between atoms: C_14  and  C_15
REMARK    6  A    between atoms: C_18  and  O_19
REMARK    7  A    between atoms: C_20  and  C_21
REMARK    8  A    between atoms: C_20  and  C_22
REMARK    9  A    between atoms: C_26  and  C_27
REMARK   10  A    between atoms: C_28  and  C_29
REMARK   11  A    between atoms: C_31  and  O_32
REMARK                            x       y       z     vdW  Elec       q    Type
REMARK                         _______ _______ _______ _____ _____    ______ ____
ROOT
ATOM      1  C   UNL A   1      35.064 -36.076 -29.081  0.00  0.00    -0.035 C 
ATOM      2  C   UNL A   1      36.353 -36.779 -28.639  0.00  0.00    -0.049 C 
ATOM      3  C   UNL A   1      35.929 -37.885 -27.674  0.00  0.00    -0.045 C 
ATOM      4  C   UNL A   1      34.381 -37.863 -27.620  0.00  0.00    -0.003 C 
ATOM      5  C   UNL A   1      33.938 -36.971 -26.426  0.00  0.00    -0.057 C 
ATOM      6  C   UNL A   1      33.979 -37.211 -28.996  0.00  0.00    -0.027 C 
ATOM      7  C   UNL A   1      33.948 -38.256 -30.181  0.00  0.00    -0.031 C 
ATOM      8  C   UNL A   1      33.354 -37.694 -31.487  0.00  0.00    -0.049 C 
ATOM      9  C   UNL A   1      33.444 -38.673 -32.658  0.00  0.00    -0.049 C 
ATOM     10  C   UNL A   1      32.723 -40.001 -32.373  0.00  0.00    -0.029 C 
ATOM     11  C   UNL A   1      32.520 -40.927 -33.663  0.00  0.00    -0.025 C 
ATOM     12  C   UNL A   1      31.313 -40.257 -34.418  0.00  0.00    -0.059 C 
ATOM     13  C   UNL A   1      33.727 -40.896 -34.632  0.00  0.00    -0.045 C 
ATOM     14  C   UNL A   1      33.541 -41.686 -35.930  0.00  0.00    -0.026 C 
ATOM     15  C   UNL A   1      32.560 -42.856 -35.846  0.00  0.00    +0.061 C 
ATOM     16  C   UNL A   1      32.503 -43.511 -34.446  0.00  0.00    -0.006 C 
ATOM     17  C   UNL A   1      33.840 -44.246 -34.167  0.00  0.00    -0.057 C 
ATOM     18  C   UNL A   1      31.407 -44.610 -34.466  0.00  0.00    -0.057 C 
ATOM     19  C   UNL A   1      32.118 -42.428 -33.330  0.00  0.00    -0.028 C 
ATOM     20  C   UNL A   1      32.504 -42.932 -31.920  0.00  0.00    -0.049 C 
ATOM     21  C   UNL A   1      32.392 -41.898 -30.814  0.00  0.00    -0.047 C 
ATOM     22  C   UNL A   1      33.283 -40.655 -31.069  0.00  0.00    -0.023 C 
ATOM     23  C   UNL A   1      34.754 -41.120 -31.259  0.00  0.00    -0.059 C 
ATOM     24  C   UNL A   1      33.193 -39.603 -29.828  0.00  0.00    -0.021 C 
ATOM     25  C   UNL A   1      31.701 -39.306 -29.467  0.00  0.00    -0.059 C 
ATOM     26  C   UNL A   1      33.864 -40.192 -28.561  0.00  0.00    -0.020 C 
ATOM     27  C   UNL A   1      33.792 -39.264 -27.356  0.00  0.00    +0.061 C 
ENDROOT
BRANCH   1  29
ATOM     28  C   UNL A   1      36.693 -35.176 -30.827  0.00  0.00    -0.062 C 
ATOM     29  C   UNL A   1      35.233 -35.209 -30.345  0.00  0.00    -0.044 C 
ATOM     30  C   UNL A   1      34.788 -33.764 -30.081  0.00  0.00    -0.062 C 
ENDBRANCH   1  29
BRANCH  15  31
ATOM     31  O   UNL A   1      32.864 -43.797 -36.881  0.00  0.00    -0.391 OA
ATOM     32  H   UNL A   1      33.720 -44.214 -36.698  0.00  0.00    +0.000 HD
ENDBRANCH  15  31
BRANCH  27  33
ATOM     33  O   UNL A   1      34.485 -39.881 -26.266  0.00  0.00    -0.391 OA
ATOM     34  H   UNL A   1      34.718 -39.208 -25.608  0.00  0.00    +0.000 HD
ENDBRANCH  27  33
TORSDOF 3
ENDMDL
MODEL 15
REMARK VINA RESULT:    -6.826      2.076      3.103
REMARK INTER + INTRA:          -8.015
REMARK INTER:                  -7.609
REMARK INTRA:                  -0.406
REMARK UNBOUND:                -0.390
REMARK  Name = cpd279.pdb
REMARK  11 active torsions:
REMARK  status: ('A' for Active; 'I' for Inactive)
REMARK    1  A    between atoms: C_1  and  C_2
REMARK    2  A    between atoms: C_2  and  C_3
REMARK    3  A    between atoms: C_2  and  C_4
REMARK    4  A    between atoms: C_7  and  C_8
REMARK    5  A    between atoms: C_14  and  C_15
REMARK    6  A    between atoms: C_18  and  O_19
REMARK    7  A    between atoms: C_20  and  C_21
REMARK    8  A    between atoms: C_20  and  C_22
REMARK    9  A    between atoms: C_26  and  C_27
REMARK   10  A    between atoms: C_28  and  C_29
REMARK   11  A    between atoms: C_31  and  O_32
REMARK                            x       y       z     vdW  Elec       q    Type
REMARK                         _______ _______ _______ _____ _____    ______ ____
ROOT
ATOM      1  C   UNL A   1      44.157 -17.167 -40.380  0.00  0.00    -0.035 C 
ATOM      2  C   UNL A   1      44.861 -16.315 -39.318  0.00  0.00    -0.049 C 
ATOM      3  C   UNL A   1      43.851 -15.259 -38.875  0.00  0.00    -0.045 C 
ATOM      4  C   UNL A   1      42.532 -15.554 -39.634  0.00  0.00    -0.003 C 
ATOM      5  C   UNL A   1      42.506 -14.700 -40.934  0.00  0.00    -0.057 C 
ATOM      6  C   UNL A   1      42.642 -17.090 -39.967  0.00  0.00    -0.027 C 
ATOM      7  C   UNL A   1      42.184 -18.009 -38.765  0.00  0.00    -0.031 C 
ATOM      8  C   UNL A   1      42.077 -19.502 -39.133  0.00  0.00    -0.049 C 
ATOM      9  C   UNL A   1      41.755 -20.393 -37.933  0.00  0.00    -0.049 C 
ATOM     10  C   UNL A   1      40.436 -20.006 -37.246  0.00  0.00    -0.029 C 
ATOM     11  C   UNL A   1      39.902 -21.087 -36.194  0.00  0.00    -0.025 C 
ATOM     12  C   UNL A   1      39.278 -22.213 -37.099  0.00  0.00    -0.059 C 
ATOM     13  C   UNL A   1      41.033 -21.749 -35.372  0.00  0.00    -0.045 C 
ATOM     14  C   UNL A   1      40.584 -22.864 -34.423  0.00  0.00    -0.026 C 
ATOM     15  C   UNL A   1      39.140 -22.758 -33.932  0.00  0.00    +0.061 C 
ATOM     16  C   UNL A   1      38.634 -21.299 -33.819  0.00  0.00    -0.006 C 
ATOM     17  C   UNL A   1      39.379 -20.585 -32.660  0.00  0.00    -0.057 C 
ATOM     18  C   UNL A   1      37.138 -21.333 -33.410  0.00  0.00    -0.057 C 
ATOM     19  C   UNL A   1      38.762 -20.546 -35.227  0.00  0.00    -0.028 C 
ATOM     20  C   UNL A   1      38.712 -19.013 -35.035  0.00  0.00    -0.049 C 
ATOM     21  C   UNL A   1      39.048 -18.198 -36.273  0.00  0.00    -0.047 C 
ATOM     22  C   UNL A   1      40.467 -18.503 -36.817  0.00  0.00    -0.023 C 
ATOM     23  C   UNL A   1      41.504 -18.262 -35.684  0.00  0.00    -0.059 C 
ATOM     24  C   UNL A   1      40.820 -17.559 -38.098  0.00  0.00    -0.021 C 
ATOM     25  C   UNL A   1      39.665 -17.607 -39.150  0.00  0.00    -0.059 C 
ATOM     26  C   UNL A   1      40.983 -16.081 -37.661  0.00  0.00    -0.020 C 
ATOM     27  C   UNL A   1      41.291 -15.141 -38.819  0.00  0.00    +0.061 C 
ENDROOT
BRANCH   1  29
ATOM     28  C   UNL A   1      46.386 -18.381 -40.642  0.00  0.00    -0.062 C 
ATOM     29  C   UNL A   1      44.854 -18.514 -40.657  0.00  0.00    -0.044 C 
ATOM     30  C   UNL A   1      44.441 -19.074 -42.024  0.00  0.00    -0.062 C 
ENDBRANCH   1  29
BRANCH  15  31
ATOM     31  O   UNL A   1      39.009 -23.481 -32.704  0.00  0.00    -0.391 OA
ATOM     32  H   UNL A   1      39.798 -23.338 -32.158  0.00  0.00    +0.000 HD
ENDBRANCH  15  31
BRANCH  27  33
ATOM     33  O   UNL A   1      41.473 -13.822 -38.296  0.00  0.00    -0.391 OA
ATOM     34  H   UNL A   1      41.371 -13.174 -39.010  0.00  0.00    +0.000 HD
ENDBRANCH  27  33
TORSDOF 3
ENDMDL
MODEL 16
REMARK VINA RESULT:    -6.692     17.624     22.386
REMARK INTER + INTRA:          -7.865
REMARK INTER:                  -7.422
REMARK INTRA:                  -0.442
REMARK UNBOUND:                -0.390
REMARK  Name = cpd279.pdb
REMARK  11 active torsions:
REMARK  status: ('A' for Active; 'I' for Inactive)
REMARK    1  A    between atoms: C_1  and  C_2
REMARK    2  A    between atoms: C_2  and  C_3
REMARK    3  A    between atoms: C_2  and  C_4
REMARK    4  A    between atoms: C_7  and  C_8
REMARK    5  A    between atoms: C_14  and  C_15
REMARK    6  A    between atoms: C_18  and  O_19
REMARK    7  A    between atoms: C_20  and  C_21
REMARK    8  A    between atoms: C_20  and  C_22
REMARK    9  A    between atoms: C_26  and  C_27
REMARK   10  A    between atoms: C_28  and  C_29
REMARK   11  A    between atoms: C_31  and  O_32
REMARK                            x       y       z     vdW  Elec       q    Type
REMARK                         _______ _______ _______ _____ _____    ______ ____
ROOT
ATOM      1  C   UNL A   1      33.162 -33.756 -29.981  0.00  0.00    -0.035 C 
ATOM      2  C   UNL A   1      32.936 -34.135 -31.450  0.00  0.00    -0.049 C 
ATOM      3  C   UNL A   1      34.256 -34.720 -31.950  0.00  0.00    -0.045 C 
ATOM      4  C   UNL A   1      35.222 -34.746 -30.738  0.00  0.00    -0.003 C 
ATOM      5  C   UNL A   1      36.065 -33.440 -30.748  0.00  0.00    -0.057 C 
ATOM      6  C   UNL A   1      34.249 -34.785 -29.500  0.00  0.00    -0.027 C 
ATOM      7  C   UNL A   1      33.747 -36.245 -29.163  0.00  0.00    -0.031 C 
ATOM      8  C   UNL A   1      32.971 -36.342 -27.835  0.00  0.00    -0.049 C 
ATOM      9  C   UNL A   1      32.386 -37.732 -27.583  0.00  0.00    -0.049 C 
ATOM     10  C   UNL A   1      33.462 -38.830 -27.554  0.00  0.00    -0.029 C 
ATOM     11  C   UNL A   1      32.948 -40.237 -26.990  0.00  0.00    -0.025 C 
ATOM     12  C   UNL A   1      32.907 -40.022 -25.432  0.00  0.00    -0.059 C 
ATOM     13  C   UNL A   1      31.506 -40.582 -27.433  0.00  0.00    -0.045 C 
ATOM     14  C   UNL A   1      30.932 -41.870 -26.836  0.00  0.00    -0.026 C 
ATOM     15  C   UNL A   1      31.967 -42.926 -26.448  0.00  0.00    +0.061 C 
ATOM     16  C   UNL A   1      33.235 -42.900 -27.334  0.00  0.00    -0.006 C 
ATOM     17  C   UNL A   1      32.872 -43.376 -28.765  0.00  0.00    -0.057 C 
ATOM     18  C   UNL A   1      34.240 -43.943 -26.778  0.00  0.00    -0.057 C 
ATOM     19  C   UNL A   1      33.925 -41.454 -27.292  0.00  0.00    -0.028 C 
ATOM     20  C   UNL A   1      34.882 -41.269 -28.492  0.00  0.00    -0.049 C 
ATOM     21  C   UNL A   1      35.417 -39.859 -28.676  0.00  0.00    -0.047 C 
ATOM     22  C   UNL A   1      34.287 -38.818 -28.881  0.00  0.00    -0.023 C 
ATOM     23  C   UNL A   1      33.414 -39.253 -30.091  0.00  0.00    -0.059 C 
ATOM     24  C   UNL A   1      34.900 -37.331 -29.149  0.00  0.00    -0.021 C 
ATOM     25  C   UNL A   1      35.965 -36.973 -28.062  0.00  0.00    -0.059 C 
ATOM     26  C   UNL A   1      35.610 -37.271 -30.526  0.00  0.00    -0.020 C 
ATOM     27  C   UNL A   1      36.227 -35.912 -30.826  0.00  0.00    +0.061 C 
ENDROOT
BRANCH   1  29
ATOM     28  C   UNL A   1      30.659 -34.236 -29.847  0.00  0.00    -0.062 C 
ATOM     29  C   UNL A   1      31.857 -33.527 -29.193  0.00  0.00    -0.044 C 
ATOM     30  C   UNL A   1      31.528 -32.032 -29.100  0.00  0.00    -0.062 C 
ENDBRANCH   1  29
BRANCH  15  31
ATOM     31  O   UNL A   1      31.339 -44.212 -26.426  0.00  0.00    -0.391 OA
ATOM     32  H   UNL A   1      31.543 -44.658 -25.589  0.00  0.00    +0.000 HD
ENDBRANCH  15  31
BRANCH  27  33
ATOM     33  O   UNL A   1      36.804 -35.955 -32.135  0.00  0.00    -0.391 OA
ATOM     34  H   UNL A   1      36.425 -35.247 -32.679  0.00  0.00    +0.000 HD
ENDBRANCH  27  33
TORSDOF 3
ENDMDL
MODEL 17
REMARK VINA RESULT:    -6.627      2.353      7.945
REMARK INTER + INTRA:          -7.792
REMARK INTER:                  -7.344
REMARK INTRA:                  -0.447
REMARK UNBOUND:                -0.390
REMARK  Name = cpd279.pdb
REMARK  11 active torsions:
REMARK  status: ('A' for Active; 'I' for Inactive)
REMARK    1  A    between atoms: C_1  and  C_2
REMARK    2  A    between atoms: C_2  and  C_3
REMARK    3  A    between atoms: C_2  and  C_4
REMARK    4  A    between atoms: C_7  and  C_8
REMARK    5  A    between atoms: C_14  and  C_15
REMARK    6  A    between atoms: C_18  and  O_19
REMARK    7  A    between atoms: C_20  and  C_21
REMARK    8  A    between atoms: C_20  and  C_22
REMARK    9  A    between atoms: C_26  and  C_27
REMARK   10  A    between atoms: C_28  and  C_29
REMARK   11  A    between atoms: C_31  and  O_32
REMARK                            x       y       z     vdW  Elec       q    Type
REMARK                         _______ _______ _______ _____ _____    ______ ____
ROOT
ATOM      1  C   UNL A   1      37.028 -18.389 -35.914  0.00  0.00    -0.035 C 
ATOM      2  C   UNL A   1      37.519 -17.140 -35.175  0.00  0.00    -0.049 C 
ATOM      3  C   UNL A   1      38.357 -17.638 -33.999  0.00  0.00    -0.045 C 
ATOM      4  C   UNL A   1      38.408 -19.183 -34.108  0.00  0.00    -0.003 C 
ATOM      5  C   UNL A   1      37.261 -19.780 -33.244  0.00  0.00    -0.057 C 
ATOM      6  C   UNL A   1      38.159 -19.446 -35.641  0.00  0.00    -0.027 C 
ATOM      7  C   UNL A   1      39.477 -19.317 -36.504  0.00  0.00    -0.031 C 
ATOM      8  C   UNL A   1      39.308 -19.777 -37.965  0.00  0.00    -0.049 C 
ATOM      9  C   UNL A   1      40.552 -19.530 -38.819  0.00  0.00    -0.049 C 
ATOM     10  C   UNL A   1      41.798 -20.242 -38.267  0.00  0.00    -0.029 C 
ATOM     11  C   UNL A   1      43.038 -20.275 -39.279  0.00  0.00    -0.025 C 
ATOM     12  C   UNL A   1      42.655 -21.408 -40.302  0.00  0.00    -0.059 C 
ATOM     13  C   UNL A   1      43.194 -18.969 -40.095  0.00  0.00    -0.045 C 
ATOM     14  C   UNL A   1      44.303 -18.988 -41.150  0.00  0.00    -0.026 C 
ATOM     15  C   UNL A   1      45.463 -19.940 -40.858  0.00  0.00    +0.061 C 
ATOM     16  C   UNL A   1      45.734 -20.135 -39.347  0.00  0.00    -0.006 C 
ATOM     17  C   UNL A   1      46.295 -18.818 -38.751  0.00  0.00    -0.057 C 
ATOM     18  C   UNL A   1      46.858 -21.192 -39.186  0.00  0.00    -0.057 C 
ATOM     19  C   UNL A   1      44.420 -20.671 -38.602  0.00  0.00    -0.028 C 
ATOM     20  C   UNL A   1      44.518 -20.431 -37.078  0.00  0.00    -0.049 C 
ATOM     21  C   UNL A   1      43.239 -20.694 -36.302  0.00  0.00    -0.047 C 
ATOM     22  C   UNL A   1      42.058 -19.814 -36.787  0.00  0.00    -0.023 C 
ATOM     23  C   UNL A   1      42.474 -18.319 -36.698  0.00  0.00    -0.059 C 
ATOM     24  C   UNL A   1      40.725 -20.069 -35.885  0.00  0.00    -0.021 C 
ATOM     25  C   UNL A   1      40.428 -21.600 -35.767  0.00  0.00    -0.059 C 
ATOM     26  C   UNL A   1      40.926 -19.528 -34.446  0.00  0.00    -0.020 C 
ATOM     27  C   UNL A   1      39.722 -19.759 -33.543  0.00  0.00    +0.061 C 
ENDROOT
BRANCH   1  29
ATOM     28  C   UNL A   1      36.989 -16.738 -37.859  0.00  0.00    -0.062 C 
ATOM     29  C   UNL A   1      36.512 -18.104 -37.339  0.00  0.00    -0.044 C 
ATOM     30  C   UNL A   1      34.978 -18.116 -37.378  0.00  0.00    -0.062 C 
ENDBRANCH   1  29
BRANCH  15  31
ATOM     31  O   UNL A   1      46.623 -19.498 -41.570  0.00  0.00    -0.391 OA
ATOM     32  H   UNL A   1      47.421 -19.817 -41.121  0.00  0.00    +0.000 HD
ENDBRANCH  15  31
BRANCH  27  33
ATOM     33  O   UNL A   1      39.995 -19.176 -32.265  0.00  0.00    -0.391 OA
ATOM     34  H   UNL A   1      39.418 -19.578 -31.596  0.00  0.00    +0.000 HD
ENDBRANCH  27  33
TORSDOF 3
ENDMDL
MODEL 18
REMARK VINA RESULT:    -6.400      2.283      4.332
REMARK INTER + INTRA:          -7.539
REMARK INTER:                  -7.094
REMARK INTRA:                  -0.445
REMARK UNBOUND:                -0.390
REMARK  Name = cpd279.pdb
REMARK  11 active torsions:
REMARK  status: ('A' for Active; 'I' for Inactive)
REMARK    1  A    between atoms: C_1  and  C_2
REMARK    2  A    between atoms: C_2  and  C_3
REMARK    3  A    between atoms: C_2  and  C_4
REMARK    4  A    between atoms: C_7  and  C_8
REMARK    5  A    between atoms: C_14  and  C_15
REMARK    6  A    between atoms: C_18  and  O_19
REMARK    7  A    between atoms: C_20  and  C_21
REMARK    8  A    between atoms: C_20  and  C_22
REMARK    9  A    between atoms: C_26  and  C_27
REMARK   10  A    between atoms: C_28  and  C_29
REMARK   11  A    between atoms: C_31  and  O_32
REMARK                            x       y       z     vdW  Elec       q    Type
REMARK                         _______ _______ _______ _____ _____    ______ ____
ROOT
ATOM      1  C   UNL A   1      46.253 -19.133 -37.254  0.00  0.00    -0.035 C 
ATOM      2  C   UNL A   1      46.004 -18.018 -38.278  0.00  0.00    -0.049 C 
ATOM      3  C   UNL A   1      45.103 -18.619 -39.356  0.00  0.00    -0.045 C 
ATOM      4  C   UNL A   1      44.773 -20.065 -38.908  0.00  0.00    -0.003 C 
ATOM      5  C   UNL A   1      45.803 -21.033 -39.557  0.00  0.00    -0.057 C 
ATOM      6  C   UNL A   1      44.953 -20.011 -37.344  0.00  0.00    -0.027 C 
ATOM      7  C   UNL A   1      43.670 -19.462 -36.601  0.00  0.00    -0.031 C 
ATOM      8  C   UNL A   1      43.737 -19.599 -35.067  0.00  0.00    -0.049 C 
ATOM      9  C   UNL A   1      42.549 -18.953 -34.355  0.00  0.00    -0.049 C 
ATOM     10  C   UNL A   1      41.201 -19.544 -34.799  0.00  0.00    -0.029 C 
ATOM     11  C   UNL A   1      39.965 -19.130 -33.871  0.00  0.00    -0.025 C 
ATOM     12  C   UNL A   1      40.125 -20.049 -32.603  0.00  0.00    -0.059 C 
ATOM     13  C   UNL A   1      40.038 -17.666 -33.375  0.00  0.00    -0.045 C 
ATOM     14  C   UNL A   1      38.932 -17.251 -32.401  0.00  0.00    -0.026 C 
ATOM     15  C   UNL A   1      37.622 -18.029 -32.533  0.00  0.00    +0.061 C 
ATOM     16  C   UNL A   1      37.338 -18.514 -33.975  0.00  0.00    -0.006 C 
ATOM     17  C   UNL A   1      37.030 -17.290 -34.878  0.00  0.00    -0.057 C 
ATOM     18  C   UNL A   1      36.043 -19.368 -33.956  0.00  0.00    -0.057 C 
ATOM     19  C   UNL A   1      38.541 -19.425 -34.513  0.00  0.00    -0.028 C 
ATOM     20  C   UNL A   1      38.506 -19.525 -36.055  0.00  0.00    -0.049 C 
ATOM     21  C   UNL A   1      39.725 -20.176 -36.686  0.00  0.00    -0.047 C 
ATOM     22  C   UNL A   1      41.039 -19.427 -36.349  0.00  0.00    -0.023 C 
ATOM     23  C   UNL A   1      40.901 -17.942 -36.789  0.00  0.00    -0.059 C 
ATOM     24  C   UNL A   1      42.314 -20.108 -37.101  0.00  0.00    -0.021 C 
ATOM     25  C   UNL A   1      42.332 -21.653 -36.860  0.00  0.00    -0.059 C 
ATOM     26  C   UNL A   1      42.231 -19.883 -38.633  0.00  0.00    -0.020 C 
ATOM     27  C   UNL A   1      43.383 -20.519 -39.398  0.00  0.00    +0.061 C 
ENDROOT
BRANCH   1  29
ATOM     28  C   UNL A   1      46.622 -17.104 -35.752  0.00  0.00    -0.062 C 
ATOM     29  C   UNL A   1      46.797 -18.624 -35.904  0.00  0.00    -0.044 C 
ATOM     30  C   UNL A   1      48.290 -18.946 -35.758  0.00  0.00    -0.062 C 
ENDBRANCH   1  29
BRANCH  15  31
ATOM     31  O   UNL A   1      36.554 -17.242 -31.998  0.00  0.00    -0.391 OA
ATOM     32  H   UNL A   1      35.720 -17.733 -32.075  0.00  0.00    +0.000 HD
ENDBRANCH  15  31
BRANCH  27  33
ATOM     33  O   UNL A   1      43.234 -20.204 -40.786  0.00  0.00    -0.391 OA
ATOM     34  H   UNL A   1      43.064 -19.254 -40.886  0.00  0.00    +0.000 HD
ENDBRANCH  27  33
TORSDOF 3
ENDMDL
MODEL 19
REMARK VINA RESULT:    -6.349     16.912     20.563
REMARK INTER + INTRA:          -7.482
REMARK INTER:                  -7.077
REMARK INTRA:                  -0.404
REMARK UNBOUND:                -0.390
REMARK  Name = cpd279.pdb
REMARK  11 active torsions:
REMARK  status: ('A' for Active; 'I' for Inactive)
REMARK    1  A    between atoms: C_1  and  C_2
REMARK    2  A    between atoms: C_2  and  C_3
REMARK    3  A    between atoms: C_2  and  C_4
REMARK    4  A    between atoms: C_7  and  C_8
REMARK    5  A    between atoms: C_14  and  C_15
REMARK    6  A    between atoms: C_18  and  O_19
REMARK    7  A    between atoms: C_20  and  C_21
REMARK    8  A    between atoms: C_20  and  C_22
REMARK    9  A    between atoms: C_26  and  C_27
REMARK   10  A    between atoms: C_28  and  C_29
REMARK   11  A    between atoms: C_31  and  O_32
REMARK                            x       y       z     vdW  Elec       q    Type
REMARK                         _______ _______ _______ _____ _____    ______ ____
ROOT
ATOM      1  C   UNL A   1      27.676 -29.849 -29.150  0.00  0.00    -0.035 C 
ATOM      2  C   UNL A   1      27.916 -29.783 -27.637  0.00  0.00    -0.049 C 
ATOM      3  C   UNL A   1      27.466 -31.129 -27.071  0.00  0.00    -0.045 C 
ATOM      4  C   UNL A   1      27.036 -32.000 -28.278  0.00  0.00    -0.003 C 
ATOM      5  C   UNL A   1      25.503 -31.839 -28.486  0.00  0.00    -0.057 C 
ATOM      6  C   UNL A   1      27.840 -31.377 -29.481  0.00  0.00    -0.027 C 
ATOM      7  C   UNL A   1      29.318 -31.929 -29.578  0.00  0.00    -0.031 C 
ATOM      8  C   UNL A   1      30.055 -31.502 -30.863  0.00  0.00    -0.049 C 
ATOM      9  C   UNL A   1      31.521 -31.938 -30.885  0.00  0.00    -0.049 C 
ATOM     10  C   UNL A   1      31.687 -33.461 -30.759  0.00  0.00    -0.029 C 
ATOM     11  C   UNL A   1      33.161 -33.990 -31.089  0.00  0.00    -0.025 C 
ATOM     12  C   UNL A   1      33.226 -33.959 -32.661  0.00  0.00    -0.059 C 
ATOM     13  C   UNL A   1      34.276 -33.048 -30.576  0.00  0.00    -0.045 C 
ATOM     14  C   UNL A   1      35.701 -33.458 -30.955  0.00  0.00    -0.026 C 
ATOM     15  C   UNL A   1      35.908 -34.955 -31.190  0.00  0.00    +0.061 C 
ATOM     16  C   UNL A   1      34.973 -35.846 -30.337  0.00  0.00    -0.006 C 
ATOM     17  C   UNL A   1      35.380 -35.737 -28.844  0.00  0.00    -0.057 C 
ATOM     18  C   UNL A   1      35.210 -37.325 -30.739  0.00  0.00    -0.057 C 
ATOM     19  C   UNL A   1      33.437 -35.482 -30.615  0.00  0.00    -0.028 C 
ATOM     20  C   UNL A   1      32.535 -36.005 -29.474  0.00  0.00    -0.049 C 
ATOM     21  C   UNL A   1      31.095 -35.524 -29.520  0.00  0.00    -0.047 C 
ATOM     22  C   UNL A   1      30.984 -33.979 -29.463  0.00  0.00    -0.023 C 
ATOM     23  C   UNL A   1      31.709 -33.467 -28.186  0.00  0.00    -0.059 C 
ATOM     24  C   UNL A   1      29.425 -33.503 -29.440  0.00  0.00    -0.021 C 
ATOM     25  C   UNL A   1      28.621 -34.200 -30.585  0.00  0.00    -0.059 C 
ATOM     26  C   UNL A   1      28.751 -33.897 -28.100  0.00  0.00    -0.020 C 
ATOM     27  C   UNL A   1      27.283 -33.501 -28.025  0.00  0.00    +0.061 C 
ENDROOT
BRANCH   1  29
ATOM     28  C   UNL A   1      28.412 -27.407 -29.217  0.00  0.00    -0.062 C 
ATOM     29  C   UNL A   1      28.426 -28.762 -29.944  0.00  0.00    -0.044 C 
ATOM     30  C   UNL A   1      27.796 -28.562 -31.329  0.00  0.00    -0.062 C 
ENDBRANCH   1  29
BRANCH  15  31
ATOM     31  O   UNL A   1      37.291 -35.272 -31.001  0.00  0.00    -0.391 OA
ATOM     32  H   UNL A   1      37.522 -35.167 -30.065  0.00  0.00    +0.000 HD
ENDBRANCH  15  31
BRANCH  27  33
ATOM     33  O   UNL A   1      26.782 -33.862 -26.734  0.00  0.00    -0.391 OA
ATOM     34  H   UNL A   1      25.828 -34.030 -26.793  0.00  0.00    +0.000 HD
ENDBRANCH  27  33
TORSDOF 3
ENDMDL
MODEL 20
REMARK VINA RESULT:    -6.213      1.966      4.374
REMARK INTER + INTRA:          -7.330
REMARK INTER:                  -6.882
REMARK INTRA:                  -0.448
REMARK UNBOUND:                -0.390
REMARK  Name = cpd279.pdb
REMARK  11 active torsions:
REMARK  status: ('A' for Active; 'I' for Inactive)
REMARK    1  A    between atoms: C_1  and  C_2
REMARK    2  A    between atoms: C_2  and  C_3
REMARK    3  A    between atoms: C_2  and  C_4
REMARK    4  A    between atoms: C_7  and  C_8
REMARK    5  A    between atoms: C_14  and  C_15
REMARK    6  A    between atoms: C_18  and  O_19
REMARK    7  A    between atoms: C_20  and  C_21
REMARK    8  A    between atoms: C_20  and  C_22
REMARK    9  A    between atoms: C_26  and  C_27
REMARK   10  A    between atoms: C_28  and  C_29
REMARK   11  A    between atoms: C_31  and  O_32
REMARK                            x       y       z     vdW  Elec       q    Type
REMARK                         _______ _______ _______ _____ _____    ______ ____
ROOT
ATOM      1  C   UNL A   1      45.967 -15.490 -38.751  0.00  0.00    -0.035 C 
ATOM      2  C   UNL A   1      44.975 -15.190 -39.880  0.00  0.00    -0.049 C 
ATOM      3  C   UNL A   1      44.923 -16.443 -40.751  0.00  0.00    -0.045 C 
ATOM      4  C   UNL A   1      45.836 -17.497 -40.074  0.00  0.00    -0.003 C 
ATOM      5  C   UNL A   1      47.255 -17.401 -40.702  0.00  0.00    -0.057 C 
ATOM      6  C   UNL A   1      45.852 -17.047 -38.565  0.00  0.00    -0.027 C 
ATOM      7  C   UNL A   1      44.600 -17.576 -37.757  0.00  0.00    -0.031 C 
ATOM      8  C   UNL A   1      44.697 -17.334 -36.238  0.00  0.00    -0.049 C 
ATOM      9  C   UNL A   1      43.428 -17.737 -35.485  0.00  0.00    -0.049 C 
ATOM     10  C   UNL A   1      43.071 -19.220 -35.681  0.00  0.00    -0.029 C 
ATOM     11  C   UNL A   1      41.948 -19.762 -34.678  0.00  0.00    -0.025 C 
ATOM     12  C   UNL A   1      42.724 -19.969 -33.325  0.00  0.00    -0.059 C 
ATOM     13  C   UNL A   1      40.829 -18.729 -34.399  0.00  0.00    -0.045 C 
ATOM     14  C   UNL A   1      39.784 -19.162 -33.367  0.00  0.00    -0.026 C 
ATOM     15  C   UNL A   1      39.586 -20.673 -33.236  0.00  0.00    +0.061 C 
ATOM     16  C   UNL A   1      39.838 -21.443 -34.554  0.00  0.00    -0.006 C 
ATOM     17  C   UNL A   1      38.719 -21.100 -35.572  0.00  0.00    -0.057 C 
ATOM     18  C   UNL A   1      39.703 -22.961 -34.265  0.00  0.00    -0.057 C 
ATOM     19  C   UNL A   1      41.317 -21.158 -35.101  0.00  0.00    -0.028 C 
ATOM     20  C   UNL A   1      41.426 -21.521 -36.600  0.00  0.00    -0.049 C 
ATOM     21  C   UNL A   1      42.714 -21.082 -37.276  0.00  0.00    -0.047 C 
ATOM     22  C   UNL A   1      42.931 -19.549 -37.202  0.00  0.00    -0.023 C 
ATOM     23  C   UNL A   1      41.697 -18.835 -37.822  0.00  0.00    -0.059 C 
ATOM     24  C   UNL A   1      44.282 -19.108 -38.000  0.00  0.00    -0.021 C 
ATOM     25  C   UNL A   1      45.495 -19.988 -37.554  0.00  0.00    -0.059 C 
ATOM     26  C   UNL A   1      44.106 -19.308 -39.528  0.00  0.00    -0.020 C 
ATOM     27  C   UNL A   1      45.346 -18.936 -40.330  0.00  0.00    +0.061 C 
ENDROOT
BRANCH   1  29
ATOM     28  C   UNL A   1      44.514 -13.778 -37.541  0.00  0.00    -0.062 C 
ATOM     29  C   UNL A   1      45.860 -14.520 -37.557  0.00  0.00    -0.044 C 
ATOM     30  C   UNL A   1      46.979 -13.472 -37.601  0.00  0.00    -0.062 C 
ENDBRANCH   1  29
BRANCH  15  31
ATOM     31  O   UNL A   1      38.288 -20.928 -32.691  0.00  0.00    -0.391 OA
ATOM     32  H   UNL A   1      38.145 -20.364 -31.915  0.00  0.00    +0.000 HD
ENDBRANCH  15  31
BRANCH  27  33
ATOM     33  O   UNL A   1      45.054 -19.107 -41.720  0.00  0.00    -0.391 OA
ATOM     34  H   UNL A   1      44.941 -18.238 -42.137  0.00  0.00    +0.000 HD
ENDBRANCH  27  33
TORSDOF 3
ENDMDL
