@<TRIPOS>MOLECULE
*****
 32 36 0 0 0
SMALL
GASTEIGER

@<TRIPOS>ATOM
      1 C          -4.0446   -1.8465    0.0000 C.3     1  UNL1        0.0000
      2 C          -3.1298   -2.0913    0.0000 C.3     1  UNL1        0.0000
      3 C          -2.8845   -3.0060    0.0000 C.3     1  UNL1        0.0000
      4 C          -2.4604   -1.4215    0.0000 C.3     1  UNL1        0.0001
      5 C          -2.4607   -0.4745    0.0000 C.3     1  UNL1        0.0001
      6 C          -1.6413   -0.0005    0.0000 C.3     1  UNL1        0.0024
      7 C          -0.8205   -0.4740    0.0000 C.3     1  UNL1        0.0282
      8 C          -0.8208    0.4990    0.0000 C.3     1  UNL1        0.0025
      9 C          -0.8202   -1.4210    0.0000 C.3     1  UNL1        0.0024
     10 C           0.0005   -1.8946    0.0000 C.3     1  UNL1        0.0002
     11 C           0.0008   -2.8421    0.0000 C.3     1  UNL1        0.0000
     12 C           0.8216   -3.3157    0.0000 C.3     1  UNL1        0.0000
     13 C           1.6421   -2.8417    0.0000 C.3     1  UNL1        0.0000
     14 C           2.4623   -3.3152    0.0000 C.3     1  UNL1        0.0002
     15 C           1.6200   -3.8022    0.0000 C.3     1  UNL1        0.0000
     16 C           2.4629   -4.2623    0.0000 C.3     1  UNL1        0.0026
     17 C           3.2834   -4.7354    0.0000 C.3     1  UNL1        0.0329
     18 C           4.1033   -4.2614    0.0000 C.3     1  UNL1        0.1519
     19 O           4.9540   -4.7519    0.0000 O.3     1  UNL1       -0.2232
     20 C           4.1028   -3.3143    0.0000 C.3     1  UNL1        0.0282
     21 C           5.0848   -3.3137    0.0000 C.3     1  UNL1        0.0025
     22 C           4.5933   -2.4636    0.0000 C.3     1  UNL1        0.0025
     23 C           3.2823   -2.8412    0.0000 C.3     1  UNL1        0.0024
     24 C           3.2820   -1.8936    0.0000 C.3     1  UNL1        0.0001
     25 C           2.4618   -1.4201    0.0000 C.3     1  UNL1        0.0000
     26 C           1.6419   -1.8941    0.0000 C.3     1  UNL1        0.0001
     27 C           1.6413    0.0518    0.0000 C.3     1  UNL1        0.0000
     28 C           0.8211   -1.4205    0.0000 C.3     1  UNL1        0.0024
     29 C           1.6635   -0.9338    0.0000 C.3     1  UNL1        0.0001
     30 C           0.8208   -0.4736    0.0000 C.3     1  UNL1        0.0329
     31 C           0.0000   -0.0000    0.0000 C.3     1  UNL1        0.1519
     32 O          -0.0003    0.9730    0.0000 O.3     1  UNL1       -0.2232
@<TRIPOS>BOND
     1     1     2    1
     2     2     3    1
     3     2     4    1
     4     4     5    1
     5     5     6    1
     6     6     7    1
     7     7     8    1
     8     7     9    1
     9     4     9    1
    10     9    10    1
    11    10    11    1
    12    11    12    1
    13    12    13    1
    14    13    14    1
    15    14    15    1
    16    14    16    1
    17    16    17    1
    18    17    18    1
    19    18    19    1
    20    18    20    1
    21    20    21    1
    22    20    22    1
    23    20    23    1
    24    14    23    1
    25    23    24    1
    26    24    25    1
    27    25    26    1
    28    13    26    1
    29    26    27    1
    30    26    28    1
    31    10    28    1
    32    28    29    1
    33    28    30    1
    34    30    31    1
    35     7    31    1
    36    31    32    1
