REMARK  Name = cpd279.pdb
REMARK  11 active torsions:
REMARK  status: ('A' for Active; 'I' for Inactive)
REMARK    1  A    between atoms: C_1  and  C_2
REMARK    2  A    between atoms: C_2  and  C_3
REMARK    3  A    between atoms: C_2  and  C_4
REMARK    4  A    between atoms: C_7  and  C_8
REMARK    5  A    between atoms: C_14  and  C_15
REMARK    6  A    between atoms: C_18  and  O_19
REMARK    7  A    between atoms: C_20  and  C_21
REMARK    8  A    between atoms: C_20  and  C_22
REMARK    9  A    between atoms: C_26  and  C_27
REMARK   10  A    between atoms: C_28  and  C_29
REMARK   11  A    between atoms: C_31  and  O_32
REMARK                            x       y       z     vdW  Elec       q    Type
REMARK                         _______ _______ _______ _____ _____    ______ ____
ROOT
ATOM      1  C   UNL A   1      -3.379  -0.927  -0.279  0.00  0.00    -0.035 C 
ATOM      2  C   UNL A   1      -3.204  -0.247  -1.642  0.00  0.00    -0.049 C 
ATOM      3  C   UNL A   1      -2.354   0.998  -1.395  0.00  0.00    -0.045 C 
ATOM      4  C   UNL A   1      -1.976   0.991   0.108  0.00  0.00    -0.003 C 
ATOM      5  C   UNL A   1      -3.024   1.836   0.887  0.00  0.00    -0.057 C 
ATOM      6  C   UNL A   1      -2.071  -0.532   0.499  0.00  0.00    -0.027 C 
ATOM      7  C   UNL A   1      -0.759  -1.337   0.140  0.00  0.00    -0.031 C 
ATOM      8  C   UNL A   1      -0.740  -2.772   0.702  0.00  0.00    -0.049 C 
ATOM      9  C   UNL A   1       0.475  -3.579   0.244  0.00  0.00    -0.049 C 
ATOM     10  C   UNL A   1       1.806  -2.923   0.646  0.00  0.00    -0.029 C 
ATOM     11  C   UNL A   1       3.084  -3.870   0.470  0.00  0.00    -0.025 C 
ATOM     12  C   UNL A   1       3.008  -4.835   1.711  0.00  0.00    -0.059 C 
ATOM     13  C   UNL A   1       3.014  -4.760  -0.794  0.00  0.00    -0.045 C 
ATOM     14  C   UNL A   1       4.165  -5.757  -0.954  0.00  0.00    -0.026 C 
ATOM     15  C   UNL A   1       5.478  -5.349  -0.285  0.00  0.00    +0.061 C 
ATOM     16  C   UNL A   1       5.691  -3.817  -0.232  0.00  0.00    -0.006 C 
ATOM     17  C   UNL A   1       5.929  -3.281  -1.668  0.00  0.00    -0.057 C 
ATOM     18  C   UNL A   1       6.999  -3.534   0.553  0.00  0.00    -0.057 C 
ATOM     19  C   UNL A   1       4.475  -3.103   0.529  0.00  0.00    -0.028 C 
ATOM     20  C   UNL A   1       4.428  -1.595   0.193  0.00  0.00    -0.049 C 
ATOM     21  C   UNL A   1       3.187  -0.866   0.679  0.00  0.00    -0.047 C 
ATOM     22  C   UNL A   1       1.881  -1.463   0.095  0.00  0.00    -0.023 C 
ATOM     23  C   UNL A   1       1.971  -1.451  -1.457  0.00  0.00    -0.059 C 
ATOM     24  C   UNL A   1       0.578  -0.611   0.578  0.00  0.00    -0.021 C 
ATOM     25  C   UNL A   1       0.599  -0.409   2.128  0.00  0.00    -0.059 C 
ATOM     26  C   UNL A   1       0.574   0.798  -0.069  0.00  0.00    -0.020 C 
ATOM     27  C   UNL A   1      -0.608   1.655   0.363  0.00  0.00    +0.061 C 
ENDROOT
BRANCH   1  29
ATOM     28  C   UNL A   1      -5.115  -2.528  -1.245  0.00  0.00    -0.062 C 
ATOM     29  C   UNL A   1      -3.856  -2.390  -0.373  0.00  0.00    -0.044 C 
ATOM     30  C   UNL A   1      -4.179  -2.951   1.018  0.00  0.00    -0.062 C 
ENDBRANCH   1  29
BRANCH  15  31
ATOM     31  O   UNL A   1       6.561  -6.032  -0.924  0.00  0.00    -0.391 OA
ATOM     32  H   UNL A   1       6.606  -5.767  -1.856  0.00  0.00    +0.000 HD
ENDBRANCH  15  31
BRANCH  27  33
ATOM     33  O   UNL A   1      -0.540   2.904  -0.332  0.00  0.00    -0.391 OA
ATOM     34  H   UNL A   1      -0.608   2.747  -1.287  0.00  0.00    +0.000 HD
ENDBRANCH  27  33
TORSDOF 3
