REMARK  Name = cpd356.pdb
REMARK  4 active torsions:
REMARK  status: ('A' for Active; 'I' for Inactive)
REMARK    1  A    between atoms: C_5  and  C_6
REMARK    2  A    between atoms: C_6  and  N_7
REMARK    3  A    between atoms: C_10  and  C_11
REMARK    4  A    between atoms: C_11  and  N_12
REMARK                            x       y       z     vdW  Elec       q    Type
REMARK                         _______ _______ _______ _____ _____    ______ ____
ROOT
ATOM      1  N   UNL A   1      -4.413   3.764  -0.439  0.00  0.00    -0.349 N 
ATOM      2  C   UNL A   1      -4.065   4.018   0.842  0.00  0.00    +0.005 A 
ATOM      3  C   UNL A   1      -3.095   3.250   1.482  0.00  0.00    -0.041 A 
ATOM      4  C   UNL A   1      -2.473   2.199   0.803  0.00  0.00    -0.025 A 
ATOM      5  C   UNL A   1      -2.829   1.986  -0.533  0.00  0.00    -0.041 A 
ATOM      6  C   UNL A   1      -3.810   2.769  -1.130  0.00  0.00    +0.005 A 
ENDROOT
BRANCH   1   7
ATOM      7  C   UNL A   1      -5.464   4.579  -1.097  0.00  0.00    +0.048 C 
BRANCH   7  12
ATOM      8 CL   UNL A   1     -10.755   1.691  -0.859  0.00  0.00    -0.084 Cl
ATOM      9  C   UNL A   1      -9.252   2.521  -0.929  0.00  0.00    +0.041 A 
ATOM     10  C   UNL A   1      -8.789   3.212   0.187  0.00  0.00    -0.043 A 
ATOM     11  C   UNL A   1      -7.566   3.888   0.132  0.00  0.00    -0.055 A 
ATOM     12  C   UNL A   1      -6.796   3.875  -1.043  0.00  0.00    -0.028 A 
ATOM     13  C   UNL A   1      -7.279   3.175  -2.161  0.00  0.00    -0.055 A 
ATOM     14  C   UNL A   1      -8.503   2.502  -2.103  0.00  0.00    -0.043 A 
ENDBRANCH   7  12
ENDBRANCH   1   7
BRANCH   4  15
ATOM     15  C   UNL A   1      -1.421   1.365   1.512  0.00  0.00    +0.049 C 
BRANCH  15  16
ATOM     16  N   UNL A   1      -1.410  -0.027   1.070  0.00  0.00    -0.339 N 
ATOM     17  C   UNL A   1      -0.447  -0.611   0.284  0.00  0.00    +0.023 A 
ATOM     18  C   UNL A   1      -0.803  -1.930   0.079  0.00  0.00    -0.019 A 
ATOM     19  C   UNL A   1      -2.034  -2.157   0.751  0.00  0.00    +0.003 A 
ATOM     20  C   UNL A   1      -2.876  -3.278   0.892  0.00  0.00    -0.052 A 
ATOM     21  C   UNL A   1      -4.044  -3.174   1.653  0.00  0.00    -0.061 A 
ATOM     22  C   UNL A   1      -4.379  -1.976   2.275  0.00  0.00    -0.060 A 
ATOM     23  C   UNL A   1      -3.561  -0.849   2.151  0.00  0.00    -0.038 A 
ATOM     24  C   UNL A   1      -2.391  -0.958   1.379  0.00  0.00    +0.050 A 
ATOM     25  C   UNL A   1       0.022  -2.875  -0.731  0.00  0.00    -0.025 C 
ATOM     26  C   UNL A   1       1.450  -2.336  -0.927  0.00  0.00    -0.049 C 
ATOM     27  C   UNL A   1       1.452  -0.846  -1.307  0.00  0.00    -0.047 C 
ATOM     28  C   UNL A   1       0.802   0.033  -0.224  0.00  0.00    -0.012 C 
ENDBRANCH  15  16
ENDBRANCH   4  15
TORSDOF 4
