MODEL 1
REMARK VINA RESULT:    -8.170      0.000      0.000
REMARK INTER + INTRA:         -10.920
REMARK INTER:                 -10.080
REMARK INTRA:                  -0.840
REMARK UNBOUND:                -0.840
REMARK  Name = cpd356.pdb
REMARK  4 active torsions:
REMARK  status: ('A' for Active; 'I' for Inactive)
REMARK    1  A    between atoms: C_5  and  C_6
REMARK    2  A    between atoms: C_6  and  N_7
REMARK    3  A    between atoms: C_10  and  C_11
REMARK    4  A    between atoms: C_11  and  N_12
REMARK                            x       y       z     vdW  Elec       q    Type
REMARK                         _______ _______ _______ _____ _____    ______ ____
ROOT
ATOM      1  N   UNL A   1      33.127 -33.857 -29.496  0.00  0.00    -0.349 N 
ATOM      2  C   UNL A   1      34.405 -33.419 -29.526  0.00  0.00    +0.005 A 
ATOM      3  C   UNL A   1      35.359 -34.060 -30.313  0.00  0.00    -0.041 A 
ATOM      4  C   UNL A   1      35.002 -35.172 -31.080  0.00  0.00    -0.025 A 
ATOM      5  C   UNL A   1      33.663 -35.578 -31.055  0.00  0.00    -0.041 A 
ATOM      6  C   UNL A   1      32.746 -34.917 -30.246  0.00  0.00    +0.005 A 
ENDROOT
BRANCH   1   7
ATOM      7  C   UNL A   1      32.130 -33.175 -28.634  0.00  0.00    +0.048 C 
BRANCH   7  12
ATOM      8 CL   UNL A   1      28.749 -29.311 -31.802  0.00  0.00    -0.084 Cl
ATOM      9  C   UNL A   1      29.715 -30.415 -30.907  0.00  0.00    +0.041 A 
ATOM     10  C   UNL A   1      31.044 -30.108 -30.631  0.00  0.00    -0.043 A 
ATOM     11  C   UNL A   1      31.832 -31.005 -29.903  0.00  0.00    -0.055 A 
ATOM     12  C   UNL A   1      31.292 -32.218 -29.443  0.00  0.00    -0.028 A 
ATOM     13  C   UNL A   1      29.950 -32.514 -29.733  0.00  0.00    -0.055 A 
ATOM     14  C   UNL A   1      29.166 -31.615 -30.463  0.00  0.00    -0.043 A 
ENDBRANCH   7  12
ENDBRANCH   1   7
BRANCH   4  15
ATOM     15  C   UNL A   1      36.051 -35.866 -31.930  0.00  0.00    +0.049 C 
BRANCH  15  16
ATOM     16  N   UNL A   1      37.158 -36.400 -31.140  0.00  0.00    -0.339 N 
ATOM     17  C   UNL A   1      37.052 -37.339 -30.144  0.00  0.00    +0.023 A 
ATOM     18  C   UNL A   1      38.316 -37.567 -29.634  0.00  0.00    -0.019 A 
ATOM     19  C   UNL A   1      39.224 -36.728 -30.333  0.00  0.00    +0.003 A 
ATOM     20  C   UNL A   1      40.615 -36.514 -30.253  0.00  0.00    -0.052 A 
ATOM     21  C   UNL A   1      41.225 -35.602 -31.118  0.00  0.00    -0.061 A 
ATOM     22  C   UNL A   1      40.473 -34.908 -32.060  0.00  0.00    -0.060 A 
ATOM     23  C   UNL A   1      39.092 -35.101 -32.161  0.00  0.00    -0.038 A 
ATOM     24  C   UNL A   1      38.483 -36.015 -31.283  0.00  0.00    +0.050 A 
ATOM     25  C   UNL A   1      38.582 -38.540 -28.533  0.00  0.00    -0.025 C 
ATOM     26  C   UNL A   1      37.401 -39.511 -28.355  0.00  0.00    -0.049 C 
ATOM     27  C   UNL A   1      36.049 -38.779 -28.379  0.00  0.00    -0.047 C 
ATOM     28  C   UNL A   1      35.808 -38.044 -29.710  0.00  0.00    -0.012 C 
ENDBRANCH  15  16
ENDBRANCH   4  15
TORSDOF 4
ENDMDL
MODEL 2
REMARK VINA RESULT:    -8.072      4.337      7.168
REMARK INTER + INTRA:         -10.799
REMARK INTER:                  -9.660
REMARK INTRA:                  -1.139
REMARK UNBOUND:                -0.840
REMARK  Name = cpd356.pdb
REMARK  4 active torsions:
REMARK  status: ('A' for Active; 'I' for Inactive)
REMARK    1  A    between atoms: C_5  and  C_6
REMARK    2  A    between atoms: C_6  and  N_7
REMARK    3  A    between atoms: C_10  and  C_11
REMARK    4  A    between atoms: C_11  and  N_12
REMARK                            x       y       z     vdW  Elec       q    Type
REMARK                         _______ _______ _______ _____ _____    ______ ____
ROOT
ATOM      1  N   UNL A   1      34.120 -40.890 -30.745  0.00  0.00    -0.349 N 
ATOM      2  C   UNL A   1      33.679 -40.262 -29.633  0.00  0.00    +0.005 A 
ATOM      3  C   UNL A   1      34.456 -39.288 -29.009  0.00  0.00    -0.041 A 
ATOM      4  C   UNL A   1      35.710 -38.955 -29.527  0.00  0.00    -0.025 A 
ATOM      5  C   UNL A   1      36.122 -39.598 -30.699  0.00  0.00    -0.041 A 
ATOM      6  C   UNL A   1      35.320 -40.571 -31.284  0.00  0.00    +0.005 A 
ENDROOT
BRANCH   1   7
ATOM      7  C   UNL A   1      33.288 -41.940 -31.383  0.00  0.00    +0.048 C 
BRANCH   7  12
ATOM      8 CL   UNL A   1      32.839 -40.893 -37.307  0.00  0.00    -0.084 Cl
ATOM      9  C   UNL A   1      32.960 -41.197 -35.620  0.00  0.00    +0.041 A 
ATOM     10  C   UNL A   1      33.635 -42.325 -35.165  0.00  0.00    -0.043 A 
ATOM     11  C   UNL A   1      33.735 -42.574 -33.792  0.00  0.00    -0.055 A 
ATOM     12  C   UNL A   1      33.159 -41.690 -32.864  0.00  0.00    -0.028 A 
ATOM     13  C   UNL A   1      32.478 -40.557 -33.340  0.00  0.00    -0.055 A 
ATOM     14  C   UNL A   1      32.379 -40.313 -34.713  0.00  0.00    -0.043 A 
ENDBRANCH   7  12
ENDBRANCH   1   7
BRANCH   4  15
ATOM     15  C   UNL A   1      36.551 -37.897 -28.836  0.00  0.00    +0.049 C 
BRANCH  15  16
ATOM     16  N   UNL A   1      36.702 -36.683 -29.634  0.00  0.00    -0.339 N 
ATOM     17  C   UNL A   1      35.787 -35.663 -29.723  0.00  0.00    +0.023 A 
ATOM     18  C   UNL A   1      36.291 -34.708 -30.584  0.00  0.00    -0.019 A 
ATOM     19  C   UNL A   1      37.552 -35.167 -31.050  0.00  0.00    +0.003 A 
ATOM     20  C   UNL A   1      38.515 -34.642 -31.936  0.00  0.00    -0.052 A 
ATOM     21  C   UNL A   1      39.692 -35.356 -32.179  0.00  0.00    -0.061 A 
ATOM     22  C   UNL A   1      39.923 -36.575 -31.552  0.00  0.00    -0.060 A 
ATOM     23  C   UNL A   1      38.985 -37.117 -30.668  0.00  0.00    -0.038 A 
ATOM     24  C   UNL A   1      37.800 -36.398 -30.433  0.00  0.00    +0.050 A 
ATOM     25  C   UNL A   1      35.561 -33.448 -30.914  0.00  0.00    -0.025 C 
ATOM     26  C   UNL A   1      34.444 -33.171 -29.892  0.00  0.00    -0.049 C 
ATOM     27  C   UNL A   1      33.627 -34.435 -29.581  0.00  0.00    -0.047 C 
ATOM     28  C   UNL A   1      34.493 -35.558 -28.982  0.00  0.00    -0.012 C 
ENDBRANCH  15  16
ENDBRANCH   4  15
TORSDOF 4
ENDMDL
MODEL 3
REMARK VINA RESULT:    -7.849      3.423      8.110
REMARK INTER + INTRA:         -10.525
REMARK INTER:                  -9.593
REMARK INTRA:                  -0.932
REMARK UNBOUND:                -0.840
REMARK  Name = cpd356.pdb
REMARK  4 active torsions:
REMARK  status: ('A' for Active; 'I' for Inactive)
REMARK    1  A    between atoms: C_5  and  C_6
REMARK    2  A    between atoms: C_6  and  N_7
REMARK    3  A    between atoms: C_10  and  C_11
REMARK    4  A    between atoms: C_11  and  N_12
REMARK                            x       y       z     vdW  Elec       q    Type
REMARK                         _______ _______ _______ _____ _____    ______ ____
ROOT
ATOM      1  N   UNL A   1      36.641 -38.285 -28.597  0.00  0.00    -0.349 N 
ATOM      2  C   UNL A   1      36.335 -37.350 -27.671  0.00  0.00    +0.005 A 
ATOM      3  C   UNL A   1      35.065 -36.778 -27.629  0.00  0.00    -0.041 A 
ATOM      4  C   UNL A   1      34.092 -37.165 -28.554  0.00  0.00    -0.025 A 
ATOM      5  C   UNL A   1      34.430 -38.162 -29.476  0.00  0.00    -0.041 A 
ATOM      6  C   UNL A   1      35.712 -38.698 -29.490  0.00  0.00    +0.005 A 
ENDROOT
BRANCH   1   7
ATOM      7  C   UNL A   1      38.006 -38.866 -28.640  0.00  0.00    +0.048 C 
BRANCH   7  12
ATOM      8 CL   UNL A   1      41.704 -35.305 -31.808  0.00  0.00    -0.084 Cl
ATOM      9  C   UNL A   1      40.652 -36.326 -30.911  0.00  0.00    +0.041 A 
ATOM     10  C   UNL A   1      41.176 -37.207 -29.970  0.00  0.00    -0.043 A 
ATOM     11  C   UNL A   1      40.322 -38.039 -29.240  0.00  0.00    -0.055 A 
ATOM     12  C   UNL A   1      38.933 -37.992 -29.445  0.00  0.00    -0.028 A 
ATOM     13  C   UNL A   1      38.420 -37.098 -30.401  0.00  0.00    -0.055 A 
ATOM     14  C   UNL A   1      39.277 -36.270 -31.131  0.00  0.00    -0.043 A 
ENDBRANCH   7  12
ENDBRANCH   1   7
BRANCH   4  15
ATOM     15  C   UNL A   1      32.713 -36.533 -28.503  0.00  0.00    +0.049 C 
BRANCH  15  16
ATOM     16  N   UNL A   1      32.420 -35.718 -29.679  0.00  0.00    -0.339 N 
ATOM     17  C   UNL A   1      31.561 -36.057 -30.696  0.00  0.00    +0.023 A 
ATOM     18  C   UNL A   1      31.569 -35.033 -31.623  0.00  0.00    -0.019 A 
ATOM     19  C   UNL A   1      32.475 -34.039 -31.165  0.00  0.00    +0.003 A 
ATOM     20  C   UNL A   1      32.902 -32.798 -31.677  0.00  0.00    -0.052 A 
ATOM     21  C   UNL A   1      33.820 -32.031 -30.955  0.00  0.00    -0.061 A 
ATOM     22  C   UNL A   1      34.313 -32.481 -29.734  0.00  0.00    -0.060 A 
ATOM     23  C   UNL A   1      33.906 -33.709 -29.204  0.00  0.00    -0.038 A 
ATOM     24  C   UNL A   1      32.987 -34.478 -29.938  0.00  0.00    +0.050 A 
ATOM     25  C   UNL A   1      30.742 -35.060 -32.866  0.00  0.00    -0.025 C 
ATOM     26  C   UNL A   1      29.622 -36.111 -32.765  0.00  0.00    -0.049 C 
ATOM     27  C   UNL A   1      30.138 -37.443 -32.195  0.00  0.00    -0.047 C 
ATOM     28  C   UNL A   1      30.716 -37.286 -30.777  0.00  0.00    -0.012 C 
ENDBRANCH  15  16
ENDBRANCH   4  15
TORSDOF 4
ENDMDL
MODEL 4
REMARK VINA RESULT:    -7.795     16.763     19.246
REMARK INTER + INTRA:         -10.457
REMARK INTER:                  -9.360
REMARK INTRA:                  -1.097
REMARK UNBOUND:                -0.840
REMARK  Name = cpd356.pdb
REMARK  4 active torsions:
REMARK  status: ('A' for Active; 'I' for Inactive)
REMARK    1  A    between atoms: C_5  and  C_6
REMARK    2  A    between atoms: C_6  and  N_7
REMARK    3  A    between atoms: C_10  and  C_11
REMARK    4  A    between atoms: C_11  and  N_12
REMARK                            x       y       z     vdW  Elec       q    Type
REMARK                         _______ _______ _______ _____ _____    ______ ____
ROOT
ATOM      1  N   UNL A   1      42.724 -19.708 -34.581  0.00  0.00    -0.349 N 
ATOM      2  C   UNL A   1      42.804 -20.039 -35.889  0.00  0.00    +0.005 A 
ATOM      3  C   UNL A   1      44.040 -20.241 -36.498  0.00  0.00    -0.041 A 
ATOM      4  C   UNL A   1      45.217 -20.096 -35.759  0.00  0.00    -0.025 A 
ATOM      5  C   UNL A   1      45.099 -19.789 -34.399  0.00  0.00    -0.041 A 
ATOM      6  C   UNL A   1      43.845 -19.585 -33.834  0.00  0.00    +0.005 A 
ENDROOT
BRANCH   1   7
ATOM      7  C   UNL A   1      41.399 -19.476 -33.955  0.00  0.00    +0.048 C 
BRANCH   7  12
ATOM      8 CL   UNL A   1      38.152 -24.559 -34.058  0.00  0.00    -0.084 Cl
ATOM      9  C   UNL A   1      39.072 -23.108 -34.022  0.00  0.00    +0.041 A 
ATOM     10  C   UNL A   1      40.198 -23.022 -33.209  0.00  0.00    -0.043 A 
ATOM     11  C   UNL A   1      40.949 -21.842 -33.178  0.00  0.00    -0.055 A 
ATOM     12  C   UNL A   1      40.576 -20.739 -33.964  0.00  0.00    -0.028 A 
ATOM     13  C   UNL A   1      39.436 -20.842 -34.777  0.00  0.00    -0.055 A 
ATOM     14  C   UNL A   1      38.687 -22.022 -34.804  0.00  0.00    -0.043 A 
ENDBRANCH   7  12
ENDBRANCH   1   7
BRANCH   4  15
ATOM     15  C   UNL A   1      46.560 -20.312 -36.434  0.00  0.00    +0.049 C 
BRANCH  15  16
ATOM     16  N   UNL A   1      46.673 -19.605 -37.707  0.00  0.00    -0.339 N 
ATOM     17  C   UNL A   1      46.608 -20.180 -38.952  0.00  0.00    +0.023 A 
ATOM     18  C   UNL A   1      46.771 -19.183 -39.894  0.00  0.00    -0.019 A 
ATOM     19  C   UNL A   1      46.958 -17.957 -39.201  0.00  0.00    +0.003 A 
ATOM     20  C   UNL A   1      47.178 -16.628 -39.612  0.00  0.00    -0.052 A 
ATOM     21  C   UNL A   1      47.311 -15.620 -38.652  0.00  0.00    -0.061 A 
ATOM     22  C   UNL A   1      47.222 -15.918 -37.297  0.00  0.00    -0.060 A 
ATOM     23  C   UNL A   1      47.004 -17.229 -36.862  0.00  0.00    -0.038 A 
ATOM     24  C   UNL A   1      46.878 -18.239 -37.832  0.00  0.00    +0.050 A 
ATOM     25  C   UNL A   1      46.750 -19.446 -41.364  0.00  0.00    -0.025 C 
ATOM     26  C   UNL A   1      46.124 -20.817 -41.673  0.00  0.00    -0.049 C 
ATOM     27  C   UNL A   1      46.658 -21.914 -40.737  0.00  0.00    -0.047 C 
ATOM     28  C   UNL A   1      46.350 -21.620 -39.258  0.00  0.00    -0.012 C 
ENDBRANCH  15  16
ENDBRANCH   4  15
TORSDOF 4
ENDMDL
MODEL 5
REMARK VINA RESULT:    -7.728      4.156      7.165
REMARK INTER + INTRA:         -10.375
REMARK INTER:                  -9.457
REMARK INTRA:                  -0.918
REMARK UNBOUND:                -0.840
REMARK  Name = cpd356.pdb
REMARK  4 active torsions:
REMARK  status: ('A' for Active; 'I' for Inactive)
REMARK    1  A    between atoms: C_5  and  C_6
REMARK    2  A    between atoms: C_6  and  N_7
REMARK    3  A    between atoms: C_10  and  C_11
REMARK    4  A    between atoms: C_11  and  N_12
REMARK                            x       y       z     vdW  Elec       q    Type
REMARK                         _______ _______ _______ _____ _____    ______ ____
ROOT
ATOM      1  N   UNL A   1      34.120 -41.089 -29.521  0.00  0.00    -0.349 N 
ATOM      2  C   UNL A   1      33.732 -40.181 -28.597  0.00  0.00    +0.005 A 
ATOM      3  C   UNL A   1      34.629 -39.235 -28.108  0.00  0.00    -0.041 A 
ATOM      4  C   UNL A   1      35.949 -39.219 -28.565  0.00  0.00    -0.025 A 
ATOM      5  C   UNL A   1      36.309 -40.147 -29.548  0.00  0.00    -0.041 A 
ATOM      6  C   UNL A   1      35.385 -41.081 -30.001  0.00  0.00    +0.005 A 
ENDROOT
BRANCH   1   7
ATOM      7  C   UNL A   1      33.156 -42.103 -30.015  0.00  0.00    +0.048 C 
BRANCH   7  12
ATOM      8 CL   UNL A   1      31.841 -41.195 -35.832  0.00  0.00    -0.084 Cl
ATOM      9  C   UNL A   1      32.224 -41.455 -34.177  0.00  0.00    +0.041 A 
ATOM     10  C   UNL A   1      32.655 -40.391 -33.390  0.00  0.00    -0.043 A 
ATOM     11  C   UNL A   1      32.967 -40.600 -32.043  0.00  0.00    -0.055 A 
ATOM     12  C   UNL A   1      32.847 -41.879 -31.473  0.00  0.00    -0.028 A 
ATOM     13  C   UNL A   1      32.413 -42.942 -32.282  0.00  0.00    -0.055 A 
ATOM     14  C   UNL A   1      32.104 -42.730 -33.629  0.00  0.00    -0.043 A 
ENDBRANCH   7  12
ENDBRANCH   1   7
BRANCH   4  15
ATOM     15  C   UNL A   1      36.920 -38.187 -28.021  0.00  0.00    +0.049 C 
BRANCH  15  16
ATOM     16  N   UNL A   1      37.405 -37.269 -29.048  0.00  0.00    -0.339 N 
ATOM     17  C   UNL A   1      38.658 -37.285 -29.611  0.00  0.00    +0.023 A 
ATOM     18  C   UNL A   1      38.728 -36.254 -30.528  0.00  0.00    -0.019 A 
ATOM     19  C   UNL A   1      37.481 -35.574 -30.515  0.00  0.00    +0.003 A 
ATOM     20  C   UNL A   1      36.969 -34.462 -31.211  0.00  0.00    -0.052 A 
ATOM     21  C   UNL A   1      35.657 -34.040 -30.972  0.00  0.00    -0.061 A 
ATOM     22  C   UNL A   1      34.854 -34.712 -30.057  0.00  0.00    -0.060 A 
ATOM     23  C   UNL A   1      35.337 -35.819 -29.353  0.00  0.00    -0.038 A 
ATOM     24  C   UNL A   1      36.659 -36.234 -29.593  0.00  0.00    +0.050 A 
ATOM     25  C   UNL A   1      39.951 -35.974 -31.339  0.00  0.00    -0.025 C 
ATOM     26  C   UNL A   1      40.907 -37.179 -31.335  0.00  0.00    -0.049 C 
ATOM     27  C   UNL A   1      41.078 -37.769 -29.925  0.00  0.00    -0.047 C 
ATOM     28  C   UNL A   1      39.748 -38.269 -29.336  0.00  0.00    -0.012 C 
ENDBRANCH  15  16
ENDBRANCH   4  15
TORSDOF 4
ENDMDL
MODEL 6
REMARK VINA RESULT:    -7.625     15.230     18.346
REMARK INTER + INTRA:         -10.248
REMARK INTER:                  -9.228
REMARK INTRA:                  -1.020
REMARK UNBOUND:                -0.840
REMARK  Name = cpd356.pdb
REMARK  4 active torsions:
REMARK  status: ('A' for Active; 'I' for Inactive)
REMARK    1  A    between atoms: C_5  and  C_6
REMARK    2  A    between atoms: C_6  and  N_7
REMARK    3  A    between atoms: C_10  and  C_11
REMARK    4  A    between atoms: C_11  and  N_12
REMARK                            x       y       z     vdW  Elec       q    Type
REMARK                         _______ _______ _______ _____ _____    ______ ____
ROOT
ATOM      1  N   UNL A   1      43.115 -19.957 -38.144  0.00  0.00    -0.349 N 
ATOM      2  C   UNL A   1      43.729 -19.369 -37.094  0.00  0.00    +0.005 A 
ATOM      3  C   UNL A   1      43.445 -19.765 -35.789  0.00  0.00    -0.041 A 
ATOM      4  C   UNL A   1      42.511 -20.777 -35.552  0.00  0.00    -0.025 A 
ATOM      5  C   UNL A   1      41.920 -21.391 -36.662  0.00  0.00    -0.041 A 
ATOM      6  C   UNL A   1      42.225 -20.957 -37.947  0.00  0.00    +0.005 A 
ENDROOT
BRANCH   1   7
ATOM      7  C   UNL A   1      43.415 -19.506 -39.526  0.00  0.00    +0.048 C 
BRANCH   7  12
ATOM      8 CL   UNL A   1      46.916 -23.482 -42.410  0.00  0.00    -0.084 Cl
ATOM      9  C   UNL A   1      45.914 -22.356 -41.586  0.00  0.00    +0.041 A 
ATOM     10  C   UNL A   1      46.154 -22.066 -40.246  0.00  0.00    -0.043 A 
ATOM     11  C   UNL A   1      45.339 -21.150 -39.573  0.00  0.00    -0.055 A 
ATOM     12  C   UNL A   1      44.277 -20.515 -40.240  0.00  0.00    -0.028 A 
ATOM     13  C   UNL A   1      44.048 -20.822 -41.591  0.00  0.00    -0.055 A 
ATOM     14  C   UNL A   1      44.863 -21.739 -42.260  0.00  0.00    -0.043 A 
ENDBRANCH   7  12
ENDBRANCH   1   7
BRANCH   4  15
ATOM     15  C   UNL A   1      42.204 -21.197 -34.126  0.00  0.00    +0.049 C 
BRANCH  15  16
ATOM     16  N   UNL A   1      40.827 -20.910 -33.735  0.00  0.00    -0.339 N 
ATOM     17  C   UNL A   1      39.779 -21.796 -33.781  0.00  0.00    +0.023 A 
ATOM     18  C   UNL A   1      38.644 -21.142 -33.342  0.00  0.00    -0.019 A 
ATOM     19  C   UNL A   1      39.007 -19.804 -33.031  0.00  0.00    +0.003 A 
ATOM     20  C   UNL A   1      38.294 -18.685 -32.558  0.00  0.00    -0.052 A 
ATOM     21  C   UNL A   1      38.968 -17.480 -32.334  0.00  0.00    -0.061 A 
ATOM     22  C   UNL A   1      40.335 -17.379 -32.569  0.00  0.00    -0.060 A 
ATOM     23  C   UNL A   1      41.066 -18.475 -33.038  0.00  0.00    -0.038 A 
ATOM     24  C   UNL A   1      40.382 -19.682 -33.268  0.00  0.00    +0.050 A 
ATOM     25  C   UNL A   1      37.309 -21.805 -33.254  0.00  0.00    -0.025 C 
ATOM     26  C   UNL A   1      37.448 -23.337 -33.297  0.00  0.00    -0.049 C 
ATOM     27  C   UNL A   1      38.426 -23.793 -34.393  0.00  0.00    -0.047 C 
ATOM     28  C   UNL A   1      39.844 -23.235 -34.178  0.00  0.00    -0.012 C 
ENDBRANCH  15  16
ENDBRANCH   4  15
TORSDOF 4
ENDMDL
MODEL 7
REMARK VINA RESULT:    -7.545     16.831     19.404
REMARK INTER + INTRA:         -10.149
REMARK INTER:                  -9.037
REMARK INTRA:                  -1.111
REMARK UNBOUND:                -0.840
REMARK  Name = cpd356.pdb
REMARK  4 active torsions:
REMARK  status: ('A' for Active; 'I' for Inactive)
REMARK    1  A    between atoms: C_5  and  C_6
REMARK    2  A    between atoms: C_6  and  N_7
REMARK    3  A    between atoms: C_10  and  C_11
REMARK    4  A    between atoms: C_11  and  N_12
REMARK                            x       y       z     vdW  Elec       q    Type
REMARK                         _______ _______ _______ _____ _____    ______ ____
ROOT
ATOM      1  N   UNL A   1      42.804 -19.614 -34.720  0.00  0.00    -0.349 N 
ATOM      2  C   UNL A   1      44.007 -19.489 -34.116  0.00  0.00    +0.005 A 
ATOM      3  C   UNL A   1      45.185 -19.698 -34.828  0.00  0.00    -0.041 A 
ATOM      4  C   UNL A   1      45.135 -20.047 -36.180  0.00  0.00    -0.025 A 
ATOM      5  C   UNL A   1      43.876 -20.132 -36.784  0.00  0.00    -0.041 A 
ATOM      6  C   UNL A   1      42.724 -19.926 -36.034  0.00  0.00    +0.005 A 
ENDROOT
BRANCH   1   7
ATOM      7  C   UNL A   1      41.558 -19.409 -33.940  0.00  0.00    +0.048 C 
BRANCH   7  12
ATOM      8 CL   UNL A   1      38.319 -24.486 -33.586  0.00  0.00    -0.084 Cl
ATOM      9  C   UNL A   1      39.245 -23.043 -33.694  0.00  0.00    +0.041 A 
ATOM     10  C   UNL A   1      38.783 -21.978 -34.461  0.00  0.00    -0.043 A 
ATOM     11  C   UNL A   1      39.535 -20.802 -34.550  0.00  0.00    -0.055 A 
ATOM     12  C   UNL A   1      40.758 -20.685 -33.869  0.00  0.00    -0.028 A 
ATOM     13  C   UNL A   1      41.212 -21.770 -33.101  0.00  0.00    -0.055 A 
ATOM     14  C   UNL A   1      40.458 -22.944 -33.016  0.00  0.00    -0.043 A 
ENDBRANCH   7  12
ENDBRANCH   1   7
BRANCH   4  15
ATOM     15  C   UNL A   1      46.426 -20.277 -36.945  0.00  0.00    +0.049 C 
BRANCH  15  16
ATOM     16  N   UNL A   1      46.431 -19.630 -38.255  0.00  0.00    -0.339 N 
ATOM     17  C   UNL A   1      46.711 -18.307 -38.494  0.00  0.00    +0.023 A 
ATOM     18  C   UNL A   1      46.599 -18.084 -39.853  0.00  0.00    -0.019 A 
ATOM     19  C   UNL A   1      46.224 -19.311 -40.464  0.00  0.00    +0.003 A 
ATOM     20  C   UNL A   1      45.957 -19.696 -41.793  0.00  0.00    -0.052 A 
ATOM     21  C   UNL A   1      45.617 -21.023 -42.073  0.00  0.00    -0.061 A 
ATOM     22  C   UNL A   1      45.543 -21.965 -41.052  0.00  0.00    -0.060 A 
ATOM     23  C   UNL A   1      45.803 -21.608 -39.726  0.00  0.00    -0.038 A 
ATOM     24  C   UNL A   1      46.139 -20.271 -39.450  0.00  0.00    +0.050 A 
ATOM     25  C   UNL A   1      46.841 -16.750 -40.477  0.00  0.00    -0.025 C 
ATOM     26  C   UNL A   1      47.610 -15.822 -39.521  0.00  0.00    -0.049 C 
ATOM     27  C   UNL A   1      47.042 -15.874 -38.093  0.00  0.00    -0.047 C 
ATOM     28  C   UNL A   1      47.121 -17.285 -37.484  0.00  0.00    -0.012 C 
ENDBRANCH  15  16
ENDBRANCH   4  15
TORSDOF 4
ENDMDL
MODEL 8
REMARK VINA RESULT:    -7.495     15.515     18.981
REMARK INTER + INTRA:         -10.088
REMARK INTER:                  -9.146
REMARK INTRA:                  -0.942
REMARK UNBOUND:                -0.840
REMARK  Name = cpd356.pdb
REMARK  4 active torsions:
REMARK  status: ('A' for Active; 'I' for Inactive)
REMARK    1  A    between atoms: C_5  and  C_6
REMARK    2  A    between atoms: C_6  and  N_7
REMARK    3  A    between atoms: C_10  and  C_11
REMARK    4  A    between atoms: C_11  and  N_12
REMARK                            x       y       z     vdW  Elec       q    Type
REMARK                         _______ _______ _______ _____ _____    ______ ____
ROOT
ATOM      1  N   UNL A   1      43.631 -20.561 -39.526  0.00  0.00    -0.349 N 
ATOM      2  C   UNL A   1      42.589 -20.974 -40.281  0.00  0.00    +0.005 A 
ATOM      3  C   UNL A   1      41.432 -21.472 -39.686  0.00  0.00    -0.041 A 
ATOM      4  C   UNL A   1      41.340 -21.557 -38.294  0.00  0.00    -0.025 A 
ATOM      5  C   UNL A   1      42.422 -21.087 -37.541  0.00  0.00    -0.041 A 
ATOM      6  C   UNL A   1      43.561 -20.607 -38.175  0.00  0.00    +0.005 A 
ENDROOT
BRANCH   1   7
ATOM      7  C   UNL A   1      44.863 -20.052 -40.178  0.00  0.00    +0.048 C 
BRANCH   7  12
ATOM      8 CL   UNL A   1      48.106 -24.539 -42.575  0.00  0.00    -0.084 Cl
ATOM      9  C   UNL A   1      47.177 -23.267 -41.888  0.00  0.00    +0.041 A 
ATOM     10  C   UNL A   1      47.463 -22.815 -40.603  0.00  0.00    -0.043 A 
ATOM     11  C   UNL A   1      46.708 -21.780 -40.043  0.00  0.00    -0.055 A 
ATOM     12  C   UNL A   1      45.661 -21.188 -40.768  0.00  0.00    -0.028 A 
ATOM     13  C   UNL A   1      45.383 -21.657 -42.062  0.00  0.00    -0.055 A 
ATOM     14  C   UNL A   1      46.139 -22.694 -42.619  0.00  0.00    -0.043 A 
ENDBRANCH   7  12
ENDBRANCH   1   7
BRANCH   4  15
ATOM     15  C   UNL A   1      40.077 -22.107 -37.656  0.00  0.00    +0.049 C 
BRANCH  15  16
ATOM     16  N   UNL A   1      39.665 -21.354 -36.475  0.00  0.00    -0.339 N 
ATOM     17  C   UNL A   1      39.022 -20.140 -36.483  0.00  0.00    +0.023 A 
ATOM     18  C   UNL A   1      38.818 -19.755 -35.172  0.00  0.00    -0.019 A 
ATOM     19  C   UNL A   1      39.368 -20.761 -34.333  0.00  0.00    +0.003 A 
ATOM     20  C   UNL A   1      39.469 -20.919 -32.937  0.00  0.00    -0.052 A 
ATOM     21  C   UNL A   1      40.073 -22.066 -32.412  0.00  0.00    -0.061 A 
ATOM     22  C   UNL A   1      40.570 -23.052 -33.257  0.00  0.00    -0.060 A 
ATOM     23  C   UNL A   1      40.483 -22.920 -34.646  0.00  0.00    -0.038 A 
ATOM     24  C   UNL A   1      39.880 -21.762 -35.167  0.00  0.00    +0.050 A 
ATOM     25  C   UNL A   1      38.137 -18.480 -34.799  0.00  0.00    -0.025 C 
ATOM     26  C   UNL A   1      37.353 -17.901 -35.991  0.00  0.00    -0.049 C 
ATOM     27  C   UNL A   1      38.173 -17.944 -37.290  0.00  0.00    -0.047 C 
ATOM     28  C   UNL A   1      38.565 -19.379 -37.685  0.00  0.00    -0.012 C 
ENDBRANCH  15  16
ENDBRANCH   4  15
TORSDOF 4
ENDMDL
MODEL 9
REMARK VINA RESULT:    -7.462     15.334     18.647
REMARK INTER + INTRA:         -10.047
REMARK INTER:                  -9.093
REMARK INTRA:                  -0.954
REMARK UNBOUND:                -0.840
REMARK  Name = cpd356.pdb
REMARK  4 active torsions:
REMARK  status: ('A' for Active; 'I' for Inactive)
REMARK    1  A    between atoms: C_5  and  C_6
REMARK    2  A    between atoms: C_6  and  N_7
REMARK    3  A    between atoms: C_10  and  C_11
REMARK    4  A    between atoms: C_11  and  N_12
REMARK                            x       y       z     vdW  Elec       q    Type
REMARK                         _______ _______ _______ _____ _____    ______ ____
ROOT
ATOM      1  N   UNL A   1      43.197 -19.938 -38.184  0.00  0.00    -0.349 N 
ATOM      2  C   UNL A   1      43.825 -19.297 -37.173  0.00  0.00    +0.005 A 
ATOM      3  C   UNL A   1      43.550 -19.620 -35.846  0.00  0.00    -0.041 A 
ATOM      4  C   UNL A   1      42.612 -20.611 -35.546  0.00  0.00    -0.025 A 
ATOM      5  C   UNL A   1      42.008 -21.281 -36.615  0.00  0.00    -0.041 A 
ATOM      6  C   UNL A   1      42.303 -20.920 -37.925  0.00  0.00    +0.005 A 
ENDROOT
BRANCH   1   7
ATOM      7  C   UNL A   1      43.487 -19.565 -39.591  0.00  0.00    +0.048 C 
BRANCH   7  12
ATOM      8 CL   UNL A   1      47.215 -23.600 -42.082  0.00  0.00    -0.084 Cl
ATOM      9  C   UNL A   1      46.158 -22.444 -41.376  0.00  0.00    +0.041 A 
ATOM     10  C   UNL A   1      45.075 -21.959 -42.104  0.00  0.00    -0.043 A 
ATOM     11  C   UNL A   1      44.213 -21.019 -41.531  0.00  0.00    -0.055 A 
ATOM     12  C   UNL A   1      44.430 -20.558 -40.222  0.00  0.00    -0.028 A 
ATOM     13  C   UNL A   1      45.528 -21.055 -39.502  0.00  0.00    -0.055 A 
ATOM     14  C   UNL A   1      46.389 -21.994 -40.078  0.00  0.00    -0.043 A 
ENDBRANCH   7  12
ENDBRANCH   1   7
BRANCH   4  15
ATOM     15  C   UNL A   1      42.317 -20.952 -34.096  0.00  0.00    +0.049 C 
BRANCH  15  16
ATOM     16  N   UNL A   1      40.930 -20.684 -33.723  0.00  0.00    -0.339 N 
ATOM     17  C   UNL A   1      40.417 -19.461 -33.367  0.00  0.00    +0.023 A 
ATOM     18  C   UNL A   1      39.077 -19.627 -33.076  0.00  0.00    -0.019 A 
ATOM     19  C   UNL A   1      38.762 -21.002 -33.246  0.00  0.00    +0.003 A 
ATOM     20  C   UNL A   1      37.585 -21.760 -33.090  0.00  0.00    -0.052 A 
ATOM     21  C   UNL A   1      37.605 -23.132 -33.358  0.00  0.00    -0.061 A 
ATOM     22  C   UNL A   1      38.775 -23.753 -33.781  0.00  0.00    -0.060 A 
ATOM     23  C   UNL A   1      39.957 -23.024 -33.944  0.00  0.00    -0.038 A 
ATOM     24  C   UNL A   1      39.932 -21.646 -33.667  0.00  0.00    +0.050 A 
ATOM     25  C   UNL A   1      38.194 -18.499 -32.655  0.00  0.00    -0.025 C 
ATOM     26  C   UNL A   1      38.832 -17.140 -32.992  0.00  0.00    -0.049 C 
ATOM     27  C   UNL A   1      40.320 -17.094 -32.605  0.00  0.00    -0.047 C 
ATOM     28  C   UNL A   1      41.148 -18.158 -33.346  0.00  0.00    -0.012 C 
ENDBRANCH  15  16
ENDBRANCH   4  15
TORSDOF 4
ENDMDL
MODEL 10
REMARK VINA RESULT:    -7.419      5.617      8.113
REMARK INTER + INTRA:          -9.994
REMARK INTER:                  -9.090
REMARK INTRA:                  -0.904
REMARK UNBOUND:                -0.840
REMARK  Name = cpd356.pdb
REMARK  4 active torsions:
REMARK  status: ('A' for Active; 'I' for Inactive)
REMARK    1  A    between atoms: C_5  and  C_6
REMARK    2  A    between atoms: C_6  and  N_7
REMARK    3  A    between atoms: C_10  and  C_11
REMARK    4  A    between atoms: C_11  and  N_12
REMARK                            x       y       z     vdW  Elec       q    Type
REMARK                         _______ _______ _______ _____ _____    ______ ____
ROOT
ATOM      1  N   UNL A   1      32.942 -37.090 -24.202  0.00  0.00    -0.349 N 
ATOM      2  C   UNL A   1      34.153 -37.453 -24.678  0.00  0.00    +0.005 A 
ATOM      3  C   UNL A   1      34.347 -37.666 -26.041  0.00  0.00    -0.041 A 
ATOM      4  C   UNL A   1      33.283 -37.511 -26.933  0.00  0.00    -0.025 A 
ATOM      5  C   UNL A   1      32.052 -37.098 -26.412  0.00  0.00    -0.041 A 
ATOM      6  C   UNL A   1      31.899 -36.907 -25.044  0.00  0.00    +0.005 A 
ENDROOT
BRANCH   1   7
ATOM      7  C   UNL A   1      32.749 -36.889 -22.744  0.00  0.00    +0.048 C 
BRANCH   7  12
ATOM      8 CL   UNL A   1      35.650 -41.096 -19.538  0.00  0.00    -0.084 Cl
ATOM      9  C   UNL A   1      34.829 -39.898 -20.458  0.00  0.00    +0.041 A 
ATOM     10  C   UNL A   1      33.851 -40.277 -21.373  0.00  0.00    -0.043 A 
ATOM     11  C   UNL A   1      33.182 -39.303 -22.122  0.00  0.00    -0.055 A 
ATOM     12  C   UNL A   1      33.488 -37.942 -21.958  0.00  0.00    -0.028 A 
ATOM     13  C   UNL A   1      34.480 -37.578 -21.033  0.00  0.00    -0.055 A 
ATOM     14  C   UNL A   1      35.148 -38.553 -20.287  0.00  0.00    -0.043 A 
ENDBRANCH   7  12
ENDBRANCH   1   7
BRANCH   4  15
ATOM     15  C   UNL A   1      33.504 -37.751 -28.416  0.00  0.00    +0.049 C 
BRANCH  15  16
ATOM     16  N   UNL A   1      34.508 -36.859 -28.990  0.00  0.00    -0.339 N 
ATOM     17  C   UNL A   1      34.287 -35.572 -29.416  0.00  0.00    +0.023 A 
ATOM     18  C   UNL A   1      35.479 -35.072 -29.903  0.00  0.00    -0.019 A 
ATOM     19  C   UNL A   1      36.460 -36.093 -29.785  0.00  0.00    +0.003 A 
ATOM     20  C   UNL A   1      37.827 -36.175 -30.116  0.00  0.00    -0.052 A 
ATOM     21  C   UNL A   1      38.532 -37.353 -29.851  0.00  0.00    -0.061 A 
ATOM     22  C   UNL A   1      37.898 -38.440 -29.260  0.00  0.00    -0.060 A 
ATOM     23  C   UNL A   1      36.543 -38.384 -28.922  0.00  0.00    -0.038 A 
ATOM     24  C   UNL A   1      35.837 -37.200 -29.197  0.00  0.00    +0.050 A 
ATOM     25  C   UNL A   1      35.614 -33.688 -30.448  0.00  0.00    -0.025 C 
ATOM     26  C   UNL A   1      34.430 -32.805 -30.017  0.00  0.00    -0.049 C 
ATOM     27  C   UNL A   1      33.085 -33.532 -30.179  0.00  0.00    -0.047 C 
ATOM     28  C   UNL A   1      33.006 -34.809 -29.325  0.00  0.00    -0.012 C 
ENDBRANCH  15  16
ENDBRANCH   4  15
TORSDOF 4
ENDMDL
MODEL 11
REMARK VINA RESULT:    -7.340     25.380     28.166
REMARK INTER + INTRA:          -9.896
REMARK INTER:                  -8.864
REMARK INTRA:                  -1.032
REMARK UNBOUND:                -0.840
REMARK  Name = cpd356.pdb
REMARK  4 active torsions:
REMARK  status: ('A' for Active; 'I' for Inactive)
REMARK    1  A    between atoms: C_5  and  C_6
REMARK    2  A    between atoms: C_6  and  N_7
REMARK    3  A    between atoms: C_10  and  C_11
REMARK    4  A    between atoms: C_11  and  N_12
REMARK                            x       y       z     vdW  Elec       q    Type
REMARK                         _______ _______ _______ _____ _____    ______ ____
ROOT
ATOM      1  N   UNL A   1      54.975 -33.034 -53.373  0.00  0.00    -0.349 N 
ATOM      2  C   UNL A   1      55.432 -32.501 -52.218  0.00  0.00    +0.005 A 
ATOM      3  C   UNL A   1      55.982 -33.312 -51.228  0.00  0.00    -0.041 A 
ATOM      4  C   UNL A   1      56.062 -34.694 -51.419  0.00  0.00    -0.025 A 
ATOM      5  C   UNL A   1      55.614 -35.210 -52.640  0.00  0.00    -0.041 A 
ATOM      6  C   UNL A   1      55.062 -34.366 -53.596  0.00  0.00    +0.005 A 
ENDROOT
BRANCH   1   7
ATOM      7  C   UNL A   1      54.372 -32.156 -54.406  0.00  0.00    +0.048 C 
BRANCH   7  12
ATOM      8 CL   UNL A   1      48.587 -30.961 -53.184  0.00  0.00    -0.084 Cl
ATOM      9  C   UNL A   1      50.234 -31.308 -53.527  0.00  0.00    +0.041 A 
ATOM     10  C   UNL A   1      50.557 -32.220 -54.528  0.00  0.00    -0.043 A 
ATOM     11  C   UNL A   1      51.897 -32.504 -54.808  0.00  0.00    -0.055 A 
ATOM     12  C   UNL A   1      52.926 -31.874 -54.088  0.00  0.00    -0.028 A 
ATOM     13  C   UNL A   1      52.583 -30.958 -53.079  0.00  0.00    -0.055 A 
ATOM     14  C   UNL A   1      51.242 -30.678 -52.800  0.00  0.00    -0.043 A 
ENDBRANCH   7  12
ENDBRANCH   1   7
BRANCH   4  15
ATOM     15  C   UNL A   1      56.659 -35.570 -50.332  0.00  0.00    +0.049 C 
BRANCH  15  16
ATOM     16  N   UNL A   1      55.684 -35.951 -49.313  0.00  0.00    -0.339 N 
ATOM     17  C   UNL A   1      54.796 -36.994 -49.404  0.00  0.00    +0.023 A 
ATOM     18  C   UNL A   1      54.041 -37.017 -48.247  0.00  0.00    -0.019 A 
ATOM     19  C   UNL A   1      54.472 -35.940 -47.427  0.00  0.00    +0.003 A 
ATOM     20  C   UNL A   1      54.079 -35.460 -46.161  0.00  0.00    -0.052 A 
ATOM     21  C   UNL A   1      54.732 -34.355 -45.608  0.00  0.00    -0.061 A 
ATOM     22  C   UNL A   1      55.768 -33.729 -46.293  0.00  0.00    -0.060 A 
ATOM     23  C   UNL A   1      56.177 -34.185 -47.550  0.00  0.00    -0.038 A 
ATOM     24  C   UNL A   1      55.512 -35.293 -48.104  0.00  0.00    +0.050 A 
ATOM     25  C   UNL A   1      52.972 -38.029 -47.997  0.00  0.00    -0.025 C 
ATOM     26  C   UNL A   1      53.116 -39.232 -48.946  0.00  0.00    -0.049 C 
ATOM     27  C   UNL A   1      53.386 -38.790 -50.394  0.00  0.00    -0.047 C 
ATOM     28  C   UNL A   1      54.687 -37.979 -50.523  0.00  0.00    -0.012 C 
ENDBRANCH  15  16
ENDBRANCH   4  15
TORSDOF 4
ENDMDL
MODEL 12
REMARK VINA RESULT:    -7.334     25.956     28.665
REMARK INTER + INTRA:          -9.889
REMARK INTER:                  -8.690
REMARK INTRA:                  -1.199
REMARK UNBOUND:                -0.840
REMARK  Name = cpd356.pdb
REMARK  4 active torsions:
REMARK  status: ('A' for Active; 'I' for Inactive)
REMARK    1  A    between atoms: C_5  and  C_6
REMARK    2  A    between atoms: C_6  and  N_7
REMARK    3  A    between atoms: C_10  and  C_11
REMARK    4  A    between atoms: C_11  and  N_12
REMARK                            x       y       z     vdW  Elec       q    Type
REMARK                         _______ _______ _______ _____ _____    ______ ____
ROOT
ATOM      1  N   UNL A   1      55.320 -32.994 -53.644  0.00  0.00    -0.349 N 
ATOM      2  C   UNL A   1      56.285 -32.609 -52.780  0.00  0.00    +0.005 A 
ATOM      3  C   UNL A   1      56.820 -33.509 -51.862  0.00  0.00    -0.041 A 
ATOM      4  C   UNL A   1      56.357 -34.827 -51.821  0.00  0.00    -0.025 A 
ATOM      5  C   UNL A   1      55.385 -35.204 -52.754  0.00  0.00    -0.041 A 
ATOM      6  C   UNL A   1      54.870 -34.271 -53.645  0.00  0.00    +0.005 A 
ENDROOT
BRANCH   1   7
ATOM      7  C   UNL A   1      54.747 -32.015 -54.600  0.00  0.00    +0.048 C 
BRANCH   7  12
ATOM      8 CL   UNL A   1      48.963 -30.959 -53.253  0.00  0.00    -0.084 Cl
ATOM      9  C   UNL A   1      50.611 -31.252 -53.640  0.00  0.00    +0.041 A 
ATOM     10  C   UNL A   1      51.609 -30.892 -52.739  0.00  0.00    -0.043 A 
ATOM     11  C   UNL A   1      52.951 -31.129 -53.052  0.00  0.00    -0.055 A 
ATOM     12  C   UNL A   1      53.303 -31.732 -54.271  0.00  0.00    -0.028 A 
ATOM     13  C   UNL A   1      52.284 -32.087 -55.170  0.00  0.00    -0.055 A 
ATOM     14  C   UNL A   1      50.943 -31.846 -54.855  0.00  0.00    -0.043 A 
ENDBRANCH   7  12
ENDBRANCH   1   7
BRANCH   4  15
ATOM     15  C   UNL A   1      56.944 -35.799 -50.813  0.00  0.00    +0.049 C 
BRANCH  15  16
ATOM     16  N   UNL A   1      56.060 -36.034 -49.674  0.00  0.00    -0.339 N 
ATOM     17  C   UNL A   1      55.986 -35.259 -48.543  0.00  0.00    +0.023 A 
ATOM     18  C   UNL A   1      55.044 -35.819 -47.701  0.00  0.00    -0.019 A 
ATOM     19  C   UNL A   1      54.535 -36.985 -48.333  0.00  0.00    +0.003 A 
ATOM     20  C   UNL A   1      53.582 -37.955 -47.966  0.00  0.00    -0.052 A 
ATOM     21  C   UNL A   1      53.289 -39.003 -48.844  0.00  0.00    -0.061 A 
ATOM     22  C   UNL A   1      53.927 -39.093 -50.077  0.00  0.00    -0.060 A 
ATOM     23  C   UNL A   1      54.877 -38.143 -50.464  0.00  0.00    -0.038 A 
ATOM     24  C   UNL A   1      55.172 -37.096 -49.574  0.00  0.00    +0.050 A 
ATOM     25  C   UNL A   1      54.695 -35.233 -46.373  0.00  0.00    -0.025 C 
ATOM     26  C   UNL A   1      55.175 -33.774 -46.267  0.00  0.00    -0.049 C 
ATOM     27  C   UNL A   1      56.611 -33.605 -46.792  0.00  0.00    -0.047 C 
ATOM     28  C   UNL A   1      56.740 -33.997 -48.274  0.00  0.00    -0.012 C 
ENDBRANCH  15  16
ENDBRANCH   4  15
TORSDOF 4
ENDMDL
MODEL 13
REMARK VINA RESULT:    -7.329     19.098     21.467
REMARK INTER + INTRA:          -9.883
REMARK INTER:                  -8.979
REMARK INTRA:                  -0.904
REMARK UNBOUND:                -0.840
REMARK  Name = cpd356.pdb
REMARK  4 active torsions:
REMARK  status: ('A' for Active; 'I' for Inactive)
REMARK    1  A    between atoms: C_5  and  C_6
REMARK    2  A    between atoms: C_6  and  N_7
REMARK    3  A    between atoms: C_10  and  C_11
REMARK    4  A    between atoms: C_11  and  N_12
REMARK                            x       y       z     vdW  Elec       q    Type
REMARK                         _______ _______ _______ _____ _____    ______ ____
ROOT
ATOM      1  N   UNL A   1      45.008 -19.117 -34.719  0.00  0.00    -0.349 N 
ATOM      2  C   UNL A   1      44.608 -19.950 -35.705  0.00  0.00    +0.005 A 
ATOM      3  C   UNL A   1      45.255 -19.957 -36.938  0.00  0.00    -0.041 A 
ATOM      4  C   UNL A   1      46.328 -19.092 -37.171  0.00  0.00    -0.025 A 
ATOM      5  C   UNL A   1      46.741 -18.269 -36.118  0.00  0.00    -0.041 A 
ATOM      6  C   UNL A   1      46.060 -18.286 -34.907  0.00  0.00    +0.005 A 
ENDROOT
BRANCH   1   7
ATOM      7  C   UNL A   1      44.292 -19.109 -33.419  0.00  0.00    +0.048 C 
BRANCH   7  12
ATOM      8 CL   UNL A   1      43.915 -13.467 -31.317  0.00  0.00    -0.084 Cl
ATOM      9  C   UNL A   1      44.017 -15.077 -31.910  0.00  0.00    +0.041 A 
ATOM     10  C   UNL A   1      43.116 -15.518 -32.874  0.00  0.00    -0.043 A 
ATOM     11  C   UNL A   1      43.197 -16.828 -33.358  0.00  0.00    -0.055 A 
ATOM     12  C   UNL A   1      44.184 -17.705 -32.880  0.00  0.00    -0.028 A 
ATOM     13  C   UNL A   1      45.084 -17.244 -31.904  0.00  0.00    -0.055 A 
ATOM     14  C   UNL A   1      44.999 -15.935 -31.421  0.00  0.00    -0.043 A 
ENDBRANCH   7  12
ENDBRANCH   1   7
BRANCH   4  15
ATOM     15  C   UNL A   1      47.023 -19.104 -38.521  0.00  0.00    +0.049 C 
BRANCH  15  16
ATOM     16  N   UNL A   1      46.102 -18.888 -39.634  0.00  0.00    -0.339 N 
ATOM     17  C   UNL A   1      45.442 -17.716 -39.913  0.00  0.00    +0.023 A 
ATOM     18  C   UNL A   1      44.660 -17.921 -41.033  0.00  0.00    -0.019 A 
ATOM     19  C   UNL A   1      44.835 -19.269 -41.445  0.00  0.00    +0.003 A 
ATOM     20  C   UNL A   1      44.304 -20.045 -42.493  0.00  0.00    -0.052 A 
ATOM     21  C   UNL A   1      44.701 -21.378 -42.638  0.00  0.00    -0.061 A 
ATOM     22  C   UNL A   1      45.620 -21.941 -41.759  0.00  0.00    -0.060 A 
ATOM     23  C   UNL A   1      46.163 -21.193 -40.710  0.00  0.00    -0.038 A 
ATOM     24  C   UNL A   1      45.754 -19.855 -40.566  0.00  0.00    +0.050 A 
ATOM     25  C   UNL A   1      43.804 -16.852 -41.629  0.00  0.00    -0.025 C 
ATOM     26  C   UNL A   1      44.222 -15.460 -41.122  0.00  0.00    -0.049 C 
ATOM     27  C   UNL A   1      44.458 -15.452 -39.602  0.00  0.00    -0.047 C 
ATOM     28  C   UNL A   1      45.576 -16.421 -39.180  0.00  0.00    -0.012 C 
ENDBRANCH  15  16
ENDBRANCH   4  15
TORSDOF 4
ENDMDL
MODEL 14
REMARK VINA RESULT:    -7.276     15.527     18.963
REMARK INTER + INTRA:          -9.817
REMARK INTER:                  -8.909
REMARK INTRA:                  -0.908
REMARK UNBOUND:                -0.840
REMARK  Name = cpd356.pdb
REMARK  4 active torsions:
REMARK  status: ('A' for Active; 'I' for Inactive)
REMARK    1  A    between atoms: C_5  and  C_6
REMARK    2  A    between atoms: C_6  and  N_7
REMARK    3  A    between atoms: C_10  and  C_11
REMARK    4  A    between atoms: C_11  and  N_12
REMARK                            x       y       z     vdW  Elec       q    Type
REMARK                         _______ _______ _______ _____ _____    ______ ____
ROOT
ATOM      1  N   UNL A   1      43.668 -20.460 -39.209  0.00  0.00    -0.349 N 
ATOM      2  C   UNL A   1      43.465 -20.844 -37.929  0.00  0.00    +0.005 A 
ATOM      3  C   UNL A   1      42.227 -21.335 -37.521  0.00  0.00    -0.041 A 
ATOM      4  C   UNL A   1      41.174 -21.430 -38.435  0.00  0.00    -0.025 A 
ATOM      5  C   UNL A   1      41.428 -21.059 -39.760  0.00  0.00    -0.041 A 
ATOM      6  C   UNL A   1      42.675 -20.563 -40.122  0.00  0.00    +0.005 A 
ENDROOT
BRANCH   1   7
ATOM      7  C   UNL A   1      44.987 -19.919 -39.619  0.00  0.00    +0.048 C 
BRANCH   7  12
ATOM      8 CL   UNL A   1      48.192 -24.206 -42.401  0.00  0.00    -0.084 Cl
ATOM      9  C   UNL A   1      47.284 -22.979 -41.612  0.00  0.00    +0.041 A 
ATOM     10  C   UNL A   1      46.272 -22.315 -42.299  0.00  0.00    -0.043 A 
ATOM     11  C   UNL A   1      45.532 -21.316 -41.658  0.00  0.00    -0.055 A 
ATOM     12  C   UNL A   1      45.801 -20.976 -40.322  0.00  0.00    -0.028 A 
ATOM     13  C   UNL A   1      46.828 -21.653 -39.644  0.00  0.00    -0.055 A 
ATOM     14  C   UNL A   1      47.566 -22.650 -40.288  0.00  0.00    -0.043 A 
ENDBRANCH   7  12
ENDBRANCH   1   7
BRANCH   4  15
ATOM     15  C   UNL A   1      39.828 -21.961 -37.979  0.00  0.00    +0.049 C 
BRANCH  15  16
ATOM     16  N   UNL A   1      39.274 -21.209 -36.856  0.00  0.00    -0.339 N 
ATOM     17  C   UNL A   1      39.210 -21.643 -35.554  0.00  0.00    +0.023 A 
ATOM     18  C   UNL A   1      38.609 -20.652 -34.801  0.00  0.00    -0.019 A 
ATOM     19  C   UNL A   1      38.281 -19.581 -35.676  0.00  0.00    +0.003 A 
ATOM     20  C   UNL A   1      37.659 -18.330 -35.494  0.00  0.00    -0.052 A 
ATOM     21  C   UNL A   1      37.492 -17.476 -36.588  0.00  0.00    -0.061 A 
ATOM     22  C   UNL A   1      37.940 -17.848 -37.852  0.00  0.00    -0.060 A 
ATOM     23  C   UNL A   1      38.561 -19.084 -38.058  0.00  0.00    -0.038 A 
ATOM     24  C   UNL A   1      38.719 -19.942 -36.955  0.00  0.00    +0.050 A 
ATOM     25  C   UNL A   1      38.378 -20.780 -33.332  0.00  0.00    -0.025 C 
ATOM     26  C   UNL A   1      39.241 -21.904 -32.731  0.00  0.00    -0.049 C 
ATOM     27  C   UNL A   1      39.205 -23.176 -33.594  0.00  0.00    -0.047 C 
ATOM     28  C   UNL A   1      39.741 -22.931 -35.015  0.00  0.00    -0.012 C 
ENDBRANCH  15  16
ENDBRANCH   4  15
TORSDOF 4
ENDMDL
MODEL 15
REMARK VINA RESULT:    -7.153     17.204     20.278
REMARK INTER + INTRA:          -9.665
REMARK INTER:                  -8.543
REMARK INTRA:                  -1.122
REMARK UNBOUND:                -0.840
REMARK  Name = cpd356.pdb
REMARK  4 active torsions:
REMARK  status: ('A' for Active; 'I' for Inactive)
REMARK    1  A    between atoms: C_5  and  C_6
REMARK    2  A    between atoms: C_6  and  N_7
REMARK    3  A    between atoms: C_10  and  C_11
REMARK    4  A    between atoms: C_11  and  N_12
REMARK                            x       y       z     vdW  Elec       q    Type
REMARK                         _______ _______ _______ _____ _____    ______ ____
ROOT
ATOM      1  N   UNL A   1      45.751 -19.223 -38.115  0.00  0.00    -0.349 N 
ATOM      2  C   UNL A   1      46.602 -18.888 -37.120  0.00  0.00    +0.005 A 
ATOM      3  C   UNL A   1      46.266 -19.118 -35.788  0.00  0.00    -0.041 A 
ATOM      4  C   UNL A   1      45.036 -19.696 -35.466  0.00  0.00    -0.025 A 
ATOM      5  C   UNL A   1      44.194 -20.066 -36.520  0.00  0.00    -0.041 A 
ATOM      6  C   UNL A   1      44.564 -19.808 -37.835  0.00  0.00    +0.005 A 
ENDROOT
BRANCH   1   7
ATOM      7  C   UNL A   1      46.117 -18.950 -39.527  0.00  0.00    +0.048 C 
BRANCH   7  12
ATOM      8 CL   UNL A   1      47.341 -24.050 -42.509  0.00  0.00    -0.084 Cl
ATOM      9  C   UNL A   1      46.987 -22.602 -41.654  0.00  0.00    +0.041 A 
ATOM     10  C   UNL A   1      47.713 -22.275 -40.513  0.00  0.00    -0.043 A 
ATOM     11  C   UNL A   1      47.427 -21.097 -39.816  0.00  0.00    -0.055 A 
ATOM     12  C   UNL A   1      46.410 -20.235 -40.260  0.00  0.00    -0.028 A 
ATOM     13  C   UNL A   1      45.685 -20.580 -41.412  0.00  0.00    -0.055 A 
ATOM     14  C   UNL A   1      45.973 -21.760 -42.105  0.00  0.00    -0.043 A 
ENDBRANCH   7  12
ENDBRANCH   1   7
BRANCH   4  15
ATOM     15  C   UNL A   1      44.678 -19.938 -34.010  0.00  0.00    +0.049 C 
BRANCH  15  16
ATOM     16  N   UNL A   1      43.496 -19.192 -33.587  0.00  0.00    -0.339 N 
ATOM     17  C   UNL A   1      42.241 -19.717 -33.398  0.00  0.00    +0.023 A 
ATOM     18  C   UNL A   1      41.400 -18.691 -33.012  0.00  0.00    -0.019 A 
ATOM     19  C   UNL A   1      42.164 -17.493 -32.979  0.00  0.00    +0.003 A 
ATOM     20  C   UNL A   1      41.861 -16.151 -32.674  0.00  0.00    -0.052 A 
ATOM     21  C   UNL A   1      42.871 -15.186 -32.722  0.00  0.00    -0.061 A 
ATOM     22  C   UNL A   1      44.172 -15.540 -33.063  0.00  0.00    -0.060 A 
ATOM     23  C   UNL A   1      44.499 -16.864 -33.370  0.00  0.00    -0.038 A 
ATOM     24  C   UNL A   1      43.478 -17.829 -33.326  0.00  0.00    +0.050 A 
ATOM     25  C   UNL A   1      39.952 -18.899 -32.713  0.00  0.00    -0.025 C 
ATOM     26  C   UNL A   1      39.643 -20.388 -32.481  0.00  0.00    -0.049 C 
ATOM     27  C   UNL A   1      40.312 -21.283 -33.537  0.00  0.00    -0.047 C 
ATOM     28  C   UNL A   1      41.845 -21.152 -33.526  0.00  0.00    -0.012 C 
ENDBRANCH  15  16
ENDBRANCH   4  15
TORSDOF 4
ENDMDL
MODEL 16
REMARK VINA RESULT:    -7.021     16.657     19.124
REMARK INTER + INTRA:          -9.503
REMARK INTER:                  -8.814
REMARK INTRA:                  -0.690
REMARK UNBOUND:                -0.840
REMARK  Name = cpd356.pdb
REMARK  4 active torsions:
REMARK  status: ('A' for Active; 'I' for Inactive)
REMARK    1  A    between atoms: C_5  and  C_6
REMARK    2  A    between atoms: C_6  and  N_7
REMARK    3  A    between atoms: C_10  and  C_11
REMARK    4  A    between atoms: C_11  and  N_12
REMARK                            x       y       z     vdW  Elec       q    Type
REMARK                         _______ _______ _______ _____ _____    ______ ____
ROOT
ATOM      1  N   UNL A   1      41.937 -20.258 -36.173  0.00  0.00    -0.349 N 
ATOM      2  C   UNL A   1      41.075 -19.790 -37.102  0.00  0.00    +0.005 A 
ATOM      3  C   UNL A   1      41.416 -19.789 -38.453  0.00  0.00    -0.041 A 
ATOM      4  C   UNL A   1      42.663 -20.268 -38.861  0.00  0.00    -0.025 A 
ATOM      5  C   UNL A   1      43.518 -20.779 -37.879  0.00  0.00    -0.041 A 
ATOM      6  C   UNL A   1      43.142 -20.752 -36.541  0.00  0.00    +0.005 A 
ENDROOT
BRANCH   1   7
ATOM      7  C   UNL A   1      41.565 -20.232 -34.737  0.00  0.00    +0.048 C 
BRANCH   7  12
ATOM      8 CL   UNL A   1      37.485 -24.500 -33.499  0.00  0.00    -0.084 Cl
ATOM      9  C   UNL A   1      38.641 -23.279 -33.854  0.00  0.00    +0.041 A 
ATOM     10  C   UNL A   1      38.888 -22.267 -32.930  0.00  0.00    -0.043 A 
ATOM     11  C   UNL A   1      39.828 -21.273 -33.218  0.00  0.00    -0.055 A 
ATOM     12  C   UNL A   1      40.530 -21.286 -34.435  0.00  0.00    -0.028 A 
ATOM     13  C   UNL A   1      40.267 -22.312 -35.357  0.00  0.00    -0.055 A 
ATOM     14  C   UNL A   1      39.325 -23.304 -35.067  0.00  0.00    -0.043 A 
ENDBRANCH   7  12
ENDBRANCH   1   7
BRANCH   4  15
ATOM     15  C   UNL A   1      43.026 -20.256 -40.335  0.00  0.00    +0.049 C 
BRANCH  15  16
ATOM     16  N   UNL A   1      44.412 -19.862 -40.573  0.00  0.00    -0.339 N 
ATOM     17  C   UNL A   1      44.869 -18.572 -40.696  0.00  0.00    +0.023 A 
ATOM     18  C   UNL A   1      46.230 -18.620 -40.927  0.00  0.00    -0.019 A 
ATOM     19  C   UNL A   1      46.617 -19.987 -40.960  0.00  0.00    +0.003 A 
ATOM     20  C   UNL A   1      47.845 -20.648 -41.163  0.00  0.00    -0.052 A 
ATOM     21  C   UNL A   1      47.893 -22.045 -41.120  0.00  0.00    -0.061 A 
ATOM     22  C   UNL A   1      46.742 -22.785 -40.875  0.00  0.00    -0.060 A 
ATOM     23  C   UNL A   1      45.511 -22.154 -40.671  0.00  0.00    -0.038 A 
ATOM     24  C   UNL A   1      45.468 -20.749 -40.722  0.00  0.00    +0.050 A 
ATOM     25  C   UNL A   1      47.065 -17.395 -41.106  0.00  0.00    -0.025 C 
ATOM     26  C   UNL A   1      46.329 -16.144 -40.595  0.00  0.00    -0.049 C 
ATOM     27  C   UNL A   1      44.865 -16.111 -41.062  0.00  0.00    -0.047 C 
ATOM     28  C   UNL A   1      44.063 -17.322 -40.554  0.00  0.00    -0.012 C 
ENDBRANCH  15  16
ENDBRANCH   4  15
TORSDOF 4
ENDMDL
MODEL 17
REMARK VINA RESULT:    -7.002     17.072     20.304
REMARK INTER + INTRA:          -9.479
REMARK INTER:                  -8.550
REMARK INTRA:                  -0.929
REMARK UNBOUND:                -0.840
REMARK  Name = cpd356.pdb
REMARK  4 active torsions:
REMARK  status: ('A' for Active; 'I' for Inactive)
REMARK    1  A    between atoms: C_5  and  C_6
REMARK    2  A    between atoms: C_6  and  N_7
REMARK    3  A    between atoms: C_10  and  C_11
REMARK    4  A    between atoms: C_11  and  N_12
REMARK                            x       y       z     vdW  Elec       q    Type
REMARK                         _______ _______ _______ _____ _____    ______ ____
ROOT
ATOM      1  N   UNL A   1      45.206 -19.247 -38.221  0.00  0.00    -0.349 N 
ATOM      2  C   UNL A   1      46.173 -19.030 -37.301  0.00  0.00    +0.005 A 
ATOM      3  C   UNL A   1      45.928 -19.243 -35.947  0.00  0.00    -0.041 A 
ATOM      4  C   UNL A   1      44.671 -19.682 -35.522  0.00  0.00    -0.025 A 
ATOM      5  C   UNL A   1      43.704 -19.933 -36.502  0.00  0.00    -0.041 A 
ATOM      6  C   UNL A   1      43.987 -19.696 -37.842  0.00  0.00    +0.005 A 
ENDROOT
BRANCH   1   7
ATOM      7  C   UNL A   1      45.479 -18.993 -39.657  0.00  0.00    +0.048 C 
BRANCH   7  12
ATOM      8 CL   UNL A   1      47.352 -23.992 -42.466  0.00  0.00    -0.084 Cl
ATOM      9  C   UNL A   1      46.816 -22.573 -41.659  0.00  0.00    +0.041 A 
ATOM     10  C   UNL A   1      47.649 -21.940 -40.742  0.00  0.00    -0.043 A 
ATOM     11  C   UNL A   1      47.215 -20.785 -40.084  0.00  0.00    -0.055 A 
ATOM     12  C   UNL A   1      45.940 -20.254 -40.343  0.00  0.00    -0.028 A 
ATOM     13  C   UNL A   1      45.110 -20.906 -41.270  0.00  0.00    -0.055 A 
ATOM     14  C   UNL A   1      45.548 -22.062 -41.924  0.00  0.00    -0.043 A 
ENDBRANCH   7  12
ENDBRANCH   1   7
BRANCH   4  15
ATOM     15  C   UNL A   1      44.413 -19.906 -34.043  0.00  0.00    +0.049 C 
BRANCH  15  16
ATOM     16  N   UNL A   1      43.232 -19.196 -33.560  0.00  0.00    -0.339 N 
ATOM     17  C   UNL A   1      43.119 -17.835 -33.414  0.00  0.00    +0.023 A 
ATOM     18  C   UNL A   1      41.857 -17.561 -32.922  0.00  0.00    -0.019 A 
ATOM     19  C   UNL A   1      41.180 -18.798 -32.747  0.00  0.00    +0.003 A 
ATOM     20  C   UNL A   1      39.899 -19.151 -32.279  0.00  0.00    -0.052 A 
ATOM     21  C   UNL A   1      39.523 -20.497 -32.244  0.00  0.00    -0.061 A 
ATOM     22  C   UNL A   1      40.400 -21.488 -32.671  0.00  0.00    -0.060 A 
ATOM     23  C   UNL A   1      41.676 -21.164 -33.140  0.00  0.00    -0.038 A 
ATOM     24  C   UNL A   1      42.051 -19.810 -33.167  0.00  0.00    +0.050 A 
ATOM     25  C   UNL A   1      41.381 -16.173 -32.644  0.00  0.00    -0.025 C 
ATOM     26  C   UNL A   1      42.268 -15.131 -33.348  0.00  0.00    -0.049 C 
ATOM     27  C   UNL A   1      43.764 -15.443 -33.176  0.00  0.00    -0.047 C 
ATOM     28  C   UNL A   1      44.146 -16.810 -33.771  0.00  0.00    -0.012 C 
ENDBRANCH  15  16
ENDBRANCH   4  15
TORSDOF 4
ENDMDL
MODEL 18
REMARK VINA RESULT:    -6.936     17.489     20.044
REMARK INTER + INTRA:          -9.398
REMARK INTER:                  -8.265
REMARK INTRA:                  -1.133
REMARK UNBOUND:                -0.840
REMARK  Name = cpd356.pdb
REMARK  4 active torsions:
REMARK  status: ('A' for Active; 'I' for Inactive)
REMARK    1  A    between atoms: C_5  and  C_6
REMARK    2  A    between atoms: C_6  and  N_7
REMARK    3  A    between atoms: C_10  and  C_11
REMARK    4  A    between atoms: C_11  and  N_12
REMARK                            x       y       z     vdW  Elec       q    Type
REMARK                         _______ _______ _______ _____ _____    ______ ____
ROOT
ATOM      1  N   UNL A   1      44.508 -18.756 -34.011  0.00  0.00    -0.349 N 
ATOM      2  C   UNL A   1      45.021 -17.597 -34.481  0.00  0.00    +0.005 A 
ATOM      3  C   UNL A   1      45.850 -17.588 -35.600  0.00  0.00    -0.041 A 
ATOM      4  C   UNL A   1      46.165 -18.785 -36.249  0.00  0.00    -0.025 A 
ATOM      5  C   UNL A   1      45.588 -19.962 -35.760  0.00  0.00    -0.041 A 
ATOM      6  C   UNL A   1      44.775 -19.927 -34.633  0.00  0.00    +0.005 A 
ENDROOT
BRANCH   1   7
ATOM      7  C   UNL A   1      43.644 -18.748 -32.804  0.00  0.00    +0.048 C 
BRANCH   7  12
ATOM      8 CL   UNL A   1      38.022 -20.359 -34.281  0.00  0.00    -0.084 Cl
ATOM      9  C   UNL A   1      39.620 -19.896 -33.853  0.00  0.00    +0.041 A 
ATOM     10  C   UNL A   1      40.332 -20.642 -32.919  0.00  0.00    -0.043 A 
ATOM     11  C   UNL A   1      41.633 -20.266 -32.570  0.00  0.00    -0.055 A 
ATOM     12  C   UNL A   1      42.232 -19.140 -33.157  0.00  0.00    -0.028 A 
ATOM     13  C   UNL A   1      41.499 -18.396 -34.097  0.00  0.00    -0.055 A 
ATOM     14  C   UNL A   1      40.198 -18.773 -34.442  0.00  0.00    -0.043 A 
ENDBRANCH   7  12
ENDBRANCH   1   7
BRANCH   4  15
ATOM     15  C   UNL A   1      47.074 -18.764 -37.465  0.00  0.00    +0.049 C 
BRANCH  15  16
ATOM     16  N   UNL A   1      46.345 -18.939 -38.718  0.00  0.00    -0.339 N 
ATOM     17  C   UNL A   1      45.595 -17.978 -39.351  0.00  0.00    +0.023 A 
ATOM     18  C   UNL A   1      45.060 -18.537 -40.495  0.00  0.00    -0.019 A 
ATOM     19  C   UNL A   1      45.486 -19.891 -40.558  0.00  0.00    +0.003 A 
ATOM     20  C   UNL A   1      45.259 -20.944 -41.466  0.00  0.00    -0.052 A 
ATOM     21  C   UNL A   1      45.851 -22.190 -41.242  0.00  0.00    -0.061 A 
ATOM     22  C   UNL A   1      46.666 -22.397 -40.134  0.00  0.00    -0.060 A 
ATOM     23  C   UNL A   1      46.907 -21.370 -39.217  0.00  0.00    -0.038 A 
ATOM     24  C   UNL A   1      46.303 -20.120 -39.445  0.00  0.00    +0.050 A 
ATOM     25  C   UNL A   1      44.188 -17.774 -41.438  0.00  0.00    -0.025 C 
ATOM     26  C   UNL A   1      44.318 -16.258 -41.208  0.00  0.00    -0.049 C 
ATOM     27  C   UNL A   1      44.276 -15.900 -39.714  0.00  0.00    -0.047 C 
ATOM     28  C   UNL A   1      45.421 -16.557 -38.924  0.00  0.00    -0.012 C 
ENDBRANCH  15  16
ENDBRANCH   4  15
TORSDOF 4
ENDMDL
MODEL 19
REMARK VINA RESULT:    -6.753     18.156     20.694
REMARK INTER + INTRA:          -9.173
REMARK INTER:                  -7.960
REMARK INTRA:                  -1.213
REMARK UNBOUND:                -0.840
REMARK  Name = cpd356.pdb
REMARK  4 active torsions:
REMARK  status: ('A' for Active; 'I' for Inactive)
REMARK    1  A    between atoms: C_5  and  C_6
REMARK    2  A    between atoms: C_6  and  N_7
REMARK    3  A    between atoms: C_10  and  C_11
REMARK    4  A    between atoms: C_11  and  N_12
REMARK                            x       y       z     vdW  Elec       q    Type
REMARK                         _______ _______ _______ _____ _____    ______ ____
ROOT
ATOM      1  N   UNL A   1      43.325 -17.743 -34.075  0.00  0.00    -0.349 N 
ATOM      2  C   UNL A   1      44.302 -18.607 -33.721  0.00  0.00    +0.005 A 
ATOM      3  C   UNL A   1      45.553 -18.557 -34.332  0.00  0.00    -0.041 A 
ATOM      4  C   UNL A   1      45.809 -17.610 -35.327  0.00  0.00    -0.025 A 
ATOM      5  C   UNL A   1      44.789 -16.707 -35.644  0.00  0.00    -0.041 A 
ATOM      6  C   UNL A   1      43.552 -16.799 -35.018  0.00  0.00    +0.005 A 
ENDROOT
BRANCH   1   7
ATOM      7  C   UNL A   1      41.992 -17.825 -33.428  0.00  0.00    +0.048 C 
BRANCH   7  12
ATOM      8 CL   UNL A   1      39.464 -23.237 -34.275  0.00  0.00    -0.084 Cl
ATOM      9  C   UNL A   1      40.192 -21.699 -34.035  0.00  0.00    +0.041 A 
ATOM     10  C   UNL A   1      40.426 -20.865 -35.125  0.00  0.00    -0.043 A 
ATOM     11  C   UNL A   1      41.018 -19.613 -34.932  0.00  0.00    -0.055 A 
ATOM     12  C   UNL A   1      41.379 -19.186 -33.644  0.00  0.00    -0.028 A 
ATOM     13  C   UNL A   1      41.139 -20.040 -32.555  0.00  0.00    -0.055 A 
ATOM     14  C   UNL A   1      40.548 -21.292 -32.752  0.00  0.00    -0.043 A 
ENDBRANCH   7  12
ENDBRANCH   1   7
BRANCH   4  15
ATOM     15  C   UNL A   1      47.174 -17.568 -35.990  0.00  0.00    +0.049 C 
BRANCH  15  16
ATOM     16  N   UNL A   1      47.100 -17.663 -37.446  0.00  0.00    -0.339 N 
ATOM     17  C   UNL A   1      47.270 -16.623 -38.326  0.00  0.00    +0.023 A 
ATOM     18  C   UNL A   1      47.111 -17.115 -39.607  0.00  0.00    -0.019 A 
ATOM     19  C   UNL A   1      46.818 -18.502 -39.506  0.00  0.00    +0.003 A 
ATOM     20  C   UNL A   1      46.553 -19.514 -40.449  0.00  0.00    -0.052 A 
ATOM     21  C   UNL A   1      46.310 -20.820 -40.013  0.00  0.00    -0.061 A 
ATOM     22  C   UNL A   1      46.333 -21.128 -38.657  0.00  0.00    -0.060 A 
ATOM     23  C   UNL A   1      46.594 -20.143 -37.700  0.00  0.00    -0.038 A 
ATOM     24  C   UNL A   1      46.831 -18.830 -38.145  0.00  0.00    +0.050 A 
ATOM     25  C   UNL A   1      47.234 -16.260 -40.825  0.00  0.00    -0.025 C 
ATOM     26  C   UNL A   1      47.950 -14.937 -40.503  0.00  0.00    -0.049 C 
ATOM     27  C   UNL A   1      47.420 -14.300 -39.207  0.00  0.00    -0.047 C 
ATOM     28  C   UNL A   1      47.622 -15.212 -37.984  0.00  0.00    -0.012 C 
ENDBRANCH  15  16
ENDBRANCH   4  15
TORSDOF 4
ENDMDL
MODEL 20
REMARK VINA RESULT:    -6.696     16.503     18.847
REMARK INTER + INTRA:          -9.102
REMARK INTER:                  -7.896
REMARK INTRA:                  -1.206
REMARK UNBOUND:                -0.840
REMARK  Name = cpd356.pdb
REMARK  4 active torsions:
REMARK  status: ('A' for Active; 'I' for Inactive)
REMARK    1  A    between atoms: C_5  and  C_6
REMARK    2  A    between atoms: C_6  and  N_7
REMARK    3  A    between atoms: C_10  and  C_11
REMARK    4  A    between atoms: C_11  and  N_12
REMARK                            x       y       z     vdW  Elec       q    Type
REMARK                         _______ _______ _______ _____ _____    ______ ____
ROOT
ATOM      1  N   UNL A   1      40.078 -19.738 -36.986  0.00  0.00    -0.349 N 
ATOM      2  C   UNL A   1      40.777 -20.624 -37.730  0.00  0.00    +0.005 A 
ATOM      3  C   UNL A   1      41.751 -20.189 -38.625  0.00  0.00    -0.041 A 
ATOM      4  C   UNL A   1      42.013 -18.824 -38.769  0.00  0.00    -0.025 A 
ATOM      5  C   UNL A   1      41.298 -17.936 -37.957  0.00  0.00    -0.041 A 
ATOM      6  C   UNL A   1      40.327 -18.412 -37.084  0.00  0.00    +0.005 A 
ENDROOT
BRANCH   1   7
ATOM      7  C   UNL A   1      39.029 -20.218 -36.053  0.00  0.00    +0.048 C 
BRANCH   7  12
ATOM      8 CL   UNL A   1      41.526 -23.517 -31.663  0.00  0.00    -0.084 Cl
ATOM      9  C   UNL A   1      40.808 -22.575 -32.908  0.00  0.00    +0.041 A 
ATOM     10  C   UNL A   1      41.102 -21.218 -33.007  0.00  0.00    -0.043 A 
ATOM     11  C   UNL A   1      40.519 -20.450 -34.020  0.00  0.00    -0.055 A 
ATOM     12  C   UNL A   1      39.637 -21.037 -34.943  0.00  0.00    -0.028 A 
ATOM     13  C   UNL A   1      39.350 -22.407 -34.827  0.00  0.00    -0.055 A 
ATOM     14  C   UNL A   1      39.933 -23.172 -33.812  0.00  0.00    -0.043 A 
ENDBRANCH   7  12
ENDBRANCH   1   7
BRANCH   4  15
ATOM     15  C   UNL A   1      43.073 -18.362 -39.752  0.00  0.00    +0.049 C 
BRANCH  15  16
ATOM     16  N   UNL A   1      44.369 -18.997 -39.527  0.00  0.00    -0.339 N 
ATOM     17  C   UNL A   1      44.952 -19.937 -40.341  0.00  0.00    +0.023 A 
ATOM     18  C   UNL A   1      46.162 -20.298 -39.780  0.00  0.00    -0.019 A 
ATOM     19  C   UNL A   1      46.318 -19.563 -38.574  0.00  0.00    +0.003 A 
ATOM     20  C   UNL A   1      47.320 -19.513 -37.585  0.00  0.00    -0.052 A 
ATOM     21  C   UNL A   1      47.174 -18.649 -36.496  0.00  0.00    -0.061 A 
ATOM     22  C   UNL A   1      46.051 -17.836 -36.383  0.00  0.00    -0.060 A 
ATOM     23  C   UNL A   1      45.042 -17.866 -37.350  0.00  0.00    -0.038 A 
ATOM     24  C   UNL A   1      45.192 -18.742 -38.440  0.00  0.00    +0.050 A 
ATOM     25  C   UNL A   1      47.076 -21.301 -40.402  0.00  0.00    -0.025 C 
ATOM     26  C   UNL A   1      46.716 -21.538 -41.880  0.00  0.00    -0.049 C 
ATOM     27  C   UNL A   1      45.200 -21.700 -42.079  0.00  0.00    -0.047 C 
ATOM     28  C   UNL A   1      44.416 -20.452 -41.637  0.00  0.00    -0.012 C 
ENDBRANCH  15  16
ENDBRANCH   4  15
TORSDOF 4
ENDMDL
