@<TRIPOS>MOLECULE
*****
 50 57 0 0 0
SMALL
GASTEIGER

@<TRIPOS>ATOM
      1 N          -0.0000   -4.0000    0.0000 N.pl3   1  UNL1       -0.1281
      2 C          -0.0000   -3.0000    0.0000 C.ar    1  UNL1        0.0893
      3 C           0.8660   -2.5000    0.0000 C.ar    1  UNL1        0.0181
      4 C           0.8660   -1.5000    0.0000 C.ar    1  UNL1        0.0018
      5 C          -0.0000   -1.0000    0.0000 C.ar    1  UNL1        0.0115
      6 C          -0.8660   -1.5000    0.0000 C.ar    1  UNL1        0.0651
      7 C          -0.8660   -2.5000    0.0000 C.ar    1  UNL1        0.0240
      8 C          -1.7321   -1.0000    0.0000 C.ar    1  UNL1        0.2259
      9 C          -2.5981   -1.5000    0.0000 C.ar    1  UNL1        0.0635
     10 C          -2.5981   -2.5000    0.0000 C.ar    1  UNL1        0.0059
     11 C          -3.4641   -3.0000    0.0000 C.ar    1  UNL1        0.0002
     12 C          -4.3301   -2.5000    0.0000 C.ar    1  UNL1        0.0000
     13 C          -4.3301   -1.5000    0.0000 C.ar    1  UNL1        0.0002
     14 C          -3.4641   -1.0000    0.0000 C.ar    1  UNL1        0.0059
     15 N          -1.7321    0.0000    0.0000 N.ar    1  UNL1       -0.1694
     16 C          -2.5981    0.5000    0.0000 C.3     1  UNL1        0.3220
     17 C          -3.4641    0.0000    0.0000 C.3     1  UNL1        0.0852
     18 C          -4.3301    0.5000    0.0000 C.3     1  UNL1        0.0073
     19 C          -5.1962    0.0000    0.0000 C.3     1  UNL1        0.0006
     20 C          -6.0622    0.5000    0.0000 C.3     1  UNL1        0.0064
     21 C          -6.9282    0.0000    0.0000 C.3     1  UNL1        0.0493
     22 C          -7.7942    0.5000    0.0000 C.ar    1  UNL1        0.1008
     23 C          -8.7078    0.0933    0.0000 C.ar    1  UNL1        0.1132
     24 N          -9.3769    0.8364    0.0000 N.ar    1  UNL1       -0.2287
     25 C         -10.3714    0.7319    0.0000 C.3     1  UNL1        0.1525
     26 C         -10.7782   -0.1817    0.0000 C.3     1  UNL1        0.1385
     27 N         -10.1904   -0.9907    0.0000 N.pl3   1  UNL1       -0.2357
     28 C         -10.5971   -1.9042    0.0000 C.ar    1  UNL1        0.0639
     29 C         -10.0093   -2.7132    0.0000 C.ar    1  UNL1        0.0062
     30 C         -10.4161   -3.6268    0.0000 C.ar    1  UNL1        0.0562
     31 N         -11.4106   -3.7313    0.0000 N.ar    1  UNL1       -0.2499
     32 C         -11.9984   -2.9223    0.0000 C.ar    1  UNL1        0.0821
     33 C         -12.9929   -3.0268    0.0000 C.ar    1  UNL1        0.0191
     34 C         -13.5807   -2.2178    0.0000 C.ar    1  UNL1        0.0015
     35 C         -13.1739   -1.3043    0.0000 C.ar    1  UNL1        0.0001
     36 C         -12.1794   -1.1997    0.0000 C.ar    1  UNL1        0.0028
     37 C         -11.5916   -2.0088    0.0000 C.ar    1  UNL1        0.0322
     38 C          -9.8283   -4.4358    0.0000 C.3     1  UNL1        0.0455
     39 C          -8.8338   -4.3313    0.0000 C.3     1  UNL1        0.0066
     40 C          -8.4270   -3.4177    0.0000 C.3     1  UNL1        0.0052
     41 C          -9.0148   -2.6087    0.0000 C.3     1  UNL1        0.0289
     42 N          -8.8769    1.7024    0.0000 N.ar    1  UNL1       -0.0641
     43 N          -7.8988    1.4945    0.0000 N.ar    1  UNL1       -0.1331
     44 C          -0.8660    0.5000    0.0000 C.ar    1  UNL1        0.2274
     45 C          -0.8660    1.5000    0.0000 C.ar    1  UNL1        0.0872
     46 C           0.0000    2.0000    0.0000 C.ar    1  UNL1        0.0950
     47 N           0.0000    3.0000    0.0000 N.pl3   1  UNL1       -0.1279
     48 C           0.8660    1.5000    0.0000 C.ar    1  UNL1        0.0185
     49 C           0.8660    0.5000    0.0000 C.ar    1  UNL1        0.0073
     50 C           0.0000    0.0000    0.0000 C.ar    1  UNL1        0.0638
@<TRIPOS>UNITY_ATOM_ATTR
15 1
charge 1
@<TRIPOS>BOND
     1     1     2    1
     2     2     3   ar
     3     3     4   ar
     4     4     5   ar
     5     5     6   ar
     6     6     7   ar
     7     2     7   ar
     8     6     8   ar
     9     8     9    1
    10     9    10   ar
    11    10    11   ar
    12    11    12   ar
    13    12    13   ar
    14    13    14   ar
    15     9    14   ar
    16     8    15   ar
    17    15    16    1
    18    16    17    1
    19    17    18    1
    20    18    19    1
    21    19    20    1
    22    20    21    1
    23    21    22    1
    24    22    23   ar
    25    23    24   ar
    26    24    25    1
    27    25    26    1
    28    26    27    1
    29    27    28    1
    30    28    29   ar
    31    29    30   ar
    32    30    31   ar
    33    31    32   ar
    34    32    33   ar
    35    33    34   ar
    36    34    35   ar
    37    35    36   ar
    38    36    37   ar
    39    28    37   ar
    40    32    37   ar
    41    30    38    1
    42    38    39    1
    43    39    40    1
    44    40    41    1
    45    29    41    1
    46    24    42   ar
    47    42    43   ar
    48    22    43   ar
    49    15    44   ar
    50    44    45   ar
    51    45    46   ar
    52    46    47    1
    53    46    48   ar
    54    48    49   ar
    55    49    50   ar
    56     5    50   ar
    57    44    50   ar
