MODEL 1
REMARK VINA RESULT:    -7.049      0.000      0.000
REMARK INTER + INTRA:         -19.189
REMARK INTER:                 -12.406
REMARK INTRA:                  -6.783
REMARK UNBOUND:                -6.783
REMARK  Name = cpd169.pdb
REMARK  14 active torsions:
REMARK  status: ('A' for Active; 'I' for Inactive)
REMARK    1  A    between atoms: N_1  and  C_2
REMARK    2  A    between atoms: C_8  and  C_9
REMARK    3  A    between atoms: N_15  and  C_16
REMARK    4  A    between atoms: C_16  and  C_17
REMARK    5  A    between atoms: C_17  and  C_18
REMARK    6  A    between atoms: C_18  and  C_19
REMARK    7  A    between atoms: C_19  and  C_20
REMARK    8  A    between atoms: C_20  and  C_21
REMARK    9  A    between atoms: C_21  and  C_22
REMARK   10  A    between atoms: N_24  and  C_25
REMARK   11  A    between atoms: C_25  and  C_26
REMARK   12  A    between atoms: C_26  and  N_27
REMARK   13  A    between atoms: N_27  and  C_28
REMARK   14  A    between atoms: C_46  and  N_47
REMARK                            x       y       z     vdW  Elec       q    Type
REMARK                         _______ _______ _______ _____ _____    ______ ____
ROOT
ATOM      1  C   UNL A   1      46.593 -17.829 -39.239  0.00  0.00    -0.035 C 
ENDROOT
BRANCH   1   2
ATOM      2  C   UNL A   1      46.716 -19.337 -39.012  0.00  0.00    +0.024 C 
BRANCH   2  10
ATOM      3  C   UNL A   1      41.174 -22.132 -38.262  0.00  0.00    +0.025 A 
ATOM      4  C   UNL A   1      41.083 -21.948 -36.895  0.00  0.00    -0.040 A 
ATOM      5  C   UNL A   1      42.125 -21.335 -36.194  0.00  0.00    -0.052 A 
ATOM      6  C   UNL A   1      43.289 -20.834 -36.836  0.00  0.00    -0.007 A 
ATOM      7  C   UNL A   1      43.357 -20.961 -38.232  0.00  0.00    +0.009 A 
ATOM      8  C   UNL A   1      42.281 -21.594 -38.916  0.00  0.00    -0.031 A 
ATOM      9  C   UNL A   1      44.485 -20.447 -38.916  0.00  0.00    +0.057 A 
ATOM     10  N   UNL A   1      45.523 -19.849 -38.244  0.00  0.00    -0.339 N 
ATOM     11  C   UNL A   1      45.491 -19.725 -36.873  0.00  0.00    +0.052 A 
ATOM     12  C   UNL A   1      46.546 -19.113 -36.146  0.00  0.00    -0.017 A 
ATOM     13  C   UNL A   1      46.545 -18.989 -34.755  0.00  0.00    +0.027 A 
ATOM     14  C   UNL A   1      45.418 -19.399 -34.068  0.00  0.00    -0.040 A 
ATOM     15  C   UNL A   1      44.365 -20.016 -34.744  0.00  0.00    -0.050 A 
ATOM     16  C   UNL A   1      44.367 -20.204 -36.148  0.00  0.00    +0.006 A 
BRANCH   9  17
ATOM     17  C   UNL A   1      44.587 -20.535 -40.385  0.00  0.00    -0.001 A 
ATOM     18  C   UNL A   1      45.286 -21.592 -40.995  0.00  0.00    -0.053 A 
ATOM     19  C   UNL A   1      45.396 -21.665 -42.386  0.00  0.00    -0.061 A 
ATOM     20  C   UNL A   1      44.814 -20.682 -43.183  0.00  0.00    -0.062 A 
ATOM     21  C   UNL A   1      44.136 -19.618 -42.595  0.00  0.00    -0.061 A 
ATOM     22  C   UNL A   1      44.030 -19.536 -41.206  0.00  0.00    -0.053 A 
ENDBRANCH   9  17
BRANCH   3  23
ATOM     23  N   UNL A   1      40.086 -22.614 -38.988  0.00  0.00    -0.358 N 
ATOM     24  H   UNL A   1      40.105 -22.599 -39.972  0.00  0.00    +0.000 HD
ATOM     25  H   UNL A   1      39.298 -22.969 -38.517  0.00  0.00    +0.000 HD
ENDBRANCH   3  23
BRANCH  13  26
ATOM     26  N   UNL A   1      47.535 -18.250 -34.110  0.00  0.00    -0.358 N 
ATOM     27  H   UNL A   1      48.430 -18.637 -33.977  0.00  0.00    +0.000 HD
ATOM     28  H   UNL A   1      47.338 -17.341 -33.786  0.00  0.00    +0.000 HD
ENDBRANCH  13  26
ENDBRANCH   2  10
ENDBRANCH   1   2
BRANCH   1  29
ATOM     29  C   UNL A   1      47.015 -17.419 -40.654  0.00  0.00    -0.051 C 
BRANCH  29  30
ATOM     30  C   UNL A   1      47.610 -16.011 -40.692  0.00  0.00    -0.053 C 
BRANCH  30  31
ATOM     31  C   UNL A   1      46.841 -15.032 -39.805  0.00  0.00    -0.048 C 
BRANCH  31  32
ATOM     32  C   UNL A   1      45.970 -14.111 -40.661  0.00  0.00    -0.007 C 
BRANCH  32  33
ATOM     33  C   UNL A   1      44.549 -14.526 -40.692  0.00  0.00    +0.083 A 
ATOM     34  C   UNL A   1      43.483 -14.112 -39.924  0.00  0.00    +0.049 A 
ATOM     35  N   UNL A   1      42.468 -14.938 -40.305  0.00  0.00    -0.250 N 
ATOM     36  N   UNL A   1      42.857 -15.772 -41.285  0.00  0.00    -0.065 NA
ATOM     37  N   UNL A   1      44.137 -15.530 -41.529  0.00  0.00    -0.135 NA
BRANCH  35  38
ATOM     38  C   UNL A   1      41.170 -15.101 -39.683  0.00  0.00    +0.059 C 
BRANCH  38  39
ATOM     39  C   UNL A   1      40.744 -16.570 -39.666  0.00  0.00    +0.029 C 
BRANCH  39  40
ATOM     40  N   UNL A   1      41.810 -17.444 -39.133  0.00  0.00    -0.341 N 
ATOM     41  H   UNL A   1      42.512 -17.862 -39.684  0.00  0.00    +0.000 HD
BRANCH  40  42
ATOM     42  C   UNL A   1      41.692 -17.607 -37.717  0.00  0.00    +0.041 A 
ATOM     43  C   UNL A   1      42.651 -17.040 -36.849  0.00  0.00    -0.005 A 
ATOM     44  C   UNL A   1      42.385 -17.076 -35.478  0.00  0.00    +0.047 A 
ATOM     45  N   UNL A   1      41.278 -17.650 -34.951  0.00  0.00    -0.251 NA
ATOM     46  C   UNL A   1      40.383 -18.215 -35.773  0.00  0.00    +0.073 A 
ATOM     47  C   UNL A   1      39.259 -18.807 -35.211  0.00  0.00    -0.036 A 
ATOM     48  C   UNL A   1      38.280 -19.425 -35.993  0.00  0.00    -0.060 A 
ATOM     49  C   UNL A   1      38.425 -19.459 -37.371  0.00  0.00    -0.061 A 
ATOM     50  C   UNL A   1      39.544 -18.867 -37.955  0.00  0.00    -0.051 A 
ATOM     51  C   UNL A   1      40.534 -18.226 -37.172  0.00  0.00    +0.021 A 
ATOM     52  C   UNL A   1      43.343 -16.504 -34.464  0.00  0.00    -0.010 C 
ATOM     53  C   UNL A   1      44.302 -15.477 -35.056  0.00  0.00    -0.047 C 
ATOM     54  C   UNL A   1      44.946 -16.044 -36.309  0.00  0.00    -0.049 C 
ATOM     55  C   UNL A   1      43.885 -16.339 -37.368  0.00  0.00    -0.024 C 
ENDBRANCH  40  42
ENDBRANCH  39  40
ENDBRANCH  38  39
ENDBRANCH  35  38
ENDBRANCH  32  33
ENDBRANCH  31  32
ENDBRANCH  30  31
ENDBRANCH  29  30
ENDBRANCH   1  29
TORSDOF 14
ENDMDL
MODEL 2
REMARK VINA RESULT:    -7.025     19.341     24.026
REMARK INTER + INTRA:         -19.147
REMARK INTER:                 -12.358
REMARK INTRA:                  -6.789
REMARK UNBOUND:                -6.783
REMARK  Name = cpd169.pdb
REMARK  14 active torsions:
REMARK  status: ('A' for Active; 'I' for Inactive)
REMARK    1  A    between atoms: N_1  and  C_2
REMARK    2  A    between atoms: C_8  and  C_9
REMARK    3  A    between atoms: N_15  and  C_16
REMARK    4  A    between atoms: C_16  and  C_17
REMARK    5  A    between atoms: C_17  and  C_18
REMARK    6  A    between atoms: C_18  and  C_19
REMARK    7  A    between atoms: C_19  and  C_20
REMARK    8  A    between atoms: C_20  and  C_21
REMARK    9  A    between atoms: C_21  and  C_22
REMARK   10  A    between atoms: N_24  and  C_25
REMARK   11  A    between atoms: C_25  and  C_26
REMARK   12  A    between atoms: C_26  and  N_27
REMARK   13  A    between atoms: N_27  and  C_28
REMARK   14  A    between atoms: C_46  and  N_47
REMARK                            x       y       z     vdW  Elec       q    Type
REMARK                         _______ _______ _______ _____ _____    ______ ____
ROOT
ATOM      1  C   UNL A   1      30.727 -35.059 -28.665  0.00  0.00    -0.035 C 
ENDROOT
BRANCH   1   2
ATOM      2  C   UNL A   1      31.832 -34.416 -27.823  0.00  0.00    +0.024 C 
BRANCH   2  10
ATOM      3  C   UNL A   1      37.389 -36.688 -29.569  0.00  0.00    +0.025 A 
ATOM      4  C   UNL A   1      37.467 -37.681 -28.610  0.00  0.00    -0.040 A 
ATOM      5  C   UNL A   1      36.458 -37.818 -27.652  0.00  0.00    -0.052 A 
ATOM      6  C   UNL A   1      35.299 -36.997 -27.638  0.00  0.00    -0.007 A 
ATOM      7  C   UNL A   1      35.184 -36.030 -28.649  0.00  0.00    +0.009 A 
ATOM      8  C   UNL A   1      36.231 -35.912 -29.606  0.00  0.00    -0.031 A 
ATOM      9  C   UNL A   1      34.030 -35.211 -28.690  0.00  0.00    +0.057 A 
ATOM     10  N   UNL A   1      33.033 -35.325 -27.753  0.00  0.00    -0.339 N 
ATOM     11  C   UNL A   1      33.125 -36.255 -26.741  0.00  0.00    +0.052 A 
ATOM     12  C   UNL A   1      32.113 -36.400 -25.755  0.00  0.00    -0.017 A 
ATOM     13  C   UNL A   1      32.190 -37.323 -24.710  0.00  0.00    +0.027 A 
ATOM     14  C   UNL A   1      33.261 -38.197 -24.695  0.00  0.00    -0.040 A 
ATOM     15  C   UNL A   1      34.282 -38.080 -25.638  0.00  0.00    -0.050 A 
ATOM     16  C   UNL A   1      34.255 -37.114 -26.675  0.00  0.00    +0.006 A 
BRANCH   9  17
ATOM     17  C   UNL A   1      33.856 -34.200 -29.749  0.00  0.00    -0.001 A 
ATOM     18  C   UNL A   1      33.382 -34.564 -31.022  0.00  0.00    -0.053 A 
ATOM     19  C   UNL A   1      33.233 -33.608 -32.029  0.00  0.00    -0.061 A 
ATOM     20  C   UNL A   1      33.560 -32.277 -31.779  0.00  0.00    -0.062 A 
ATOM     21  C   UNL A   1      34.050 -31.901 -30.531  0.00  0.00    -0.061 A 
ATOM     22  C   UNL A   1      34.207 -32.855 -29.524  0.00  0.00    -0.053 A 
ENDBRANCH   9  17
BRANCH   3  23
ATOM     23  N   UNL A   1      38.315 -36.630 -30.608  0.00  0.00    -0.358 N 
ATOM     24  H   UNL A   1      39.277 -36.571 -30.408  0.00  0.00    +0.000 HD
ATOM     25  H   UNL A   1      38.007 -36.648 -31.544  0.00  0.00    +0.000 HD
ENDBRANCH   3  23
BRANCH  13  26
ATOM     26  N   UNL A   1      31.104 -37.523 -23.861  0.00  0.00    -0.358 N 
ATOM     27  H   UNL A   1      30.326 -36.923 -23.908  0.00  0.00    +0.000 HD
ATOM     28  H   UNL A   1      31.116 -38.265 -23.214  0.00  0.00    +0.000 HD
ENDBRANCH  13  26
ENDBRANCH   2  10
ENDBRANCH   1   2
BRANCH   1  29
ATOM     29  C   UNL A   1      29.630 -34.059 -29.043  0.00  0.00    -0.051 C 
BRANCH  29  30
ATOM     30  C   UNL A   1      29.757 -33.585 -30.491  0.00  0.00    -0.053 C 
BRANCH  30  31
ATOM     31  C   UNL A   1      29.019 -34.499 -31.469  0.00  0.00    -0.048 C 
BRANCH  31  32
ATOM     32  C   UNL A   1      29.804 -34.627 -32.774  0.00  0.00    -0.007 C 
BRANCH  32  33
ATOM     33  C   UNL A   1      30.330 -35.993 -33.000  0.00  0.00    +0.083 A 
ATOM     34  C   UNL A   1      29.911 -37.203 -32.492  0.00  0.00    +0.049 A 
ATOM     35  N   UNL A   1      30.853 -38.084 -32.935  0.00  0.00    -0.250 N 
ATOM     36  N   UNL A   1      31.764 -37.475 -33.715  0.00  0.00    -0.065 NA
ATOM     37  N   UNL A   1      31.454 -36.188 -33.759  0.00  0.00    -0.135 NA
BRANCH  35  38
ATOM     38  C   UNL A   1      31.041 -39.463 -32.535  0.00  0.00    +0.059 C 
BRANCH  38  39
ATOM     39  C   UNL A   1      32.447 -39.690 -31.974  0.00  0.00    +0.029 C 
BRANCH  39  40
ATOM     40  N   UNL A   1      32.775 -38.721 -30.908  0.00  0.00    -0.341 N 
ATOM     41  H   UNL A   1      32.890 -37.753 -31.054  0.00  0.00    +0.000 HD
BRANCH  40  42
ATOM     42  C   UNL A   1      32.904 -39.365 -29.638  0.00  0.00    +0.041 A 
ATOM     43  C   UNL A   1      31.832 -39.355 -28.718  0.00  0.00    -0.005 A 
ATOM     44  C   UNL A   1      31.952 -40.152 -27.576  0.00  0.00    +0.047 A 
ATOM     45  N   UNL A   1      33.048 -40.899 -27.303  0.00  0.00    -0.251 NA
ATOM     46  C   UNL A   1      34.076 -40.884 -28.161  0.00  0.00    +0.073 A 
ATOM     47  C   UNL A   1      35.195 -41.650 -27.857  0.00  0.00    -0.036 A 
ATOM     48  C   UNL A   1      36.314 -41.687 -28.692  0.00  0.00    -0.060 A 
ATOM     49  C   UNL A   1      36.324 -40.939 -29.859  0.00  0.00    -0.061 A 
ATOM     50  C   UNL A   1      35.210 -40.166 -30.184  0.00  0.00    -0.051 A 
ATOM     51  C   UNL A   1      34.066 -40.134 -29.352  0.00  0.00    +0.021 A 
ATOM     52  C   UNL A   1      30.870 -40.212 -26.528  0.00  0.00    -0.010 C 
ATOM     53  C   UNL A   1      29.505 -39.777 -27.048  0.00  0.00    -0.047 C 
ATOM     54  C   UNL A   1      29.635 -38.447 -27.772  0.00  0.00    -0.049 C 
ATOM     55  C   UNL A   1      30.559 -38.585 -28.981  0.00  0.00    -0.024 C 
ENDBRANCH  40  42
ENDBRANCH  39  40
ENDBRANCH  38  39
ENDBRANCH  35  38
ENDBRANCH  32  33
ENDBRANCH  31  32
ENDBRANCH  30  31
ENDBRANCH  29  30
ENDBRANCH   1  29
TORSDOF 14
ENDMDL
MODEL 3
REMARK VINA RESULT:    -6.912      1.975      4.874
REMARK INTER + INTRA:         -18.948
REMARK INTER:                 -12.146
REMARK INTRA:                  -6.802
REMARK UNBOUND:                -6.783
REMARK  Name = cpd169.pdb
REMARK  14 active torsions:
REMARK  status: ('A' for Active; 'I' for Inactive)
REMARK    1  A    between atoms: N_1  and  C_2
REMARK    2  A    between atoms: C_8  and  C_9
REMARK    3  A    between atoms: N_15  and  C_16
REMARK    4  A    between atoms: C_16  and  C_17
REMARK    5  A    between atoms: C_17  and  C_18
REMARK    6  A    between atoms: C_18  and  C_19
REMARK    7  A    between atoms: C_19  and  C_20
REMARK    8  A    between atoms: C_20  and  C_21
REMARK    9  A    between atoms: C_21  and  C_22
REMARK   10  A    between atoms: N_24  and  C_25
REMARK   11  A    between atoms: C_25  and  C_26
REMARK   12  A    between atoms: C_26  and  N_27
REMARK   13  A    between atoms: N_27  and  C_28
REMARK   14  A    between atoms: C_46  and  N_47
REMARK                            x       y       z     vdW  Elec       q    Type
REMARK                         _______ _______ _______ _____ _____    ______ ____
ROOT
ATOM      1  C   UNL A   1      47.241 -14.554 -37.174  0.00  0.00    -0.035 C 
ENDROOT
BRANCH   1   2
ATOM      2  C   UNL A   1      45.941 -15.322 -37.422  0.00  0.00    +0.024 C 
BRANCH   2  10
ATOM      3  C   UNL A   1      47.615 -19.925 -41.309  0.00  0.00    +0.025 A 
ATOM      4  C   UNL A   1      47.479 -20.960 -40.402  0.00  0.00    -0.040 A 
ATOM      5  C   UNL A   1      47.118 -20.696 -39.078  0.00  0.00    -0.052 A 
ATOM      6  C   UNL A   1      46.828 -19.387 -38.609  0.00  0.00    -0.007 A 
ATOM      7  C   UNL A   1      46.901 -18.341 -39.542  0.00  0.00    +0.009 A 
ATOM      8  C   UNL A   1      47.277 -18.642 -40.882  0.00  0.00    -0.031 A 
ATOM      9  C   UNL A   1      46.590 -17.024 -39.125  0.00  0.00    +0.057 A 
ATOM     10  N   UNL A   1      46.242 -16.744 -37.827  0.00  0.00    -0.339 N 
ATOM     11  C   UNL A   1      46.177 -17.748 -36.886  0.00  0.00    +0.052 A 
ATOM     12  C   UNL A   1      45.820 -17.495 -35.535  0.00  0.00    -0.017 A 
ATOM     13  C   UNL A   1      45.763 -18.492 -34.559  0.00  0.00    +0.027 A 
ATOM     14  C   UNL A   1      45.973 -19.799 -34.955  0.00  0.00    -0.040 A 
ATOM     15  C   UNL A   1      46.337 -20.089 -36.270  0.00  0.00    -0.050 A 
ATOM     16  C   UNL A   1      46.457 -19.088 -37.266  0.00  0.00    +0.006 A 
BRANCH   9  17
ATOM     17  C   UNL A   1      46.629 -15.898 -40.077  0.00  0.00    -0.001 A 
ATOM     18  C   UNL A   1      47.835 -15.228 -40.350  0.00  0.00    -0.053 A 
ATOM     19  C   UNL A   1      47.867 -14.151 -41.238  0.00  0.00    -0.061 A 
ATOM     20  C   UNL A   1      46.695 -13.727 -41.862  0.00  0.00    -0.062 A 
ATOM     21  C   UNL A   1      45.489 -14.366 -41.588  0.00  0.00    -0.061 A 
ATOM     22  C   UNL A   1      45.451 -15.438 -40.695  0.00  0.00    -0.053 A 
ENDBRANCH   9  17
BRANCH   3  23
ATOM     23  N   UNL A   1      47.837 -20.188 -42.659  0.00  0.00    -0.358 N 
ATOM     24  H   UNL A   1      47.627 -19.504 -43.334  0.00  0.00    +0.000 HD
ATOM     25  H   UNL A   1      48.205 -21.058 -42.937  0.00  0.00    +0.000 HD
ENDBRANCH   3  23
BRANCH  13  26
ATOM     26  N   UNL A   1      45.266 -18.211 -33.289  0.00  0.00    -0.358 N 
ATOM     27  H   UNL A   1      45.375 -17.311 -32.905  0.00  0.00    +0.000 HD
ATOM     28  H   UNL A   1      44.805 -18.913 -32.774  0.00  0.00    +0.000 HD
ENDBRANCH  13  26
ENDBRANCH   2  10
ENDBRANCH   1   2
BRANCH   1  29
ATOM     29  C   UNL A   1      47.012 -13.042 -37.076  0.00  0.00    -0.051 C 
BRANCH  29  30
ATOM     30  C   UNL A   1      45.648 -12.705 -36.475  0.00  0.00    -0.053 C 
BRANCH  30  31
ATOM     31  C   UNL A   1      44.903 -11.644 -37.283  0.00  0.00    -0.048 C 
BRANCH  31  32
ATOM     32  C   UNL A   1      44.728 -12.103 -38.731  0.00  0.00    -0.007 C 
BRANCH  32  33
ATOM     33  C   UNL A   1      43.485 -12.878 -38.944  0.00  0.00    +0.083 A 
ATOM     34  C   UNL A   1      42.805 -13.723 -38.094  0.00  0.00    +0.049 A 
ATOM     35  N   UNL A   1      41.823 -14.252 -38.879  0.00  0.00    -0.250 N 
ATOM     36  N   UNL A   1      41.853 -13.731 -40.118  0.00  0.00    -0.065 NA
ATOM     37  N   UNL A   1      42.873 -12.887 -40.171  0.00  0.00    -0.135 NA
BRANCH  35  38
ATOM     38  C   UNL A   1      40.939 -15.358 -38.575  0.00  0.00    +0.059 C 
BRANCH  38  39
ATOM     39  C   UNL A   1      41.351 -16.622 -39.332  0.00  0.00    +0.029 C 
BRANCH  39  40
ATOM     40  N   UNL A   1      42.799 -16.888 -39.207  0.00  0.00    -0.341 N 
ATOM     41  H   UNL A   1      43.492 -16.189 -39.194  0.00  0.00    +0.000 HD
BRANCH  40  42
ATOM     42  C   UNL A   1      43.065 -18.290 -39.109  0.00  0.00    +0.041 A 
ATOM     43  C   UNL A   1      42.811 -18.984 -37.905  0.00  0.00    -0.005 A 
ATOM     44  C   UNL A   1      42.918 -20.377 -37.926  0.00  0.00    +0.047 A 
ATOM     45  N   UNL A   1      43.279 -21.078 -39.027  0.00  0.00    -0.251 NA
ATOM     46  C   UNL A   1      43.549 -20.416 -40.160  0.00  0.00    +0.073 A 
ATOM     47  C   UNL A   1      43.928 -21.154 -41.275  0.00  0.00    -0.036 A 
ATOM     48  C   UNL A   1      44.235 -20.545 -42.495  0.00  0.00    -0.060 A 
ATOM     49  C   UNL A   1      44.169 -19.165 -42.607  0.00  0.00    -0.061 A 
ATOM     50  C   UNL A   1      43.788 -18.407 -41.501  0.00  0.00    -0.051 A 
ATOM     51  C   UNL A   1      43.461 -19.016 -40.266  0.00  0.00    +0.021 A 
ATOM     52  C   UNL A   1      42.673 -21.215 -36.697  0.00  0.00    -0.010 C 
ATOM     53  C   UNL A   1      41.834 -20.503 -35.642  0.00  0.00    -0.047 C 
ATOM     54  C   UNL A   1      42.407 -19.121 -35.382  0.00  0.00    -0.049 C 
ATOM     55  C   UNL A   1      42.356 -18.273 -36.652  0.00  0.00    -0.024 C 
ENDBRANCH  40  42
ENDBRANCH  39  40
ENDBRANCH  38  39
ENDBRANCH  35  38
ENDBRANCH  32  33
ENDBRANCH  31  32
ENDBRANCH  30  31
ENDBRANCH  29  30
ENDBRANCH   1  29
TORSDOF 14
ENDMDL
MODEL 4
REMARK VINA RESULT:    -6.910      2.166      7.035
REMARK INTER + INTRA:         -18.945
REMARK INTER:                 -13.880
REMARK INTRA:                  -5.064
REMARK UNBOUND:                -6.783
REMARK  Name = cpd169.pdb
REMARK  14 active torsions:
REMARK  status: ('A' for Active; 'I' for Inactive)
REMARK    1  A    between atoms: N_1  and  C_2
REMARK    2  A    between atoms: C_8  and  C_9
REMARK    3  A    between atoms: N_15  and  C_16
REMARK    4  A    between atoms: C_16  and  C_17
REMARK    5  A    between atoms: C_17  and  C_18
REMARK    6  A    between atoms: C_18  and  C_19
REMARK    7  A    between atoms: C_19  and  C_20
REMARK    8  A    between atoms: C_20  and  C_21
REMARK    9  A    between atoms: C_21  and  C_22
REMARK   10  A    between atoms: N_24  and  C_25
REMARK   11  A    between atoms: C_25  and  C_26
REMARK   12  A    between atoms: C_26  and  N_27
REMARK   13  A    between atoms: N_27  and  C_28
REMARK   14  A    between atoms: C_46  and  N_47
REMARK                            x       y       z     vdW  Elec       q    Type
REMARK                         _______ _______ _______ _____ _____    ______ ____
ROOT
ATOM      1  C   UNL A   1      42.318 -21.444 -40.363  0.00  0.00    -0.035 C 
ENDROOT
BRANCH   1   2
ATOM      2  C   UNL A   1      43.319 -21.162 -39.241  0.00  0.00    +0.024 C 
BRANCH   2  10
ATOM      3  C   UNL A   1      45.876 -15.480 -39.764  0.00  0.00    +0.025 A 
ATOM      4  C   UNL A   1      46.948 -15.857 -40.553  0.00  0.00    -0.040 A 
ATOM      5  C   UNL A   1      47.135 -17.198 -40.895  0.00  0.00    -0.052 A 
ATOM      6  C   UNL A   1      46.233 -18.222 -40.504  0.00  0.00    -0.007 A 
ATOM      7  C   UNL A   1      45.108 -17.836 -39.757  0.00  0.00    +0.009 A 
ATOM      8  C   UNL A   1      44.948 -16.462 -39.421  0.00  0.00    -0.031 A 
ATOM      9  C   UNL A   1      44.165 -18.820 -39.373  0.00  0.00    +0.057 A 
ATOM     10  N   UNL A   1      44.337 -20.144 -39.692  0.00  0.00    -0.339 N 
ATOM     11  C   UNL A   1      45.439 -20.555 -40.410  0.00  0.00    +0.052 A 
ATOM     12  C   UNL A   1      45.648 -21.916 -40.758  0.00  0.00    -0.017 A 
ATOM     13  C   UNL A   1      46.764 -22.360 -41.470  0.00  0.00    +0.027 A 
ATOM     14  C   UNL A   1      47.655 -21.412 -41.937  0.00  0.00    -0.040 A 
ATOM     15  C   UNL A   1      47.491 -20.066 -41.608  0.00  0.00    -0.050 A 
ATOM     16  C   UNL A   1      46.398 -19.598 -40.837  0.00  0.00    +0.006 A 
BRANCH   9  17
ATOM     17  C   UNL A   1      42.957 -18.456 -38.610  0.00  0.00    -0.001 A 
ATOM     18  C   UNL A   1      41.785 -18.047 -39.271  0.00  0.00    -0.053 A 
ATOM     19  C   UNL A   1      40.646 -17.686 -38.547  0.00  0.00    -0.061 A 
ATOM     20  C   UNL A   1      40.665 -17.724 -37.155  0.00  0.00    -0.062 A 
ATOM     21  C   UNL A   1      41.823 -18.107 -36.483  0.00  0.00    -0.061 A 
ATOM     22  C   UNL A   1      42.966 -18.461 -37.202  0.00  0.00    -0.053 A 
ENDBRANCH   9  17
BRANCH   3  23
ATOM     23  N   UNL A   1      45.602 -14.133 -39.534  0.00  0.00    -0.358 N 
ATOM     24  H   UNL A   1      46.323 -13.467 -39.596  0.00  0.00    +0.000 HD
ATOM     25  H   UNL A   1      44.687 -13.849 -39.308  0.00  0.00    +0.000 HD
ENDBRANCH   3  23
BRANCH  13  26
ATOM     26  N   UNL A   1      46.844 -23.680 -41.909  0.00  0.00    -0.358 N 
ATOM     27  H   UNL A   1      47.361 -24.340 -41.394  0.00  0.00    +0.000 HD
ATOM     28  H   UNL A   1      46.382 -23.952 -42.735  0.00  0.00    +0.000 HD
ENDBRANCH  13  26
ENDBRANCH   2  10
ENDBRANCH   1   2
BRANCH   1  29
ATOM     29  C   UNL A   1      40.913 -21.739 -39.827  0.00  0.00    -0.051 C 
BRANCH  29  30
ATOM     30  C   UNL A   1      40.927 -22.084 -38.338  0.00  0.00    -0.053 C 
BRANCH  30  31
ATOM     31  C   UNL A   1      39.604 -21.745 -37.651  0.00  0.00    -0.048 C 
BRANCH  31  32
ATOM     32  C   UNL A   1      39.371 -22.672 -36.458  0.00  0.00    -0.007 C 
BRANCH  32  33
ATOM     33  C   UNL A   1      39.985 -22.168 -35.208  0.00  0.00    +0.083 A 
ATOM     34  C   UNL A   1      40.786 -21.069 -34.989  0.00  0.00    +0.049 A 
ATOM     35  N   UNL A   1      41.159 -21.194 -33.683  0.00  0.00    -0.250 N 
ATOM     36  N   UNL A   1      40.583 -22.265 -33.110  0.00  0.00    -0.065 NA
ATOM     37  N   UNL A   1      39.861 -22.874 -34.040  0.00  0.00    -0.135 NA
BRANCH  35  38
ATOM     38  C   UNL A   1      42.168 -20.440 -32.969  0.00  0.00    +0.059 C 
BRANCH  38  39
ATOM     39  C   UNL A   1      43.342 -20.081 -33.882  0.00  0.00    +0.029 C 
BRANCH  39  40
ATOM     40  N   UNL A   1      44.378 -19.309 -33.166  0.00  0.00    -0.341 N 
ATOM     41  H   UNL A   1      44.736 -19.549 -32.280  0.00  0.00    +0.000 HD
BRANCH  40  42
ATOM     42  C   UNL A   1      44.795 -18.168 -33.921  0.00  0.00    +0.041 A 
ATOM     43  C   UNL A   1      45.834 -18.279 -34.871  0.00  0.00    -0.005 A 
ATOM     44  C   UNL A   1      46.070 -17.181 -35.702  0.00  0.00    +0.047 A 
ATOM     45  N   UNL A   1      45.377 -16.021 -35.617  0.00  0.00    -0.251 NA
ATOM     46  C   UNL A   1      44.412 -15.906 -34.695  0.00  0.00    +0.073 A 
ATOM     47  C   UNL A   1      43.719 -14.704 -34.618  0.00  0.00    -0.036 A 
ATOM     48  C   UNL A   1      42.703 -14.495 -33.682  0.00  0.00    -0.060 A 
ATOM     49  C   UNL A   1      42.370 -15.507 -32.796  0.00  0.00    -0.061 A 
ATOM     50  C   UNL A   1      43.051 -16.722 -32.859  0.00  0.00    -0.051 A 
ATOM     51  C   UNL A   1      44.071 -16.948 -33.813  0.00  0.00    +0.021 A 
ATOM     52  C   UNL A   1      47.158 -17.191 -36.747  0.00  0.00    -0.010 C 
ATOM     53  C   UNL A   1      47.589 -18.596 -37.152  0.00  0.00    -0.047 C 
ATOM     54  C   UNL A   1      47.876 -19.419 -35.908  0.00  0.00    -0.049 C 
ATOM     55  C   UNL A   1      46.616 -19.558 -35.056  0.00  0.00    -0.024 C 
ENDBRANCH  40  42
ENDBRANCH  39  40
ENDBRANCH  38  39
ENDBRANCH  35  38
ENDBRANCH  32  33
ENDBRANCH  31  32
ENDBRANCH  30  31
ENDBRANCH  29  30
ENDBRANCH   1  29
TORSDOF 14
ENDMDL
MODEL 5
REMARK VINA RESULT:    -6.859      0.377      2.613
REMARK INTER + INTRA:         -18.854
REMARK INTER:                 -11.882
REMARK INTRA:                  -6.971
REMARK UNBOUND:                -6.783
REMARK  Name = cpd169.pdb
REMARK  14 active torsions:
REMARK  status: ('A' for Active; 'I' for Inactive)
REMARK    1  A    between atoms: N_1  and  C_2
REMARK    2  A    between atoms: C_8  and  C_9
REMARK    3  A    between atoms: N_15  and  C_16
REMARK    4  A    between atoms: C_16  and  C_17
REMARK    5  A    between atoms: C_17  and  C_18
REMARK    6  A    between atoms: C_18  and  C_19
REMARK    7  A    between atoms: C_19  and  C_20
REMARK    8  A    between atoms: C_20  and  C_21
REMARK    9  A    between atoms: C_21  and  C_22
REMARK   10  A    between atoms: N_24  and  C_25
REMARK   11  A    between atoms: C_25  and  C_26
REMARK   12  A    between atoms: C_26  and  N_27
REMARK   13  A    between atoms: N_27  and  C_28
REMARK   14  A    between atoms: C_46  and  N_47
REMARK                            x       y       z     vdW  Elec       q    Type
REMARK                         _______ _______ _______ _____ _____    ______ ____
ROOT
ATOM      1  C   UNL A   1      46.526 -17.655 -39.060  0.00  0.00    -0.035 C 
ENDROOT
BRANCH   1   2
ATOM      2  C   UNL A   1      46.694 -19.158 -38.832  0.00  0.00    +0.024 C 
BRANCH   2  10
ATOM      3  C   UNL A   1      41.190 -22.049 -38.168  0.00  0.00    +0.025 A 
ATOM      4  C   UNL A   1      41.097 -21.906 -36.796  0.00  0.00    -0.040 A 
ATOM      5  C   UNL A   1      42.130 -21.300 -36.077  0.00  0.00    -0.052 A 
ATOM      6  C   UNL A   1      43.287 -20.765 -36.703  0.00  0.00    -0.007 A 
ATOM      7  C   UNL A   1      43.357 -20.849 -38.103  0.00  0.00    +0.009 A 
ATOM      8  C   UNL A   1      42.290 -21.477 -38.805  0.00  0.00    -0.031 A 
ATOM      9  C   UNL A   1      44.479 -20.300 -38.770  0.00  0.00    +0.057 A 
ATOM     10  N   UNL A   1      45.508 -19.709 -38.081  0.00  0.00    -0.339 N 
ATOM     11  C   UNL A   1      45.475 -19.626 -36.706  0.00  0.00    +0.052 A 
ATOM     12  C   UNL A   1      46.521 -19.021 -35.960  0.00  0.00    -0.017 A 
ATOM     13  C   UNL A   1      46.518 -18.939 -34.567  0.00  0.00    +0.027 A 
ATOM     14  C   UNL A   1      45.397 -19.384 -33.893  0.00  0.00    -0.040 A 
ATOM     15  C   UNL A   1      44.352 -19.995 -34.587  0.00  0.00    -0.050 A 
ATOM     16  C   UNL A   1      44.357 -20.142 -35.996  0.00  0.00    +0.006 A 
BRANCH   9  17
ATOM     17  C   UNL A   1      44.582 -20.344 -40.241  0.00  0.00    -0.001 A 
ATOM     18  C   UNL A   1      45.213 -21.422 -40.886  0.00  0.00    -0.053 A 
ATOM     19  C   UNL A   1      45.325 -21.453 -42.278  0.00  0.00    -0.061 A 
ATOM     20  C   UNL A   1      44.812 -20.407 -43.042  0.00  0.00    -0.062 A 
ATOM     21  C   UNL A   1      44.202 -19.322 -42.419  0.00  0.00    -0.061 A 
ATOM     22  C   UNL A   1      44.095 -19.282 -41.027  0.00  0.00    -0.053 A 
ENDBRANCH   9  17
BRANCH   3  23
ATOM     23  N   UNL A   1      40.109 -22.523 -38.909  0.00  0.00    -0.358 N 
ATOM     24  H   UNL A   1      39.633 -21.922 -39.525  0.00  0.00    +0.000 HD
ATOM     25  H   UNL A   1      39.822 -23.460 -38.815  0.00  0.00    +0.000 HD
ENDBRANCH   3  23
BRANCH  13  26
ATOM     26  N   UNL A   1      47.498 -18.206 -33.899  0.00  0.00    -0.358 N 
ATOM     27  H   UNL A   1      48.087 -17.600 -34.402  0.00  0.00    +0.000 HD
ATOM     28  H   UNL A   1      47.600 -18.296 -32.924  0.00  0.00    +0.000 HD
ENDBRANCH  13  26
ENDBRANCH   2  10
ENDBRANCH   1   2
BRANCH   1  29
ATOM     29  C   UNL A   1      47.076 -17.209 -40.419  0.00  0.00    -0.051 C 
BRANCH  29  30
ATOM     30  C   UNL A   1      47.353 -15.706 -40.463  0.00  0.00    -0.053 C 
BRANCH  30  31
ATOM     31  C   UNL A   1      46.457 -14.922 -39.506  0.00  0.00    -0.048 C 
BRANCH  31  32
ATOM     32  C   UNL A   1      45.507 -14.015 -40.289  0.00  0.00    -0.007 C 
BRANCH  32  33
ATOM     33  C   UNL A   1      44.140 -14.573 -40.403  0.00  0.00    +0.083 A 
ATOM     34  C   UNL A   1      42.996 -14.279 -39.693  0.00  0.00    +0.049 A 
ATOM     35  N   UNL A   1      42.093 -15.200 -40.137  0.00  0.00    -0.250 N 
ATOM     36  N   UNL A   1      42.620 -15.977 -41.099  0.00  0.00    -0.065 NA
ATOM     37  N   UNL A   1      43.880 -15.603 -41.269  0.00  0.00    -0.135 NA
BRANCH  35  38
ATOM     38  C   UNL A   1      40.787 -15.502 -39.590  0.00  0.00    +0.059 C 
BRANCH  38  39
ATOM     39  C   UNL A   1      40.495 -17.003 -39.648  0.00  0.00    +0.029 C 
BRANCH  39  40
ATOM     40  N   UNL A   1      41.511 -17.787 -38.914  0.00  0.00    -0.341 N 
ATOM     41  H   UNL A   1      42.222 -18.314 -39.345  0.00  0.00    +0.000 HD
BRANCH  40  42
ATOM     42  C   UNL A   1      41.328 -17.683 -37.499  0.00  0.00    +0.041 A 
ATOM     43  C   UNL A   1      40.199 -18.263 -36.879  0.00  0.00    -0.005 A 
ATOM     44  C   UNL A   1      40.170 -18.287 -35.482  0.00  0.00    +0.047 A 
ATOM     45  N   UNL A   1      41.148 -17.758 -34.709  0.00  0.00    -0.251 NA
ATOM     46  C   UNL A   1      42.203 -17.181 -35.299  0.00  0.00    +0.073 A 
ATOM     47  C   UNL A   1      43.190 -16.635 -34.487  0.00  0.00    -0.036 A 
ATOM     48  C   UNL A   1      44.320 -16.008 -35.017  0.00  0.00    -0.060 A 
ATOM     49  C   UNL A   1      44.471 -15.917 -36.392  0.00  0.00    -0.061 A 
ATOM     50  C   UNL A   1      43.493 -16.461 -37.224  0.00  0.00    -0.051 A 
ATOM     51  C   UNL A   1      42.353 -17.111 -36.696  0.00  0.00    +0.021 A 
ATOM     52  C   UNL A   1      39.012 -18.878 -34.719  0.00  0.00    -0.010 C 
ATOM     53  C   UNL A   1      38.187 -19.859 -35.543  0.00  0.00    -0.047 C 
ATOM     54  C   UNL A   1      37.830 -19.229 -36.879  0.00  0.00    -0.049 C 
ATOM     55  C   UNL A   1      39.095 -18.916 -37.676  0.00  0.00    -0.024 C 
ENDBRANCH  40  42
ENDBRANCH  39  40
ENDBRANCH  38  39
ENDBRANCH  35  38
ENDBRANCH  32  33
ENDBRANCH  31  32
ENDBRANCH  30  31
ENDBRANCH  29  30
ENDBRANCH   1  29
TORSDOF 14
ENDMDL
MODEL 6
REMARK VINA RESULT:    -6.825      2.223      7.327
REMARK INTER + INTRA:         -18.794
REMARK INTER:                 -11.552
REMARK INTRA:                  -7.242
REMARK UNBOUND:                -6.783
REMARK  Name = cpd169.pdb
REMARK  14 active torsions:
REMARK  status: ('A' for Active; 'I' for Inactive)
REMARK    1  A    between atoms: N_1  and  C_2
REMARK    2  A    between atoms: C_8  and  C_9
REMARK    3  A    between atoms: N_15  and  C_16
REMARK    4  A    between atoms: C_16  and  C_17
REMARK    5  A    between atoms: C_17  and  C_18
REMARK    6  A    between atoms: C_18  and  C_19
REMARK    7  A    between atoms: C_19  and  C_20
REMARK    8  A    between atoms: C_20  and  C_21
REMARK    9  A    between atoms: C_21  and  C_22
REMARK   10  A    between atoms: N_24  and  C_25
REMARK   11  A    between atoms: C_25  and  C_26
REMARK   12  A    between atoms: C_26  and  N_27
REMARK   13  A    between atoms: N_27  and  C_28
REMARK   14  A    between atoms: C_46  and  N_47
REMARK                            x       y       z     vdW  Elec       q    Type
REMARK                         _______ _______ _______ _____ _____    ______ ____
ROOT
ATOM      1  C   UNL A   1      42.270 -20.936 -33.410  0.00  0.00    -0.035 C 
ENDROOT
BRANCH   1   2
ATOM      2  C   UNL A   1      42.021 -20.197 -34.726  0.00  0.00    +0.024 C 
BRANCH   2  10
ATOM      3  C   UNL A   1      41.988 -13.974 -34.124  0.00  0.00    +0.025 A 
ATOM      4  C   UNL A   1      43.346 -13.786 -34.311  0.00  0.00    -0.040 A 
ATOM      5  C   UNL A   1      44.192 -14.882 -34.494  0.00  0.00    -0.052 A 
ATOM      6  C   UNL A   1      43.713 -16.219 -34.547  0.00  0.00    -0.007 A 
ATOM      7  C   UNL A   1      42.328 -16.410 -34.423  0.00  0.00    +0.009 A 
ATOM      8  C   UNL A   1      41.494 -15.272 -34.232  0.00  0.00    -0.031 A 
ATOM      9  C   UNL A   1      41.804 -17.723 -34.501  0.00  0.00    +0.057 A 
ATOM     10  N   UNL A   1      42.620 -18.814 -34.672  0.00  0.00    -0.339 N 
ATOM     11  C   UNL A   1      43.985 -18.659 -34.781  0.00  0.00    +0.052 A 
ATOM     12  C   UNL A   1      44.859 -19.764 -34.959  0.00  0.00    -0.017 A 
ATOM     13  C   UNL A   1      46.245 -19.635 -35.056  0.00  0.00    +0.027 A 
ATOM     14  C   UNL A   1      46.778 -18.359 -35.074  0.00  0.00    -0.040 A 
ATOM     15  C   UNL A   1      45.955 -17.248 -34.891  0.00  0.00    -0.050 A 
ATOM     16  C   UNL A   1      44.551 -17.357 -34.733  0.00  0.00    +0.006 A 
BRANCH   9  17
ATOM     17  C   UNL A   1      40.354 -17.969 -34.401  0.00  0.00    -0.001 A 
ATOM     18  C   UNL A   1      39.591 -18.252 -35.548  0.00  0.00    -0.053 A 
ATOM     19  C   UNL A   1      38.214 -18.467 -35.454  0.00  0.00    -0.061 A 
ATOM     20  C   UNL A   1      37.581 -18.398 -34.215  0.00  0.00    -0.062 A 
ATOM     21  C   UNL A   1      38.317 -18.098 -33.071  0.00  0.00    -0.061 A 
ATOM     22  C   UNL A   1      39.692 -17.875 -33.162  0.00  0.00    -0.053 A 
ENDBRANCH   9  17
BRANCH   3  23
ATOM     23  N   UNL A   1      41.120 -12.885 -34.080  0.00  0.00    -0.358 N 
ATOM     24  H   UNL A   1      40.671 -12.580 -34.901  0.00  0.00    +0.000 HD
ATOM     25  H   UNL A   1      40.955 -12.421 -33.227  0.00  0.00    +0.000 HD
ENDBRANCH   3  23
BRANCH  13  26
ATOM     26  N   UNL A   1      47.038 -20.735 -35.377  0.00  0.00    -0.358 N 
ATOM     27  H   UNL A   1      46.799 -21.628 -35.040  0.00  0.00    +0.000 HD
ATOM     28  H   UNL A   1      47.837 -20.618 -35.940  0.00  0.00    +0.000 HD
ENDBRANCH  13  26
ENDBRANCH   2  10
ENDBRANCH   1   2
BRANCH   1  29
ATOM     29  C   UNL A   1      40.973 -21.191 -32.633  0.00  0.00    -0.051 C 
BRANCH  29  30
ATOM     30  C   UNL A   1      39.798 -21.497 -33.562  0.00  0.00    -0.053 C 
BRANCH  30  31
ATOM     31  C   UNL A   1      39.626 -22.996 -33.806  0.00  0.00    -0.048 C 
BRANCH  31  32
ATOM     32  C   UNL A   1      38.989 -23.242 -35.174  0.00  0.00    -0.007 C 
BRANCH  32  33
ATOM     33  C   UNL A   1      39.813 -22.731 -36.294  0.00  0.00    +0.083 A 
ATOM     34  C   UNL A   1      39.487 -21.869 -37.318  0.00  0.00    +0.049 A 
ATOM     35  N   UNL A   1      40.594 -21.880 -38.115  0.00  0.00    -0.250 N 
ATOM     36  N   UNL A   1      41.565 -22.650 -37.595  0.00  0.00    -0.065 NA
ATOM     37  N   UNL A   1      41.094 -23.182 -36.476  0.00  0.00    -0.135 NA
BRANCH  35  38
ATOM     38  C   UNL A   1      40.739 -21.323 -39.444  0.00  0.00    +0.059 C 
BRANCH  38  39
ATOM     39  C   UNL A   1      41.233 -19.875 -39.387  0.00  0.00    +0.029 C 
BRANCH  39  40
ATOM     40  N   UNL A   1      41.984 -19.602 -38.144  0.00  0.00    -0.341 N 
ATOM     41  H   UNL A   1      41.751 -19.973 -37.262  0.00  0.00    +0.000 HD
BRANCH  40  42
ATOM     42  C   UNL A   1      43.091 -18.728 -38.385  0.00  0.00    +0.041 A 
ATOM     43  C   UNL A   1      42.921 -17.327 -38.340  0.00  0.00    -0.005 A 
ATOM     44  C   UNL A   1      44.069 -16.533 -38.402  0.00  0.00    +0.047 A 
ATOM     45  N   UNL A   1      45.317 -17.041 -38.532  0.00  0.00    -0.251 NA
ATOM     46  C   UNL A   1      45.475 -18.369 -38.604  0.00  0.00    +0.073 A 
ATOM     47  C   UNL A   1      46.764 -18.869 -38.747  0.00  0.00    -0.036 A 
ATOM     48  C   UNL A   1      47.020 -20.240 -38.837  0.00  0.00    -0.060 A 
ATOM     49  C   UNL A   1      45.965 -21.138 -38.790  0.00  0.00    -0.061 A 
ATOM     50  C   UNL A   1      44.664 -20.657 -38.644  0.00  0.00    -0.051 A 
ATOM     51  C   UNL A   1      44.397 -19.271 -38.536  0.00  0.00    +0.021 A 
ATOM     52  C   UNL A   1      44.000 -15.027 -38.368  0.00  0.00    -0.010 C 
ATOM     53  C   UNL A   1      42.706 -14.499 -37.760  0.00  0.00    -0.047 C 
ATOM     54  C   UNL A   1      41.519 -15.188 -38.411  0.00  0.00    -0.049 C 
ATOM     55  C   UNL A   1      41.563 -16.692 -38.147  0.00  0.00    -0.024 C 
ENDBRANCH  40  42
ENDBRANCH  39  40
ENDBRANCH  38  39
ENDBRANCH  35  38
ENDBRANCH  32  33
ENDBRANCH  31  32
ENDBRANCH  30  31
ENDBRANCH  29  30
ENDBRANCH   1  29
TORSDOF 14
ENDMDL
MODEL 7
REMARK VINA RESULT:    -6.770      1.992      6.574
REMARK INTER + INTRA:         -18.698
REMARK INTER:                 -13.069
REMARK INTRA:                  -5.629
REMARK UNBOUND:                -6.783
REMARK  Name = cpd169.pdb
REMARK  14 active torsions:
REMARK  status: ('A' for Active; 'I' for Inactive)
REMARK    1  A    between atoms: N_1  and  C_2
REMARK    2  A    between atoms: C_8  and  C_9
REMARK    3  A    between atoms: N_15  and  C_16
REMARK    4  A    between atoms: C_16  and  C_17
REMARK    5  A    between atoms: C_17  and  C_18
REMARK    6  A    between atoms: C_18  and  C_19
REMARK    7  A    between atoms: C_19  and  C_20
REMARK    8  A    between atoms: C_20  and  C_21
REMARK    9  A    between atoms: C_21  and  C_22
REMARK   10  A    between atoms: N_24  and  C_25
REMARK   11  A    between atoms: C_25  and  C_26
REMARK   12  A    between atoms: C_26  and  N_27
REMARK   13  A    between atoms: N_27  and  C_28
REMARK   14  A    between atoms: C_46  and  N_47
REMARK                            x       y       z     vdW  Elec       q    Type
REMARK                         _______ _______ _______ _____ _____    ______ ____
ROOT
ATOM      1  C   UNL A   1      42.595 -21.112 -38.268  0.00  0.00    -0.035 C 
ENDROOT
BRANCH   1   2
ATOM      2  C   UNL A   1      42.389 -20.340 -39.572  0.00  0.00    +0.024 C 
BRANCH   2  10
ATOM      3  C   UNL A   1      46.963 -16.310 -40.965  0.00  0.00    +0.025 A 
ATOM      4  C   UNL A   1      46.499 -15.264 -40.189  0.00  0.00    -0.040 A 
ATOM      5  C   UNL A   1      45.301 -15.388 -39.481  0.00  0.00    -0.052 A 
ATOM      6  C   UNL A   1      44.533 -16.582 -39.477  0.00  0.00    -0.007 A 
ATOM      7  C   UNL A   1      45.033 -17.669 -40.211  0.00  0.00    +0.009 A 
ATOM      8  C   UNL A   1      46.254 -17.510 -40.926  0.00  0.00    -0.031 A 
ATOM      9  C   UNL A   1      44.315 -18.890 -40.210  0.00  0.00    +0.057 A 
ATOM     10  N   UNL A   1      43.132 -19.028 -39.527  0.00  0.00    -0.339 N 
ATOM     11  C   UNL A   1      42.608 -17.974 -38.811  0.00  0.00    +0.052 A 
ATOM     12  C   UNL A   1      41.388 -18.081 -38.093  0.00  0.00    -0.017 A 
ATOM     13  C   UNL A   1      40.829 -17.023 -37.374  0.00  0.00    +0.027 A 
ATOM     14  C   UNL A   1      41.550 -15.848 -37.282  0.00  0.00    -0.040 A 
ATOM     15  C   UNL A   1      42.748 -15.698 -37.981  0.00  0.00    -0.050 A 
ATOM     16  C   UNL A   1      43.308 -16.738 -38.765  0.00  0.00    +0.006 A 
BRANCH   9  17
ATOM     17  C   UNL A   1      44.816 -20.065 -40.946  0.00  0.00    -0.001 A 
ATOM     18  C   UNL A   1      44.431 -20.298 -42.278  0.00  0.00    -0.053 A 
ATOM     19  C   UNL A   1      44.893 -21.421 -42.968  0.00  0.00    -0.061 A 
ATOM     20  C   UNL A   1      45.742 -22.327 -42.336  0.00  0.00    -0.062 A 
ATOM     21  C   UNL A   1      46.118 -22.123 -41.011  0.00  0.00    -0.061 A 
ATOM     22  C   UNL A   1      45.652 -21.006 -40.315  0.00  0.00    -0.053 A 
ENDBRANCH   9  17
BRANCH   3  23
ATOM     23  N   UNL A   1      48.221 -16.249 -41.561  0.00  0.00    -0.358 N 
ATOM     24  H   UNL A   1      48.528 -16.984 -42.139  0.00  0.00    +0.000 HD
ATOM     25  H   UNL A   1      48.803 -15.471 -41.404  0.00  0.00    +0.000 HD
ENDBRANCH   3  23
BRANCH  13  26
ATOM     26  N   UNL A   1      39.708 -17.227 -36.571  0.00  0.00    -0.358 N 
ATOM     27  H   UNL A   1      38.820 -17.330 -36.982  0.00  0.00    +0.000 HD
ATOM     28  H   UNL A   1      39.806 -17.270 -35.592  0.00  0.00    +0.000 HD
ENDBRANCH  13  26
ENDBRANCH   2  10
ENDBRANCH   1   2
BRANCH   1  29
ATOM     29  C   UNL A   1      41.644 -22.307 -38.144  0.00  0.00    -0.051 C 
BRANCH  29  30
ATOM     30  C   UNL A   1      40.254 -21.996 -38.700  0.00  0.00    -0.053 C 
BRANCH  30  31
ATOM     31  C   UNL A   1      39.241 -21.697 -37.595  0.00  0.00    -0.048 C 
BRANCH  31  32
ATOM     32  C   UNL A   1      39.306 -22.772 -36.509  0.00  0.00    -0.007 C 
BRANCH  32  33
ATOM     33  C   UNL A   1      39.942 -22.292 -35.261  0.00  0.00    +0.083 A 
ATOM     34  C   UNL A   1      40.231 -21.011 -34.844  0.00  0.00    +0.049 A 
ATOM     35  N   UNL A   1      40.937 -21.197 -33.691  0.00  0.00    -0.250 N 
ATOM     36  N   UNL A   1      41.030 -22.501 -33.380  0.00  0.00    -0.065 NA
ATOM     37  N   UNL A   1      40.425 -23.185 -34.340  0.00  0.00    -0.135 NA
BRANCH  35  38
ATOM     38  C   UNL A   1      41.677 -20.211 -32.931  0.00  0.00    +0.059 C 
BRANCH  38  39
ATOM     39  C   UNL A   1      43.028 -19.909 -33.584  0.00  0.00    +0.029 C 
BRANCH  39  40
ATOM     40  N   UNL A   1      42.868 -19.209 -34.876  0.00  0.00    -0.341 N 
ATOM     41  H   UNL A   1      42.176 -19.426 -35.543  0.00  0.00    +0.000 HD
BRANCH  40  42
ATOM     42  C   UNL A   1      43.845 -18.176 -35.034  0.00  0.00    +0.041 A 
ATOM     43  C   UNL A   1      45.023 -18.413 -35.777  0.00  0.00    -0.005 A 
ATOM     44  C   UNL A   1      45.847 -17.319 -36.049  0.00  0.00    +0.047 A 
ATOM     45  N   UNL A   1      45.586 -16.064 -35.611  0.00  0.00    -0.251 NA
ATOM     46  C   UNL A   1      44.484 -15.846 -34.881  0.00  0.00    +0.073 A 
ATOM     47  C   UNL A   1      44.240 -14.554 -34.433  0.00  0.00    -0.036 A 
ATOM     48  C   UNL A   1      43.120 -14.239 -33.660  0.00  0.00    -0.060 A 
ATOM     49  C   UNL A   1      42.221 -15.237 -33.318  0.00  0.00    -0.061 A 
ATOM     50  C   UNL A   1      42.446 -16.540 -33.760  0.00  0.00    -0.051 A 
ATOM     51  C   UNL A   1      43.570 -16.865 -34.556  0.00  0.00    +0.021 A 
ATOM     52  C   UNL A   1      47.129 -17.461 -36.830  0.00  0.00    -0.010 C 
ATOM     53  C   UNL A   1      47.171 -18.715 -37.695  0.00  0.00    -0.047 C 
ATOM     54  C   UNL A   1      46.782 -19.923 -36.860  0.00  0.00    -0.049 C 
ATOM     55  C   UNL A   1      45.353 -19.776 -36.340  0.00  0.00    -0.024 C 
ENDBRANCH  40  42
ENDBRANCH  39  40
ENDBRANCH  38  39
ENDBRANCH  35  38
ENDBRANCH  32  33
ENDBRANCH  31  32
ENDBRANCH  30  31
ENDBRANCH  29  30
ENDBRANCH   1  29
TORSDOF 14
ENDMDL
MODEL 8
REMARK VINA RESULT:    -6.742      2.012      6.629
REMARK INTER + INTRA:         -18.648
REMARK INTER:                 -12.890
REMARK INTRA:                  -5.758
REMARK UNBOUND:                -6.783
REMARK  Name = cpd169.pdb
REMARK  14 active torsions:
REMARK  status: ('A' for Active; 'I' for Inactive)
REMARK    1  A    between atoms: N_1  and  C_2
REMARK    2  A    between atoms: C_8  and  C_9
REMARK    3  A    between atoms: N_15  and  C_16
REMARK    4  A    between atoms: C_16  and  C_17
REMARK    5  A    between atoms: C_17  and  C_18
REMARK    6  A    between atoms: C_18  and  C_19
REMARK    7  A    between atoms: C_19  and  C_20
REMARK    8  A    between atoms: C_20  and  C_21
REMARK    9  A    between atoms: C_21  and  C_22
REMARK   10  A    between atoms: N_24  and  C_25
REMARK   11  A    between atoms: C_25  and  C_26
REMARK   12  A    between atoms: C_26  and  N_27
REMARK   13  A    between atoms: N_27  and  C_28
REMARK   14  A    between atoms: C_46  and  N_47
REMARK                            x       y       z     vdW  Elec       q    Type
REMARK                         _______ _______ _______ _____ _____    ______ ____
ROOT
ATOM      1  C   UNL A   1      42.546 -21.164 -38.373  0.00  0.00    -0.035 C 
ENDROOT
BRANCH   1   2
ATOM      2  C   UNL A   1      42.324 -20.393 -39.676  0.00  0.00    +0.024 C 
BRANCH   2  10
ATOM      3  C   UNL A   1      46.986 -16.441 -40.994  0.00  0.00    +0.025 A 
ATOM      4  C   UNL A   1      46.492 -15.364 -40.280  0.00  0.00    -0.040 A 
ATOM      5  C   UNL A   1      45.261 -15.455 -39.626  0.00  0.00    -0.052 A 
ATOM      6  C   UNL A   1      44.486 -16.645 -39.616  0.00  0.00    -0.007 A 
ATOM      7  C   UNL A   1      45.013 -17.761 -40.284  0.00  0.00    +0.009 A 
ATOM      8  C   UNL A   1      46.268 -17.634 -40.945  0.00  0.00    -0.031 A 
ATOM      9  C   UNL A   1      44.288 -18.977 -40.273  0.00  0.00    +0.057 A 
ATOM     10  N   UNL A   1      43.073 -19.084 -39.643  0.00  0.00    -0.339 N 
ATOM     11  C   UNL A   1      42.523 -18.002 -38.992  0.00  0.00    +0.052 A 
ATOM     12  C   UNL A   1      41.268 -18.076 -38.330  0.00  0.00    -0.017 A 
ATOM     13  C   UNL A   1      40.683 -16.990 -37.677  0.00  0.00    +0.027 A 
ATOM     14  C   UNL A   1      41.407 -15.816 -37.595  0.00  0.00    -0.040 A 
ATOM     15  C   UNL A   1      42.638 -15.698 -38.240  0.00  0.00    -0.050 A 
ATOM     16  C   UNL A   1      43.227 -16.768 -38.957  0.00  0.00    +0.006 A 
BRANCH   9  17
ATOM     17  C   UNL A   1      44.816 -20.182 -40.940  0.00  0.00    -0.001 A 
ATOM     18  C   UNL A   1      44.453 -20.488 -42.264  0.00  0.00    -0.053 A 
ATOM     19  C   UNL A   1      44.940 -21.638 -42.889  0.00  0.00    -0.061 A 
ATOM     20  C   UNL A   1      45.792 -22.498 -42.200  0.00  0.00    -0.062 A 
ATOM     21  C   UNL A   1      46.146 -22.221 -40.882  0.00  0.00    -0.061 A 
ATOM     22  C   UNL A   1      45.655 -21.077 -40.250  0.00  0.00    -0.053 A 
ENDBRANCH   9  17
BRANCH   3  23
ATOM     23  N   UNL A   1      48.271 -16.408 -41.531  0.00  0.00    -0.358 N 
ATOM     24  H   UNL A   1      48.913 -17.123 -41.318  0.00  0.00    +0.000 HD
ATOM     25  H   UNL A   1      48.538 -15.669 -42.125  0.00  0.00    +0.000 HD
ENDBRANCH   3  23
BRANCH  13  26
ATOM     26  N   UNL A   1      39.524 -17.159 -36.922  0.00  0.00    -0.358 N 
ATOM     27  H   UNL A   1      39.500 -17.828 -36.201  0.00  0.00    +0.000 HD
ATOM     28  H   UNL A   1      38.730 -16.609 -37.111  0.00  0.00    +0.000 HD
ENDBRANCH  13  26
ENDBRANCH   2  10
ENDBRANCH   1   2
BRANCH   1  29
ATOM     29  C   UNL A   1      41.473 -22.233 -38.142  0.00  0.00    -0.051 C 
BRANCH  29  30
ATOM     30  C   UNL A   1      40.091 -21.772 -38.605  0.00  0.00    -0.053 C 
BRANCH  30  31
ATOM     31  C   UNL A   1      39.137 -21.529 -37.436  0.00  0.00    -0.048 C 
BRANCH  31  32
ATOM     32  C   UNL A   1      39.300 -22.623 -36.381  0.00  0.00    -0.007 C 
BRANCH  32  33
ATOM     33  C   UNL A   1      40.017 -22.157 -35.172  0.00  0.00    +0.083 A 
ATOM     34  C   UNL A   1      40.355 -20.882 -34.774  0.00  0.00    +0.049 A 
ATOM     35  N   UNL A   1      41.122 -21.082 -33.664  0.00  0.00    -0.250 N 
ATOM     36  N   UNL A   1      41.207 -22.388 -33.357  0.00  0.00    -0.065 NA
ATOM     37  N   UNL A   1      40.534 -23.059 -34.280  0.00  0.00    -0.135 NA
BRANCH  35  38
ATOM     38  C   UNL A   1      41.925 -20.111 -32.949  0.00  0.00    +0.059 C 
BRANCH  38  39
ATOM     39  C   UNL A   1      43.224 -19.807 -33.699  0.00  0.00    +0.029 C 
BRANCH  39  40
ATOM     40  N   UNL A   1      42.966 -19.351 -35.080  0.00  0.00    -0.341 N 
ATOM     41  H   UNL A   1      42.309 -19.763 -35.687  0.00  0.00    +0.000 HD
BRANCH  40  42
ATOM     42  C   UNL A   1      43.792 -18.234 -35.424  0.00  0.00    +0.041 A 
ATOM     43  C   UNL A   1      43.485 -16.942 -34.943  0.00  0.00    -0.005 A 
ATOM     44  C   UNL A   1      44.425 -15.931 -35.161  0.00  0.00    +0.047 A 
ATOM     45  N   UNL A   1      45.586 -16.127 -35.829  0.00  0.00    -0.251 NA
ATOM     46  C   UNL A   1      45.862 -17.346 -36.311  0.00  0.00    +0.073 A 
ATOM     47  C   UNL A   1      47.053 -17.523 -37.003  0.00  0.00    -0.036 A 
ATOM     48  C   UNL A   1      47.417 -18.758 -37.546  0.00  0.00    -0.060 A 
ATOM     49  C   UNL A   1      46.570 -19.846 -37.401  0.00  0.00    -0.061 A 
ATOM     50  C   UNL A   1      45.371 -19.690 -36.707  0.00  0.00    -0.051 A 
ATOM     51  C   UNL A   1      45.001 -18.446 -36.141  0.00  0.00    +0.021 A 
ATOM     52  C   UNL A   1      44.196 -14.516 -34.693  0.00  0.00    -0.010 C 
ATOM     53  C   UNL A   1      43.169 -14.412 -33.572  0.00  0.00    -0.047 C 
ATOM     54  C   UNL A   1      41.915 -15.179 -33.956  0.00  0.00    -0.049 C 
ATOM     55  C   UNL A   1      42.233 -16.661 -34.146  0.00  0.00    -0.024 C 
ENDBRANCH  40  42
ENDBRANCH  39  40
ENDBRANCH  38  39
ENDBRANCH  35  38
ENDBRANCH  32  33
ENDBRANCH  31  32
ENDBRANCH  30  31
ENDBRANCH  29  30
ENDBRANCH   1  29
TORSDOF 14
ENDMDL
MODEL 9
REMARK VINA RESULT:    -6.686      2.009      5.205
REMARK INTER + INTRA:         -18.550
REMARK INTER:                 -13.808
REMARK INTRA:                  -4.742
REMARK UNBOUND:                -6.783
REMARK  Name = cpd169.pdb
REMARK  14 active torsions:
REMARK  status: ('A' for Active; 'I' for Inactive)
REMARK    1  A    between atoms: N_1  and  C_2
REMARK    2  A    between atoms: C_8  and  C_9
REMARK    3  A    between atoms: N_15  and  C_16
REMARK    4  A    between atoms: C_16  and  C_17
REMARK    5  A    between atoms: C_17  and  C_18
REMARK    6  A    between atoms: C_18  and  C_19
REMARK    7  A    between atoms: C_19  and  C_20
REMARK    8  A    between atoms: C_20  and  C_21
REMARK    9  A    between atoms: C_21  and  C_22
REMARK   10  A    between atoms: N_24  and  C_25
REMARK   11  A    between atoms: C_25  and  C_26
REMARK   12  A    between atoms: C_26  and  N_27
REMARK   13  A    between atoms: N_27  and  C_28
REMARK   14  A    between atoms: C_46  and  N_47
REMARK                            x       y       z     vdW  Elec       q    Type
REMARK                         _______ _______ _______ _____ _____    ______ ____
ROOT
ATOM      1  C   UNL A   1      45.592 -17.515 -38.955  0.00  0.00    -0.035 C 
ENDROOT
BRANCH   1   2
ATOM      2  C   UNL A   1      44.756 -17.884 -40.182  0.00  0.00    +0.024 C 
BRANCH   2  10
ATOM      3  C   UNL A   1      40.527 -22.429 -39.440  0.00  0.00    +0.025 A 
ATOM      4  C   UNL A   1      39.548 -21.645 -38.859  0.00  0.00    -0.040 A 
ATOM      5  C   UNL A   1      39.785 -20.293 -38.602  0.00  0.00    -0.052 A 
ATOM      6  C   UNL A   1      40.999 -19.647 -38.958  0.00  0.00    -0.007 A 
ATOM      7  C   UNL A   1      41.972 -20.423 -39.608  0.00  0.00    +0.009 A 
ATOM      8  C   UNL A   1      41.702 -21.799 -39.851  0.00  0.00    -0.031 A 
ATOM      9  C   UNL A   1      43.185 -19.812 -40.009  0.00  0.00    +0.057 A 
ATOM     10  N   UNL A   1      43.441 -18.487 -39.757  0.00  0.00    -0.339 N 
ATOM     11  C   UNL A   1      42.511 -17.704 -39.108  0.00  0.00    +0.052 A 
ATOM     12  C   UNL A   1      42.741 -16.331 -38.832  0.00  0.00    -0.017 A 
ATOM     13  C   UNL A   1      41.823 -15.521 -38.161  0.00  0.00    +0.027 A 
ATOM     14  C   UNL A   1      40.594 -16.065 -37.838  0.00  0.00    -0.040 A 
ATOM     15  C   UNL A   1      40.332 -17.413 -38.082  0.00  0.00    -0.050 A 
ATOM     16  C   UNL A   1      41.270 -18.270 -38.709  0.00  0.00    +0.006 A 
BRANCH   9  17
ATOM     17  C   UNL A   1      44.225 -20.583 -40.716  0.00  0.00    -0.001 A 
ATOM     18  C   UNL A   1      45.222 -21.270 -40.002  0.00  0.00    -0.053 A 
ATOM     19  C   UNL A   1      46.216 -21.985 -40.674  0.00  0.00    -0.061 A 
ATOM     20  C   UNL A   1      46.229 -22.020 -42.067  0.00  0.00    -0.062 A 
ATOM     21  C   UNL A   1      45.261 -21.328 -42.790  0.00  0.00    -0.061 A 
ATOM     22  C   UNL A   1      44.270 -20.606 -42.123  0.00  0.00    -0.053 A 
ENDBRANCH   9  17
BRANCH   3  23
ATOM     23  N   UNL A   1      40.253 -23.739 -39.827  0.00  0.00    -0.358 N 
ATOM     24  H   UNL A   1      39.457 -23.935 -40.372  0.00  0.00    +0.000 HD
ATOM     25  H   UNL A   1      40.855 -24.469 -39.555  0.00  0.00    +0.000 HD
ENDBRANCH   3  23
BRANCH  13  26
ATOM     26  N   UNL A   1      42.039 -14.149 -38.048  0.00  0.00    -0.358 N 
ATOM     27  H   UNL A   1      41.443 -13.517 -38.512  0.00  0.00    +0.000 HD
ATOM     28  H   UNL A   1      42.787 -13.812 -37.505  0.00  0.00    +0.000 HD
ENDBRANCH  13  26
ENDBRANCH   2  10
ENDBRANCH   1   2
BRANCH   1  29
ATOM     29  C   UNL A   1      46.985 -18.152 -38.989  0.00  0.00    -0.051 C 
BRANCH  29  30
ATOM     30  C   UNL A   1      47.251 -19.020 -37.758  0.00  0.00    -0.053 C 
BRANCH  30  31
ATOM     31  C   UNL A   1      45.961 -19.537 -37.122  0.00  0.00    -0.048 C 
BRANCH  31  32
ATOM     32  C   UNL A   1      46.184 -19.847 -35.642  0.00  0.00    -0.007 C 
BRANCH  32  33
ATOM     33  C   UNL A   1      45.183 -19.205 -34.760  0.00  0.00    +0.083 A 
ATOM     34  C   UNL A   1      44.189 -18.297 -35.055  0.00  0.00    +0.049 A 
ATOM     35  N   UNL A   1      43.685 -17.961 -33.833  0.00  0.00    -0.250 N 
ATOM     36  N   UNL A   1      44.283 -18.655 -32.849  0.00  0.00    -0.065 NA
ATOM     37  N   UNL A   1      45.209 -19.421 -33.407  0.00  0.00    -0.135 NA
BRANCH  35  38
ATOM     38  C   UNL A   1      42.763 -16.890 -33.514  0.00  0.00    +0.059 C 
BRANCH  38  39
ATOM     39  C   UNL A   1      41.378 -17.438 -33.162  0.00  0.00    +0.029 C 
BRANCH  39  40
ATOM     40  N   UNL A   1      40.587 -17.745 -34.372  0.00  0.00    -0.341 N 
ATOM     41  H   UNL A   1      40.575 -17.187 -35.183  0.00  0.00    +0.000 HD
BRANCH  40  42
ATOM     42  C   UNL A   1      39.840 -18.955 -34.214  0.00  0.00    +0.041 A 
ATOM     43  C   UNL A   1      38.566 -18.934 -33.605  0.00  0.00    -0.005 A 
ATOM     44  C   UNL A   1      37.811 -20.110 -33.644  0.00  0.00    +0.047 A 
ATOM     45  N   UNL A   1      38.255 -21.260 -34.205  0.00  0.00    -0.251 NA
ATOM     46  C   UNL A   1      39.476 -21.286 -34.756  0.00  0.00    +0.073 A 
ATOM     47  C   UNL A   1      39.917 -22.478 -35.317  0.00  0.00    -0.036 A 
ATOM     48  C   UNL A   1      41.178 -22.597 -35.905  0.00  0.00    -0.060 A 
ATOM     49  C   UNL A   1      42.028 -21.502 -35.932  0.00  0.00    -0.061 A 
ATOM     50  C   UNL A   1      41.604 -20.295 -35.376  0.00  0.00    -0.051 A 
ATOM     51  C   UNL A   1      40.322 -20.161 -34.792  0.00  0.00    +0.021 A 
ATOM     52  C   UNL A   1      36.441 -20.200 -33.022  0.00  0.00    -0.010 C 
ATOM     53  C   UNL A   1      35.777 -18.841 -32.833  0.00  0.00    -0.047 C 
ATOM     54  C   UNL A   1      36.743 -17.893 -32.143  0.00  0.00    -0.049 C 
ATOM     55  C   UNL A   1      37.985 -17.675 -33.004  0.00  0.00    -0.024 C 
ENDBRANCH  40  42
ENDBRANCH  39  40
ENDBRANCH  38  39
ENDBRANCH  35  38
ENDBRANCH  32  33
ENDBRANCH  31  32
ENDBRANCH  30  31
ENDBRANCH  29  30
ENDBRANCH   1  29
TORSDOF 14
ENDMDL
MODEL 10
REMARK VINA RESULT:    -6.681      2.025      5.762
REMARK INTER + INTRA:         -18.541
REMARK INTER:                 -11.669
REMARK INTRA:                  -6.872
REMARK UNBOUND:                -6.783
REMARK  Name = cpd169.pdb
REMARK  14 active torsions:
REMARK  status: ('A' for Active; 'I' for Inactive)
REMARK    1  A    between atoms: N_1  and  C_2
REMARK    2  A    between atoms: C_8  and  C_9
REMARK    3  A    between atoms: N_15  and  C_16
REMARK    4  A    between atoms: C_16  and  C_17
REMARK    5  A    between atoms: C_17  and  C_18
REMARK    6  A    between atoms: C_18  and  C_19
REMARK    7  A    between atoms: C_19  and  C_20
REMARK    8  A    between atoms: C_20  and  C_21
REMARK    9  A    between atoms: C_21  and  C_22
REMARK   10  A    between atoms: N_24  and  C_25
REMARK   11  A    between atoms: C_25  and  C_26
REMARK   12  A    between atoms: C_26  and  N_27
REMARK   13  A    between atoms: N_27  and  C_28
REMARK   14  A    between atoms: C_46  and  N_47
REMARK                            x       y       z     vdW  Elec       q    Type
REMARK                         _______ _______ _______ _____ _____    ______ ____
ROOT
ATOM      1  C   UNL A   1      42.319 -20.575 -38.884  0.00  0.00    -0.035 C 
ENDROOT
BRANCH   1   2
ATOM      2  C   UNL A   1      43.702 -20.991 -38.379  0.00  0.00    +0.024 C 
BRANCH   2  10
ATOM      3  C   UNL A   1      47.415 -16.110 -39.594  0.00  0.00    +0.025 A 
ATOM      4  C   UNL A   1      47.550 -15.680 -38.287  0.00  0.00    -0.040 A 
ATOM      5  C   UNL A   1      46.873 -16.334 -37.255  0.00  0.00    -0.052 A 
ATOM      6  C   UNL A   1      46.065 -17.481 -37.475  0.00  0.00    -0.007 A 
ATOM      7  C   UNL A   1      45.977 -17.961 -38.792  0.00  0.00    +0.009 A 
ATOM      8  C   UNL A   1      46.674 -17.269 -39.822  0.00  0.00    -0.031 A 
ATOM      9  C   UNL A   1      45.207 -19.121 -39.052  0.00  0.00    +0.057 A 
ATOM     10  N   UNL A   1      44.528 -19.773 -38.052  0.00  0.00    -0.339 N 
ATOM     11  C   UNL A   1      44.584 -19.316 -36.753  0.00  0.00    +0.052 A 
ATOM     12  C   UNL A   1      43.895 -19.965 -35.695  0.00  0.00    -0.017 A 
ATOM     13  C   UNL A   1      43.922 -19.514 -34.374  0.00  0.00    +0.027 A 
ATOM     14  C   UNL A   1      44.736 -18.438 -34.074  0.00  0.00    -0.040 A 
ATOM     15  C   UNL A   1      45.421 -17.766 -35.086  0.00  0.00    -0.050 A 
ATOM     16  C   UNL A   1      45.364 -18.170 -36.443  0.00  0.00    +0.006 A 
BRANCH   9  17
ATOM     17  C   UNL A   1      45.107 -19.674 -40.415  0.00  0.00    -0.001 A 
ATOM     18  C   UNL A   1      45.846 -20.812 -40.786  0.00  0.00    -0.053 A 
ATOM     19  C   UNL A   1      45.763 -21.325 -42.082  0.00  0.00    -0.061 A 
ATOM     20  C   UNL A   1      44.944 -20.707 -43.025  0.00  0.00    -0.062 A 
ATOM     21  C   UNL A   1      44.221 -19.568 -42.681  0.00  0.00    -0.061 A 
ATOM     22  C   UNL A   1      44.307 -19.047 -41.389  0.00  0.00    -0.053 A 
ENDBRANCH   9  17
BRANCH   3  23
ATOM     23  N   UNL A   1      48.191 -15.553 -40.609  0.00  0.00    -0.358 N 
ATOM     24  H   UNL A   1      47.766 -15.253 -41.445  0.00  0.00    +0.000 HD
ATOM     25  H   UNL A   1      49.164 -15.461 -40.491  0.00  0.00    +0.000 HD
ENDBRANCH   3  23
BRANCH  13  26
ATOM     26  N   UNL A   1      43.350 -20.272 -33.355  0.00  0.00    -0.358 N 
ATOM     27  H   UNL A   1      43.396 -19.959 -32.423  0.00  0.00    +0.000 HD
ATOM     28  H   UNL A   1      42.898 -21.120 -33.568  0.00  0.00    +0.000 HD
ENDBRANCH  13  26
ENDBRANCH   2  10
ENDBRANCH   1   2
BRANCH   1  29
ATOM     29  C   UNL A   1      41.222 -20.822 -37.843  0.00  0.00    -0.051 C 
BRANCH  29  30
ATOM     30  C   UNL A   1      40.861 -22.303 -37.728  0.00  0.00    -0.053 C 
BRANCH  30  31
ATOM     31  C   UNL A   1      40.937 -22.810 -36.289  0.00  0.00    -0.048 C 
BRANCH  31  32
ATOM     32  C   UNL A   1      39.606 -22.580 -35.572  0.00  0.00    -0.007 C 
BRANCH  32  33
ATOM     33  C   UNL A   1      39.563 -21.296 -34.835  0.00  0.00    +0.083 A 
ATOM     34  C   UNL A   1      38.795 -20.172 -35.048  0.00  0.00    +0.049 A 
ATOM     35  N   UNL A   1      39.288 -19.268 -34.153  0.00  0.00    -0.250 N 
ATOM     36  N   UNL A   1      40.256 -19.810 -33.394  0.00  0.00    -0.065 NA
ATOM     37  N   UNL A   1      40.437 -21.056 -33.807  0.00  0.00    -0.135 NA
BRANCH  35  38
ATOM     38  C   UNL A   1      39.005 -17.851 -34.071  0.00  0.00    +0.059 C 
BRANCH  38  39
ATOM     39  C   UNL A   1      39.708 -17.080 -35.191  0.00  0.00    +0.029 C 
BRANCH  39  40
ATOM     40  N   UNL A   1      41.115 -17.501 -35.346  0.00  0.00    -0.341 N 
ATOM     41  H   UNL A   1      41.444 -18.414 -35.175  0.00  0.00    +0.000 HD
BRANCH  40  42
ATOM     42  C   UNL A   1      41.941 -16.415 -35.776  0.00  0.00    +0.041 A 
ATOM     43  C   UNL A   1      42.536 -15.550 -34.831  0.00  0.00    -0.005 A 
ATOM     44  C   UNL A   1      43.473 -14.626 -35.300  0.00  0.00    +0.047 A 
ATOM     45  N   UNL A   1      43.807 -14.504 -36.607  0.00  0.00    -0.251 NA
ATOM     46  C   UNL A   1      43.220 -15.305 -37.506  0.00  0.00    +0.073 A 
ATOM     47  C   UNL A   1      43.570 -15.157 -38.842  0.00  0.00    -0.036 A 
ATOM     48  C   UNL A   1      43.002 -15.944 -39.847  0.00  0.00    -0.060 A 
ATOM     49  C   UNL A   1      42.056 -16.901 -39.515  0.00  0.00    -0.061 A 
ATOM     50  C   UNL A   1      41.693 -17.067 -38.179  0.00  0.00    -0.051 A 
ATOM     51  C   UNL A   1      42.274 -16.285 -37.153  0.00  0.00    +0.021 A 
ATOM     52  C   UNL A   1      44.164 -13.653 -34.378  0.00  0.00    -0.010 C 
ATOM     53  C   UNL A   1      44.152 -14.096 -32.920  0.00  0.00    -0.047 C 
ATOM     54  C   UNL A   1      42.740 -14.482 -32.515  0.00  0.00    -0.049 C 
ATOM     55  C   UNL A   1      42.248 -15.661 -33.352  0.00  0.00    -0.024 C 
ENDBRANCH  40  42
ENDBRANCH  39  40
ENDBRANCH  38  39
ENDBRANCH  35  38
ENDBRANCH  32  33
ENDBRANCH  31  32
ENDBRANCH  30  31
ENDBRANCH  29  30
ENDBRANCH   1  29
TORSDOF 14
ENDMDL
MODEL 11
REMARK VINA RESULT:    -6.677      2.273      8.042
REMARK INTER + INTRA:         -18.534
REMARK INTER:                 -12.411
REMARK INTRA:                  -6.123
REMARK UNBOUND:                -6.783
REMARK  Name = cpd169.pdb
REMARK  14 active torsions:
REMARK  status: ('A' for Active; 'I' for Inactive)
REMARK    1  A    between atoms: N_1  and  C_2
REMARK    2  A    between atoms: C_8  and  C_9
REMARK    3  A    between atoms: N_15  and  C_16
REMARK    4  A    between atoms: C_16  and  C_17
REMARK    5  A    between atoms: C_17  and  C_18
REMARK    6  A    between atoms: C_18  and  C_19
REMARK    7  A    between atoms: C_19  and  C_20
REMARK    8  A    between atoms: C_20  and  C_21
REMARK    9  A    between atoms: C_21  and  C_22
REMARK   10  A    between atoms: N_24  and  C_25
REMARK   11  A    between atoms: C_25  and  C_26
REMARK   12  A    between atoms: C_26  and  N_27
REMARK   13  A    between atoms: N_27  and  C_28
REMARK   14  A    between atoms: C_46  and  N_47
REMARK                            x       y       z     vdW  Elec       q    Type
REMARK                         _______ _______ _______ _____ _____    ______ ____
ROOT
ATOM      1  C   UNL A   1      40.725 -17.554 -33.148  0.00  0.00    -0.035 C 
ENDROOT
BRANCH   1   2
ATOM      2  C   UNL A   1      40.738 -16.316 -34.048  0.00  0.00    +0.024 C 
BRANCH   2  10
ATOM      3  C   UNL A   1      46.071 -16.540 -37.303  0.00  0.00    +0.025 A 
ATOM      4  C   UNL A   1      45.513 -16.951 -38.500  0.00  0.00    -0.040 A 
ATOM      5  C   UNL A   1      44.142 -17.206 -38.589  0.00  0.00    -0.052 A 
ATOM      6  C   UNL A   1      43.255 -17.016 -37.496  0.00  0.00    -0.007 A 
ATOM      7  C   UNL A   1      43.806 -16.537 -36.297  0.00  0.00    +0.009 A 
ATOM      8  C   UNL A   1      45.207 -16.292 -36.237  0.00  0.00    -0.031 A 
ATOM      9  C   UNL A   1      42.953 -16.304 -35.191  0.00  0.00    +0.057 A 
ATOM     10  N   UNL A   1      41.605 -16.557 -35.257  0.00  0.00    -0.339 N 
ATOM     11  C   UNL A   1      41.038 -17.043 -36.416  0.00  0.00    +0.052 A 
ATOM     12  C   UNL A   1      39.649 -17.315 -36.519  0.00  0.00    -0.017 A 
ATOM     13  C   UNL A   1      39.053 -17.822 -37.676  0.00  0.00    +0.027 A 
ATOM     14  C   UNL A   1      39.844 -17.974 -38.799  0.00  0.00    -0.040 A 
ATOM     15  C   UNL A   1      41.215 -17.729 -38.736  0.00  0.00    -0.050 A 
ATOM     16  C   UNL A   1      41.853 -17.268 -37.557  0.00  0.00    +0.006 A 
BRANCH   9  17
ATOM     17  C   UNL A   1      43.485 -15.778 -33.921  0.00  0.00    -0.001 A 
ATOM     18  C   UNL A   1      44.081 -16.636 -32.980  0.00  0.00    -0.053 A 
ATOM     19  C   UNL A   1      44.569 -16.138 -31.769  0.00  0.00    -0.061 A 
ATOM     20  C   UNL A   1      44.464 -14.779 -31.482  0.00  0.00    -0.062 A 
ATOM     21  C   UNL A   1      43.858 -13.918 -32.393  0.00  0.00    -0.061 A 
ATOM     22  C   UNL A   1      43.362 -14.412 -33.601  0.00  0.00    -0.053 A 
ENDBRANCH   9  17
BRANCH   3  23
ATOM     23  N   UNL A   1      47.407 -16.150 -37.239  0.00  0.00    -0.358 N 
ATOM     24  H   UNL A   1      47.780 -15.553 -37.927  0.00  0.00    +0.000 HD
ATOM     25  H   UNL A   1      47.979 -16.472 -36.505  0.00  0.00    +0.000 HD
ENDBRANCH   3  23
BRANCH  13  26
ATOM     26  N   UNL A   1      37.667 -17.931 -37.768  0.00  0.00    -0.358 N 
ATOM     27  H   UNL A   1      37.094 -17.506 -37.091  0.00  0.00    +0.000 HD
ATOM     28  H   UNL A   1      37.262 -18.433 -38.512  0.00  0.00    +0.000 HD
ENDBRANCH  13  26
ENDBRANCH   2  10
ENDBRANCH   1   2
BRANCH   1  29
ATOM     29  C   UNL A   1      39.319 -17.884 -32.635  0.00  0.00    -0.051 C 
BRANCH  29  30
ATOM     30  C   UNL A   1      38.672 -19.023 -33.422  0.00  0.00    -0.053 C 
BRANCH  30  31
ATOM     31  C   UNL A   1      39.265 -20.386 -33.066  0.00  0.00    -0.048 C 
BRANCH  31  32
ATOM     32  C   UNL A   1      38.558 -21.494 -33.848  0.00  0.00    -0.007 C 
BRANCH  32  33
ATOM     33  C   UNL A   1      39.318 -21.932 -35.041  0.00  0.00    +0.083 A 
ATOM     34  C   UNL A   1      39.253 -21.498 -36.347  0.00  0.00    +0.049 A 
ATOM     35  N   UNL A   1      40.075 -22.357 -37.015  0.00  0.00    -0.250 N 
ATOM     36  N   UNL A   1      40.659 -23.229 -36.175  0.00  0.00    -0.065 NA
ATOM     37  N   UNL A   1      40.198 -22.980 -34.958  0.00  0.00    -0.135 NA
BRANCH  35  38
ATOM     38  C   UNL A   1      40.229 -22.510 -38.447  0.00  0.00    +0.059 C 
BRANCH  38  39
ATOM     39  C   UNL A   1      41.702 -22.438 -38.857  0.00  0.00    +0.029 C 
BRANCH  39  40
ATOM     40  N   UNL A   1      42.186 -21.043 -38.917  0.00  0.00    -0.341 N 
ATOM     41  H   UNL A   1      41.642 -20.279 -39.219  0.00  0.00    +0.000 HD
BRANCH  40  42
ATOM     42  C   UNL A   1      43.546 -20.943 -38.483  0.00  0.00    +0.041 A 
ATOM     43  C   UNL A   1      44.604 -21.095 -39.405  0.00  0.00    -0.005 A 
ATOM     44  C   UNL A   1      45.897 -20.807 -38.959  0.00  0.00    +0.047 A 
ATOM     45  N   UNL A   1      46.177 -20.424 -37.691  0.00  0.00    -0.251 NA
ATOM     46  C   UNL A   1      45.176 -20.309 -36.809  0.00  0.00    +0.073 A 
ATOM     47  C   UNL A   1      45.486 -19.924 -35.511  0.00  0.00    -0.036 A 
ATOM     48  C   UNL A   1      44.506 -19.787 -34.526  0.00  0.00    -0.060 A 
ATOM     49  C   UNL A   1      43.180 -20.045 -34.838  0.00  0.00    -0.061 A 
ATOM     50  C   UNL A   1      42.847 -20.429 -36.136  0.00  0.00    -0.051 A 
ATOM     51  C   UNL A   1      43.832 -20.556 -37.145  0.00  0.00    +0.021 A 
ATOM     52  C   UNL A   1      47.099 -20.941 -39.859  0.00  0.00    -0.010 C 
ATOM     53  C   UNL A   1      46.748 -20.900 -41.342  0.00  0.00    -0.047 C 
ATOM     54  C   UNL A   1      45.615 -21.872 -41.624  0.00  0.00    -0.049 C 
ATOM     55  C   UNL A   1      44.361 -21.471 -40.848  0.00  0.00    -0.024 C 
ENDBRANCH  40  42
ENDBRANCH  39  40
ENDBRANCH  38  39
ENDBRANCH  35  38
ENDBRANCH  32  33
ENDBRANCH  31  32
ENDBRANCH  30  31
ENDBRANCH  29  30
ENDBRANCH   1  29
TORSDOF 14
ENDMDL
MODEL 12
REMARK VINA RESULT:    -6.557      2.013      7.272
REMARK INTER + INTRA:         -18.323
REMARK INTER:                 -11.921
REMARK INTRA:                  -6.402
REMARK UNBOUND:                -6.783
REMARK  Name = cpd169.pdb
REMARK  14 active torsions:
REMARK  status: ('A' for Active; 'I' for Inactive)
REMARK    1  A    between atoms: N_1  and  C_2
REMARK    2  A    between atoms: C_8  and  C_9
REMARK    3  A    between atoms: N_15  and  C_16
REMARK    4  A    between atoms: C_16  and  C_17
REMARK    5  A    between atoms: C_17  and  C_18
REMARK    6  A    between atoms: C_18  and  C_19
REMARK    7  A    between atoms: C_19  and  C_20
REMARK    8  A    between atoms: C_20  and  C_21
REMARK    9  A    between atoms: C_21  and  C_22
REMARK   10  A    between atoms: N_24  and  C_25
REMARK   11  A    between atoms: C_25  and  C_26
REMARK   12  A    between atoms: C_26  and  N_27
REMARK   13  A    between atoms: N_27  and  C_28
REMARK   14  A    between atoms: C_46  and  N_47
REMARK                            x       y       z     vdW  Elec       q    Type
REMARK                         _______ _______ _______ _____ _____    ______ ____
ROOT
ATOM      1  C   UNL A   1      41.964 -19.620 -34.163  0.00  0.00    -0.035 C 
ENDROOT
BRANCH   1   2
ATOM      2  C   UNL A   1      42.901 -18.540 -33.618  0.00  0.00    +0.024 C 
BRANCH   2  10
ATOM      3  C   UNL A   1      43.210 -13.987 -37.892  0.00  0.00    +0.025 A 
ATOM      4  C   UNL A   1      44.415 -14.372 -38.451  0.00  0.00    -0.040 A 
ATOM      5  C   UNL A   1      45.118 -15.462 -37.933  0.00  0.00    -0.052 A 
ATOM      6  C   UNL A   1      44.625 -16.251 -36.860  0.00  0.00    -0.007 A 
ATOM      7  C   UNL A   1      43.372 -15.905 -36.331  0.00  0.00    +0.009 A 
ATOM      8  C   UNL A   1      42.683 -14.785 -36.877  0.00  0.00    -0.031 A 
ATOM      9  C   UNL A   1      42.829 -16.683 -35.280  0.00  0.00    +0.057 A 
ATOM     10  N   UNL A   1      43.508 -17.753 -34.752  0.00  0.00    -0.339 N 
ATOM     11  C   UNL A   1      44.747 -18.107 -35.241  0.00  0.00    +0.052 A 
ATOM     12  C   UNL A   1      45.477 -19.208 -34.719  0.00  0.00    -0.017 A 
ATOM     13  C   UNL A   1      46.740 -19.577 -35.185  0.00  0.00    +0.027 A 
ATOM     14  C   UNL A   1      47.257 -18.892 -36.269  0.00  0.00    -0.040 A 
ATOM     15  C   UNL A   1      46.576 -17.799 -36.803  0.00  0.00    -0.050 A 
ATOM     16  C   UNL A   1      45.319 -17.369 -36.311  0.00  0.00    +0.006 A 
BRANCH   9  17
ATOM     17  C   UNL A   1      41.504 -16.371 -34.712  0.00  0.00    -0.001 A 
ATOM     18  C   UNL A   1      40.327 -16.769 -35.370  0.00  0.00    -0.053 A 
ATOM     19  C   UNL A   1      39.073 -16.457 -34.839  0.00  0.00    -0.061 A 
ATOM     20  C   UNL A   1      38.979 -15.743 -33.647  0.00  0.00    -0.062 A 
ATOM     21  C   UNL A   1      40.134 -15.323 -32.992  0.00  0.00    -0.061 A 
ATOM     22  C   UNL A   1      41.389 -15.625 -33.523  0.00  0.00    -0.053 A 
ENDBRANCH   9  17
BRANCH   3  23
ATOM     23  N   UNL A   1      42.437 -12.992 -38.486  0.00  0.00    -0.358 N 
ATOM     24  H   UNL A   1      41.462 -13.104 -38.559  0.00  0.00    +0.000 HD
ATOM     25  H   UNL A   1      42.865 -12.176 -38.832  0.00  0.00    +0.000 HD
ENDBRANCH   3  23
BRANCH  13  26
ATOM     26  N   UNL A   1      47.344 -20.750 -34.738  0.00  0.00    -0.358 N 
ATOM     27  H   UNL A   1      48.205 -20.711 -34.263  0.00  0.00    +0.000 HD
ATOM     28  H   UNL A   1      46.909 -21.619 -34.897  0.00  0.00    +0.000 HD
ENDBRANCH  13  26
ENDBRANCH   2  10
ENDBRANCH   1   2
BRANCH   1  29
ATOM     29  C   UNL A   1      41.311 -20.440 -33.045  0.00  0.00    -0.051 C 
BRANCH  29  30
ATOM     30  C   UNL A   1      39.903 -19.943 -32.715  0.00  0.00    -0.053 C 
BRANCH  30  31
ATOM     31  C   UNL A   1      38.961 -20.027 -33.915  0.00  0.00    -0.048 C 
BRANCH  31  32
ATOM     32  C   UNL A   1      38.761 -21.484 -34.333  0.00  0.00    -0.007 C 
BRANCH  32  33
ATOM     33  C   UNL A   1      39.607 -21.875 -35.484  0.00  0.00    +0.083 A 
ATOM     34  C   UNL A   1      39.696 -21.333 -36.748  0.00  0.00    +0.049 A 
ATOM     35  N   UNL A   1      40.527 -22.190 -37.410  0.00  0.00    -0.250 N 
ATOM     36  N   UNL A   1      40.971 -23.165 -36.598  0.00  0.00    -0.065 NA
ATOM     37  N   UNL A   1      40.409 -22.984 -35.412  0.00  0.00    -0.135 NA
BRANCH  35  38
ATOM     38  C   UNL A   1      40.811 -22.236 -38.829  0.00  0.00    +0.059 C 
BRANCH  38  39
ATOM     39  C   UNL A   1      42.286 -21.943 -39.109  0.00  0.00    +0.029 C 
BRANCH  39  40
ATOM     40  N   UNL A   1      42.839 -20.957 -38.157  0.00  0.00    -0.341 N 
ATOM     41  H   UNL A   1      42.819 -21.059 -37.178  0.00  0.00    +0.000 HD
BRANCH  40  42
ATOM     42  C   UNL A   1      43.406 -19.835 -38.839  0.00  0.00    +0.041 A 
ATOM     43  C   UNL A   1      44.727 -19.892 -39.335  0.00  0.00    -0.005 A 
ATOM     44  C   UNL A   1      45.160 -18.839 -40.147  0.00  0.00    +0.047 A 
ATOM     45  N   UNL A   1      44.388 -17.768 -40.448  0.00  0.00    -0.251 NA
ATOM     46  C   UNL A   1      43.146 -17.701 -39.952  0.00  0.00    +0.073 A 
ATOM     47  C   UNL A   1      42.375 -16.588 -40.266  0.00  0.00    -0.036 A 
ATOM     48  C   UNL A   1      41.072 -16.432 -39.786  0.00  0.00    -0.060 A 
ATOM     49  C   UNL A   1      40.523 -17.407 -38.967  0.00  0.00    -0.061 A 
ATOM     50  C   UNL A   1      41.279 -18.533 -38.643  0.00  0.00    -0.051 A 
ATOM     51  C   UNL A   1      42.594 -18.706 -39.137  0.00  0.00    +0.021 A 
ATOM     52  C   UNL A   1      46.552 -18.798 -40.725  0.00  0.00    -0.010 C 
ATOM     53  C   UNL A   1      47.218 -20.168 -40.785  0.00  0.00    -0.047 C 
ATOM     54  C   UNL A   1      47.096 -20.854 -39.435  0.00  0.00    -0.049 C 
ATOM     55  C   UNL A   1      45.627 -21.078 -39.080  0.00  0.00    -0.024 C 
ENDBRANCH  40  42
ENDBRANCH  39  40
ENDBRANCH  38  39
ENDBRANCH  35  38
ENDBRANCH  32  33
ENDBRANCH  31  32
ENDBRANCH  30  31
ENDBRANCH  29  30
ENDBRANCH   1  29
TORSDOF 14
ENDMDL
MODEL 13
REMARK VINA RESULT:    -6.450      2.229      7.269
REMARK INTER + INTRA:         -18.135
REMARK INTER:                 -11.441
REMARK INTRA:                  -6.694
REMARK UNBOUND:                -6.783
REMARK  Name = cpd169.pdb
REMARK  14 active torsions:
REMARK  status: ('A' for Active; 'I' for Inactive)
REMARK    1  A    between atoms: N_1  and  C_2
REMARK    2  A    between atoms: C_8  and  C_9
REMARK    3  A    between atoms: N_15  and  C_16
REMARK    4  A    between atoms: C_16  and  C_17
REMARK    5  A    between atoms: C_17  and  C_18
REMARK    6  A    between atoms: C_18  and  C_19
REMARK    7  A    between atoms: C_19  and  C_20
REMARK    8  A    between atoms: C_20  and  C_21
REMARK    9  A    between atoms: C_21  and  C_22
REMARK   10  A    between atoms: N_24  and  C_25
REMARK   11  A    between atoms: C_25  and  C_26
REMARK   12  A    between atoms: C_26  and  N_27
REMARK   13  A    between atoms: N_27  and  C_28
REMARK   14  A    between atoms: C_46  and  N_47
REMARK                            x       y       z     vdW  Elec       q    Type
REMARK                         _______ _______ _______ _____ _____    ______ ____
ROOT
ATOM      1  C   UNL A   1      39.809 -16.451 -34.439  0.00  0.00    -0.035 C 
ENDROOT
BRANCH   1   2
ATOM      2  C   UNL A   1      38.957 -17.691 -34.715  0.00  0.00    +0.024 C 
BRANCH   2  10
ATOM      3  C   UNL A   1      41.292 -21.853 -38.756  0.00  0.00    +0.025 A 
ATOM      4  C   UNL A   1      40.957 -21.165 -39.908  0.00  0.00    -0.040 A 
ATOM      5  C   UNL A   1      40.255 -19.960 -39.832  0.00  0.00    -0.052 A 
ATOM      6  C   UNL A   1      39.896 -19.359 -38.596  0.00  0.00    -0.007 A 
ATOM      7  C   UNL A   1      40.291 -20.020 -37.422  0.00  0.00    +0.009 A 
ATOM      8  C   UNL A   1      41.001 -21.249 -37.533  0.00  0.00    -0.031 A 
ATOM      9  C   UNL A   1      39.981 -19.440 -36.168  0.00  0.00    +0.057 A 
ATOM     10  N   UNL A   1      39.285 -18.260 -36.073  0.00  0.00    -0.339 N 
ATOM     11  C   UNL A   1      38.871 -17.597 -37.207  0.00  0.00    +0.052 A 
ATOM     12  C   UNL A   1      38.150 -16.376 -37.146  0.00  0.00    -0.017 A 
ATOM     13  C   UNL A   1      37.705 -15.693 -38.280  0.00  0.00    +0.027 A 
ATOM     14  C   UNL A   1      38.070 -16.186 -39.518  0.00  0.00    -0.040 A 
ATOM     15  C   UNL A   1      38.768 -17.389 -39.622  0.00  0.00    -0.050 A 
ATOM     16  C   UNL A   1      39.181 -18.130 -38.487  0.00  0.00    +0.006 A 
BRANCH   9  17
ATOM     17  C   UNL A   1      40.399 -20.086 -34.910  0.00  0.00    -0.001 A 
ATOM     18  C   UNL A   1      41.728 -19.993 -34.459  0.00  0.00    -0.053 A 
ATOM     19  C   UNL A   1      42.125 -20.620 -33.276  0.00  0.00    -0.061 A 
ATOM     20  C   UNL A   1      41.203 -21.351 -32.531  0.00  0.00    -0.062 A 
ATOM     21  C   UNL A   1      39.888 -21.472 -32.973  0.00  0.00    -0.061 A 
ATOM     22  C   UNL A   1      39.488 -20.853 -34.158  0.00  0.00    -0.053 A 
ENDBRANCH   9  17
BRANCH   3  23
ATOM     23  N   UNL A   1      42.109 -22.980 -38.813  0.00  0.00    -0.358 N 
ATOM     24  H   UNL A   1      41.716 -23.865 -38.988  0.00  0.00    +0.000 HD
ATOM     25  H   UNL A   1      43.080 -22.891 -38.678  0.00  0.00    +0.000 HD
ENDBRANCH   3  23
BRANCH  13  26
ATOM     26  N   UNL A   1      37.133 -14.428 -38.165  0.00  0.00    -0.358 N 
ATOM     27  H   UNL A   1      37.457 -13.688 -38.727  0.00  0.00    +0.000 HD
ATOM     28  H   UNL A   1      36.404 -14.275 -37.521  0.00  0.00    +0.000 HD
ENDBRANCH  13  26
ENDBRANCH   2  10
ENDBRANCH   1   2
BRANCH   1  29
ATOM     29  C   UNL A   1      40.803 -16.671 -33.294  0.00  0.00    -0.051 C 
BRANCH  29  30
ATOM     30  C   UNL A   1      42.253 -16.506 -33.751  0.00  0.00    -0.053 C 
BRANCH  30  31
ATOM     31  C   UNL A   1      43.250 -17.052 -32.729  0.00  0.00    -0.048 C 
BRANCH  31  32
ATOM     32  C   UNL A   1      44.676 -16.661 -33.117  0.00  0.00    -0.007 C 
BRANCH  32  33
ATOM     33  C   UNL A   1      45.341 -17.676 -33.967  0.00  0.00    +0.083 A 
ATOM     34  C   UNL A   1      46.018 -17.534 -35.159  0.00  0.00    +0.049 A 
ATOM     35  N   UNL A   1      46.280 -18.818 -35.538  0.00  0.00    -0.250 N 
ATOM     36  N   UNL A   1      45.848 -19.697 -34.618  0.00  0.00    -0.065 NA
ATOM     37  N   UNL A   1      45.265 -19.007 -33.649  0.00  0.00    -0.135 NA
BRANCH  35  38
ATOM     38  C   UNL A   1      46.784 -19.285 -36.813  0.00  0.00    +0.059 C 
BRANCH  38  39
ATOM     39  C   UNL A   1      46.225 -20.667 -37.156  0.00  0.00    +0.029 C 
BRANCH  39  40
ATOM     40  N   UNL A   1      44.770 -20.623 -37.409  0.00  0.00    -0.341 N 
ATOM     41  H   UNL A   1      44.091 -21.020 -36.815  0.00  0.00    +0.000 HD
BRANCH  40  42
ATOM     42  C   UNL A   1      44.472 -19.931 -38.625  0.00  0.00    +0.041 A 
ATOM     43  C   UNL A   1      44.810 -20.499 -39.873  0.00  0.00    -0.005 A 
ATOM     44  C   UNL A   1      44.332 -19.864 -41.023  0.00  0.00    +0.047 A 
ATOM     45  N   UNL A   1      43.596 -18.728 -40.994  0.00  0.00    -0.251 NA
ATOM     46  C   UNL A   1      43.302 -18.174 -39.810  0.00  0.00    +0.073 A 
ATOM     47  C   UNL A   1      42.555 -17.002 -39.803  0.00  0.00    -0.036 A 
ATOM     48  C   UNL A   1      42.209 -16.353 -38.615  0.00  0.00    -0.060 A 
ATOM     49  C   UNL A   1      42.623 -16.879 -37.402  0.00  0.00    -0.061 A 
ATOM     50  C   UNL A   1      43.371 -18.056 -37.387  0.00  0.00    -0.051 A 
ATOM     51  C   UNL A   1      43.713 -18.728 -38.584  0.00  0.00    +0.021 A 
ATOM     52  C   UNL A   1      44.637 -20.384 -42.405  0.00  0.00    -0.010 C 
ATOM     53  C   UNL A   1      45.030 -21.857 -42.421  0.00  0.00    -0.047 C 
ATOM     54  C   UNL A   1      46.109 -22.107 -41.380  0.00  0.00    -0.049 C 
ATOM     55  C   UNL A   1      45.585 -21.791 -39.981  0.00  0.00    -0.024 C 
ENDBRANCH  40  42
ENDBRANCH  39  40
ENDBRANCH  38  39
ENDBRANCH  35  38
ENDBRANCH  32  33
ENDBRANCH  31  32
ENDBRANCH  30  31
ENDBRANCH  29  30
ENDBRANCH   1  29
TORSDOF 14
ENDMDL
MODEL 14
REMARK VINA RESULT:    -6.432      2.085      5.494
REMARK INTER + INTRA:         -18.104
REMARK INTER:                 -13.053
REMARK INTRA:                  -5.051
REMARK UNBOUND:                -6.783
REMARK  Name = cpd169.pdb
REMARK  14 active torsions:
REMARK  status: ('A' for Active; 'I' for Inactive)
REMARK    1  A    between atoms: N_1  and  C_2
REMARK    2  A    between atoms: C_8  and  C_9
REMARK    3  A    between atoms: N_15  and  C_16
REMARK    4  A    between atoms: C_16  and  C_17
REMARK    5  A    between atoms: C_17  and  C_18
REMARK    6  A    between atoms: C_18  and  C_19
REMARK    7  A    between atoms: C_19  and  C_20
REMARK    8  A    between atoms: C_20  and  C_21
REMARK    9  A    between atoms: C_21  and  C_22
REMARK   10  A    between atoms: N_24  and  C_25
REMARK   11  A    between atoms: C_25  and  C_26
REMARK   12  A    between atoms: C_26  and  N_27
REMARK   13  A    between atoms: N_27  and  C_28
REMARK   14  A    between atoms: C_46  and  N_47
REMARK                            x       y       z     vdW  Elec       q    Type
REMARK                         _______ _______ _______ _____ _____    ______ ____
ROOT
ATOM      1  C   UNL A   1      42.529 -16.278 -39.840  0.00  0.00    -0.035 C 
ENDROOT
BRANCH   1   2
ATOM      2  C   UNL A   1      43.402 -17.096 -38.886  0.00  0.00    +0.024 C 
BRANCH   2  10
ATOM      3  C   UNL A   1      47.580 -20.771 -41.737  0.00  0.00    +0.025 A 
ATOM      4  C   UNL A   1      46.730 -21.839 -41.961  0.00  0.00    -0.040 A 
ATOM      5  C   UNL A   1      45.411 -21.800 -41.502  0.00  0.00    -0.052 A 
ATOM      6  C   UNL A   1      44.864 -20.670 -40.838  0.00  0.00    -0.007 A 
ATOM      7  C   UNL A   1      45.704 -19.558 -40.665  0.00  0.00    +0.009 A 
ATOM      8  C   UNL A   1      47.044 -19.631 -41.140  0.00  0.00    -0.031 A 
ATOM      9  C   UNL A   1      45.190 -18.398 -40.036  0.00  0.00    +0.057 A 
ATOM     10  N   UNL A   1      43.900 -18.344 -39.571  0.00  0.00    -0.339 N 
ATOM     11  C   UNL A   1      43.057 -19.425 -39.712  0.00  0.00    +0.052 A 
ATOM     12  C   UNL A   1      41.717 -19.404 -39.243  0.00  0.00    -0.017 A 
ATOM     13  C   UNL A   1      40.849 -20.491 -39.359  0.00  0.00    +0.027 A 
ATOM     14  C   UNL A   1      41.293 -21.604 -40.048  0.00  0.00    -0.040 A 
ATOM     15  C   UNL A   1      42.606 -21.669 -40.515  0.00  0.00    -0.050 A 
ATOM     16  C   UNL A   1      43.523 -20.601 -40.359  0.00  0.00    +0.006 A 
BRANCH   9  17
ATOM     17  C   UNL A   1      46.029 -17.198 -39.857  0.00  0.00    -0.001 A 
ATOM     18  C   UNL A   1      46.602 -16.900 -38.608  0.00  0.00    -0.053 A 
ATOM     19  C   UNL A   1      47.382 -15.755 -38.436  0.00  0.00    -0.061 A 
ATOM     20  C   UNL A   1      47.596 -14.890 -39.507  0.00  0.00    -0.062 A 
ATOM     21  C   UNL A   1      47.020 -15.158 -40.746  0.00  0.00    -0.061 A 
ATOM     22  C   UNL A   1      46.233 -16.298 -40.921  0.00  0.00    -0.053 A 
ENDBRANCH   9  17
BRANCH   3  23
ATOM     23  N   UNL A   1      48.850 -20.742 -42.309  0.00  0.00    -0.358 N 
ATOM     24  H   UNL A   1      48.952 -20.817 -43.285  0.00  0.00    +0.000 HD
ATOM     25  H   UNL A   1      49.646 -20.646 -41.737  0.00  0.00    +0.000 HD
ENDBRANCH   3  23
BRANCH  13  26
ATOM     26  N   UNL A   1      39.505 -20.363 -39.015  0.00  0.00    -0.358 N 
ATOM     27  H   UNL A   1      39.121 -19.472 -38.854  0.00  0.00    +0.000 HD
ATOM     28  H   UNL A   1      38.941 -21.165 -38.932  0.00  0.00    +0.000 HD
ENDBRANCH  13  26
ENDBRANCH   2  10
ENDBRANCH   1   2
BRANCH   1  29
ATOM     29  C   UNL A   1      42.429 -14.808 -39.420  0.00  0.00    -0.051 C 
BRANCH  29  30
ATOM     30  C   UNL A   1      43.798 -14.131 -39.363  0.00  0.00    -0.053 C 
BRANCH  30  31
ATOM     31  C   UNL A   1      44.096 -13.538 -37.986  0.00  0.00    -0.048 C 
BRANCH  31  32
ATOM     32  C   UNL A   1      42.898 -13.729 -37.055  0.00  0.00    -0.007 C 
BRANCH  32  33
ATOM     33  C   UNL A   1      43.280 -14.261 -35.727  0.00  0.00    +0.083 A 
ATOM     34  C   UNL A   1      42.932 -15.441 -35.107  0.00  0.00    +0.049 A 
ATOM     35  N   UNL A   1      43.462 -15.319 -33.856  0.00  0.00    -0.250 N 
ATOM     36  N   UNL A   1      44.143 -14.168 -33.724  0.00  0.00    -0.065 NA
ATOM     37  N   UNL A   1      44.035 -13.507 -34.867  0.00  0.00    -0.135 NA
BRANCH  35  38
ATOM     38  C   UNL A   1      43.230 -16.166 -32.704  0.00  0.00    +0.059 C 
BRANCH  38  39
ATOM     39  C   UNL A   1      42.309 -17.337 -33.054  0.00  0.00    +0.029 C 
BRANCH  39  40
ATOM     40  N   UNL A   1      42.993 -18.637 -32.897  0.00  0.00    -0.341 N 
ATOM     41  H   UNL A   1      43.325 -18.990 -32.039  0.00  0.00    +0.000 HD
BRANCH  40  42
ATOM     42  C   UNL A   1      43.112 -19.318 -34.149  0.00  0.00    +0.041 A 
ATOM     43  C   UNL A   1      44.318 -19.262 -34.883  0.00  0.00    -0.005 A 
ATOM     44  C   UNL A   1      44.434 -20.092 -36.001  0.00  0.00    +0.047 A 
ATOM     45  N   UNL A   1      43.444 -20.912 -36.424  0.00  0.00    -0.251 NA
ATOM     46  C   UNL A   1      42.289 -20.942 -35.745  0.00  0.00    +0.073 A 
ATOM     47  C   UNL A   1      41.282 -21.784 -36.201  0.00  0.00    -0.036 A 
ATOM     48  C   UNL A   1      40.045 -21.872 -35.559  0.00  0.00    -0.060 A 
ATOM     49  C   UNL A   1      39.800 -21.099 -34.435  0.00  0.00    -0.061 A 
ATOM     50  C   UNL A   1      40.798 -20.250 -33.959  0.00  0.00    -0.051 A 
ATOM     51  C   UNL A   1      42.060 -20.165 -34.594  0.00  0.00    +0.021 A 
ATOM     52  C   UNL A   1      45.675 -20.108 -36.857  0.00  0.00    -0.010 C 
ATOM     53  C   UNL A   1      46.909 -19.576 -36.136  0.00  0.00    -0.047 C 
ATOM     54  C   UNL A   1      46.584 -18.240 -35.488  0.00  0.00    -0.049 C 
ATOM     55  C   UNL A   1      45.484 -18.408 -34.442  0.00  0.00    -0.024 C 
ENDBRANCH  40  42
ENDBRANCH  39  40
ENDBRANCH  38  39
ENDBRANCH  35  38
ENDBRANCH  32  33
ENDBRANCH  31  32
ENDBRANCH  30  31
ENDBRANCH  29  30
ENDBRANCH   1  29
TORSDOF 14
ENDMDL
MODEL 15
REMARK VINA RESULT:    -6.362      1.902      6.368
REMARK INTER + INTRA:         -17.981
REMARK INTER:                 -12.738
REMARK INTRA:                  -5.243
REMARK UNBOUND:                -6.783
REMARK  Name = cpd169.pdb
REMARK  14 active torsions:
REMARK  status: ('A' for Active; 'I' for Inactive)
REMARK    1  A    between atoms: N_1  and  C_2
REMARK    2  A    between atoms: C_8  and  C_9
REMARK    3  A    between atoms: N_15  and  C_16
REMARK    4  A    between atoms: C_16  and  C_17
REMARK    5  A    between atoms: C_17  and  C_18
REMARK    6  A    between atoms: C_18  and  C_19
REMARK    7  A    between atoms: C_19  and  C_20
REMARK    8  A    between atoms: C_20  and  C_21
REMARK    9  A    between atoms: C_21  and  C_22
REMARK   10  A    between atoms: N_24  and  C_25
REMARK   11  A    between atoms: C_25  and  C_26
REMARK   12  A    between atoms: C_26  and  N_27
REMARK   13  A    between atoms: N_27  and  C_28
REMARK   14  A    between atoms: C_46  and  N_47
REMARK                            x       y       z     vdW  Elec       q    Type
REMARK                         _______ _______ _______ _____ _____    ______ ____
ROOT
ATOM      1  C   UNL A   1      41.619 -17.105 -39.329  0.00  0.00    -0.035 C 
ENDROOT
BRANCH   1   2
ATOM      2  C   UNL A   1      42.756 -17.549 -38.407  0.00  0.00    +0.024 C 
BRANCH   2  10
ATOM      3  C   UNL A   1      46.443 -21.653 -41.349  0.00  0.00    +0.025 A 
ATOM      4  C   UNL A   1      47.395 -20.743 -41.771  0.00  0.00    -0.040 A 
ATOM      5  C   UNL A   1      47.238 -19.381 -41.500  0.00  0.00    -0.052 A 
ATOM      6  C   UNL A   1      46.144 -18.870 -40.752  0.00  0.00    -0.007 A 
ATOM      7  C   UNL A   1      45.209 -19.797 -40.266  0.00  0.00    +0.009 A 
ATOM      8  C   UNL A   1      45.395 -21.177 -40.563  0.00  0.00    -0.031 A 
ATOM      9  C   UNL A   1      44.120 -19.334 -39.489  0.00  0.00    +0.057 A 
ATOM     10  N   UNL A   1      43.944 -18.000 -39.219  0.00  0.00    -0.339 N 
ATOM     11  C   UNL A   1      44.837 -17.064 -39.696  0.00  0.00    +0.052 A 
ATOM     12  C   UNL A   1      44.686 -15.676 -39.437  0.00  0.00    -0.017 A 
ATOM     13  C   UNL A   1      45.567 -14.708 -39.922  0.00  0.00    +0.027 A 
ATOM     14  C   UNL A   1      46.689 -15.137 -40.607  0.00  0.00    -0.040 A 
ATOM     15  C   UNL A   1      46.868 -16.490 -40.892  0.00  0.00    -0.050 A 
ATOM     16  C   UNL A   1      45.958 -17.487 -40.460  0.00  0.00    +0.006 A 
BRANCH   9  17
ATOM     17  C   UNL A   1      43.128 -20.276 -38.936  0.00  0.00    -0.001 A 
ATOM     18  C   UNL A   1      42.103 -20.797 -39.745  0.00  0.00    -0.053 A 
ATOM     19  C   UNL A   1      41.154 -21.676 -39.216  0.00  0.00    -0.061 A 
ATOM     20  C   UNL A   1      41.215 -22.041 -37.873  0.00  0.00    -0.062 A 
ATOM     21  C   UNL A   1      42.211 -21.518 -37.053  0.00  0.00    -0.061 A 
ATOM     22  C   UNL A   1      43.157 -20.634 -37.575  0.00  0.00    -0.053 A 
ENDBRANCH   9  17
BRANCH   3  23
ATOM     23  N   UNL A   1      46.658 -23.023 -41.491  0.00  0.00    -0.358 N 
ATOM     24  H   UNL A   1      47.534 -23.410 -41.266  0.00  0.00    +0.000 HD
ATOM     25  H   UNL A   1      45.933 -23.603 -41.817  0.00  0.00    +0.000 HD
ENDBRANCH   3  23
BRANCH  13  26
ATOM     26  N   UNL A   1      45.454 -13.381 -39.515  0.00  0.00    -0.358 N 
ATOM     27  H   UNL A   1      45.133 -12.698 -40.147  0.00  0.00    +0.000 HD
ATOM     28  H   UNL A   1      45.694 -13.126 -38.595  0.00  0.00    +0.000 HD
ENDBRANCH  13  26
ENDBRANCH   2  10
ENDBRANCH   1   2
BRANCH   1  29
ATOM     29  C   UNL A   1      40.478 -16.432 -38.560  0.00  0.00    -0.051 C 
BRANCH  29  30
ATOM     30  C   UNL A   1      39.257 -17.343 -38.429  0.00  0.00    -0.053 C 
BRANCH  30  31
ATOM     31  C   UNL A   1      39.623 -18.734 -37.913  0.00  0.00    -0.048 C 
BRANCH  31  32
ATOM     32  C   UNL A   1      38.648 -19.169 -36.818  0.00  0.00    -0.007 C 
BRANCH  32  33
ATOM     33  C   UNL A   1      39.330 -19.625 -35.586  0.00  0.00    +0.083 A 
ATOM     34  C   UNL A   1      40.297 -19.008 -34.823  0.00  0.00    +0.049 A 
ATOM     35  N   UNL A   1      40.640 -19.957 -33.905  0.00  0.00    -0.250 N 
ATOM     36  N   UNL A   1      39.898 -21.068 -34.049  0.00  0.00    -0.065 NA
ATOM     37  N   UNL A   1      39.091 -20.877 -35.082  0.00  0.00    -0.135 NA
BRANCH  35  38
ATOM     38  C   UNL A   1      41.755 -19.940 -32.981  0.00  0.00    +0.059 C 
BRANCH  38  39
ATOM     39  C   UNL A   1      43.079 -20.197 -33.704  0.00  0.00    +0.029 C 
BRANCH  39  40
ATOM     40  N   UNL A   1      44.172 -19.365 -33.160  0.00  0.00    -0.341 N 
ATOM     41  H   UNL A   1      44.582 -19.498 -32.274  0.00  0.00    +0.000 HD
BRANCH  40  42
ATOM     42  C   UNL A   1      44.558 -18.342 -34.082  0.00  0.00    +0.041 A 
ATOM     43  C   UNL A   1      44.159 -17.004 -33.875  0.00  0.00    -0.005 A 
ATOM     44  C   UNL A   1      44.716 -16.027 -34.705  0.00  0.00    +0.047 A 
ATOM     45  N   UNL A   1      45.587 -16.308 -35.703  0.00  0.00    -0.251 NA
ATOM     46  C   UNL A   1      45.941 -17.581 -35.918  0.00  0.00    +0.073 A 
ATOM     47  C   UNL A   1      46.828 -17.849 -36.954  0.00  0.00    -0.036 A 
ATOM     48  C   UNL A   1      47.245 -19.148 -37.253  0.00  0.00    -0.060 A 
ATOM     49  C   UNL A   1      46.764 -20.211 -36.504  0.00  0.00    -0.061 A 
ATOM     50  C   UNL A   1      45.876 -19.964 -35.458  0.00  0.00    -0.051 A 
ATOM     51  C   UNL A   1      45.460 -18.650 -35.139  0.00  0.00    +0.021 A 
ATOM     52  C   UNL A   1      44.356 -14.569 -34.573  0.00  0.00    -0.010 C 
ATOM     53  C   UNL A   1      43.784 -14.212 -33.205  0.00  0.00    -0.047 C 
ATOM     54  C   UNL A   1      42.678 -15.189 -32.845  0.00  0.00    -0.049 C 
ATOM     55  C   UNL A   1      43.231 -16.610 -32.750  0.00  0.00    -0.024 C 
ENDBRANCH  40  42
ENDBRANCH  39  40
ENDBRANCH  38  39
ENDBRANCH  35  38
ENDBRANCH  32  33
ENDBRANCH  31  32
ENDBRANCH  30  31
ENDBRANCH  29  30
ENDBRANCH   1  29
TORSDOF 14
ENDMDL
MODEL 16
REMARK VINA RESULT:    -6.346      2.201      7.518
REMARK INTER + INTRA:         -17.951
REMARK INTER:                 -12.294
REMARK INTRA:                  -5.657
REMARK UNBOUND:                -6.783
REMARK  Name = cpd169.pdb
REMARK  14 active torsions:
REMARK  status: ('A' for Active; 'I' for Inactive)
REMARK    1  A    between atoms: N_1  and  C_2
REMARK    2  A    between atoms: C_8  and  C_9
REMARK    3  A    between atoms: N_15  and  C_16
REMARK    4  A    between atoms: C_16  and  C_17
REMARK    5  A    between atoms: C_17  and  C_18
REMARK    6  A    between atoms: C_18  and  C_19
REMARK    7  A    between atoms: C_19  and  C_20
REMARK    8  A    between atoms: C_20  and  C_21
REMARK    9  A    between atoms: C_21  and  C_22
REMARK   10  A    between atoms: N_24  and  C_25
REMARK   11  A    between atoms: C_25  and  C_26
REMARK   12  A    between atoms: C_26  and  N_27
REMARK   13  A    between atoms: N_27  and  C_28
REMARK   14  A    between atoms: C_46  and  N_47
REMARK                            x       y       z     vdW  Elec       q    Type
REMARK                         _______ _______ _______ _____ _____    ______ ____
ROOT
ATOM      1  C   UNL A   1      41.765 -17.540 -34.555  0.00  0.00    -0.035 C 
ENDROOT
BRANCH   1   2
ATOM      2  C   UNL A   1      42.963 -16.633 -34.267  0.00  0.00    +0.024 C 
BRANCH   2  10
ATOM      3  C   UNL A   1      46.193 -14.734 -39.273  0.00  0.00    +0.025 A 
ATOM      4  C   UNL A   1      46.944 -15.885 -39.426  0.00  0.00    -0.040 A 
ATOM      5  C   UNL A   1      46.813 -16.940 -38.521  0.00  0.00    -0.052 A 
ATOM      6  C   UNL A   1      45.888 -16.915 -37.443  0.00  0.00    -0.007 A 
ATOM      7  C   UNL A   1      45.077 -15.776 -37.321  0.00  0.00    +0.009 A 
ATOM      8  C   UNL A   1      45.238 -14.715 -38.257  0.00  0.00    -0.031 A 
ATOM      9  C   UNL A   1      44.119 -15.721 -36.279  0.00  0.00    +0.057 A 
ATOM     10  N   UNL A   1      43.981 -16.744 -35.374  0.00  0.00    -0.339 N 
ATOM     11  C   UNL A   1      44.774 -17.868 -35.460  0.00  0.00    +0.052 A 
ATOM     12  C   UNL A   1      44.659 -18.945 -34.542  0.00  0.00    -0.017 A 
ATOM     13  C   UNL A   1      45.461 -20.086 -34.597  0.00  0.00    +0.027 A 
ATOM     14  C   UNL A   1      46.342 -20.208 -35.655  0.00  0.00    -0.040 A 
ATOM     15  C   UNL A   1      46.494 -19.168 -36.572  0.00  0.00    -0.050 A 
ATOM     16  C   UNL A   1      45.732 -17.976 -36.504  0.00  0.00    +0.006 A 
BRANCH   9  17
ATOM     17  C   UNL A   1      43.228 -14.555 -36.129  0.00  0.00    -0.001 A 
ATOM     18  C   UNL A   1      41.984 -14.512 -36.782  0.00  0.00    -0.053 A 
ATOM     19  C   UNL A   1      41.149 -13.400 -36.652  0.00  0.00    -0.061 A 
ATOM     20  C   UNL A   1      41.547 -12.316 -35.871  0.00  0.00    -0.062 A 
ATOM     21  C   UNL A   1      42.785 -12.334 -35.234  0.00  0.00    -0.061 A 
ATOM     22  C   UNL A   1      43.626 -13.440 -35.367  0.00  0.00    -0.053 A 
ENDBRANCH   9  17
BRANCH   3  23
ATOM     23  N   UNL A   1      46.214 -13.737 -40.245  0.00  0.00    -0.358 N 
ATOM     24  H   UNL A   1      45.981 -12.811 -40.006  0.00  0.00    +0.000 HD
ATOM     25  H   UNL A   1      46.461 -13.958 -41.172  0.00  0.00    +0.000 HD
ENDBRANCH   3  23
BRANCH  13  26
ATOM     26  N   UNL A   1      45.205 -21.172 -33.763  0.00  0.00    -0.358 N 
ATOM     27  H   UNL A   1      44.356 -21.663 -33.841  0.00  0.00    +0.000 HD
ATOM     28  H   UNL A   1      45.874 -21.448 -33.095  0.00  0.00    +0.000 HD
ENDBRANCH  13  26
ENDBRANCH   2  10
ENDBRANCH   1   2
BRANCH   1  29
ATOM     29  C   UNL A   1      40.639 -17.356 -33.532  0.00  0.00    -0.051 C 
BRANCH  29  30
ATOM     30  C   UNL A   1      40.248 -18.674 -32.864  0.00  0.00    -0.053 C 
BRANCH  30  31
ATOM     31  C   UNL A   1      41.394 -19.685 -32.857  0.00  0.00    -0.048 C 
BRANCH  31  32
ATOM     32  C   UNL A   1      40.856 -21.100 -33.070  0.00  0.00    -0.007 C 
BRANCH  32  33
ATOM     33  C   UNL A   1      41.050 -21.588 -34.455  0.00  0.00    +0.083 A 
ATOM     34  C   UNL A   1      41.489 -20.925 -35.580  0.00  0.00    +0.049 A 
ATOM     35  N   UNL A   1      41.327 -21.839 -36.579  0.00  0.00    -0.250 N 
ATOM     36  N   UNL A   1      40.873 -23.011 -36.102  0.00  0.00    -0.065 NA
ATOM     37  N   UNL A   1      40.696 -22.867 -34.797  0.00  0.00    -0.135 NA
BRANCH  35  38
ATOM     38  C   UNL A   1      41.427 -21.623 -38.008  0.00  0.00    +0.059 C 
BRANCH  38  39
ATOM     39  C   UNL A   1      42.874 -21.752 -38.488  0.00  0.00    +0.029 C 
BRANCH  39  40
ATOM     40  N   UNL A   1      43.685 -20.578 -38.105  0.00  0.00    -0.341 N 
ATOM     41  H   UNL A   1      43.886 -20.322 -37.175  0.00  0.00    +0.000 HD
BRANCH  40  42
ATOM     42  C   UNL A   1      44.141 -19.861 -39.255  0.00  0.00    +0.041 A 
ATOM     43  C   UNL A   1      43.518 -18.653 -39.639  0.00  0.00    -0.005 A 
ATOM     44  C   UNL A   1      44.121 -17.909 -40.657  0.00  0.00    +0.047 A 
ATOM     45  N   UNL A   1      45.243 -18.305 -41.302  0.00  0.00    -0.251 NA
ATOM     46  C   UNL A   1      45.817 -19.466 -40.958  0.00  0.00    +0.073 A 
ATOM     47  C   UNL A   1      46.962 -19.859 -41.639  0.00  0.00    -0.036 A 
ATOM     48  C   UNL A   1      47.620 -21.057 -41.350  0.00  0.00    -0.060 A 
ATOM     49  C   UNL A   1      47.122 -21.890 -40.360  0.00  0.00    -0.061 A 
ATOM     50  C   UNL A   1      45.976 -21.512 -39.662  0.00  0.00    -0.051 A 
ATOM     51  C   UNL A   1      45.312 -20.293 -39.938  0.00  0.00    +0.021 A 
ATOM     52  C   UNL A   1      43.537 -16.608 -41.147  0.00  0.00    -0.010 C 
ATOM     53  C   UNL A   1      42.598 -15.954 -40.140  0.00  0.00    -0.047 C 
ATOM     54  C   UNL A   1      41.586 -16.975 -39.648  0.00  0.00    -0.049 C 
ATOM     55  C   UNL A   1      42.292 -18.124 -38.931  0.00  0.00    -0.024 C 
ENDBRANCH  40  42
ENDBRANCH  39  40
ENDBRANCH  38  39
ENDBRANCH  35  38
ENDBRANCH  32  33
ENDBRANCH  31  32
ENDBRANCH  30  31
ENDBRANCH  29  30
ENDBRANCH   1  29
TORSDOF 14
ENDMDL
MODEL 17
REMARK VINA RESULT:    -6.308      1.912      4.293
REMARK INTER + INTRA:         -17.885
REMARK INTER:                 -11.410
REMARK INTRA:                  -6.474
REMARK UNBOUND:                -6.783
REMARK  Name = cpd169.pdb
REMARK  14 active torsions:
REMARK  status: ('A' for Active; 'I' for Inactive)
REMARK    1  A    between atoms: N_1  and  C_2
REMARK    2  A    between atoms: C_8  and  C_9
REMARK    3  A    between atoms: N_15  and  C_16
REMARK    4  A    between atoms: C_16  and  C_17
REMARK    5  A    between atoms: C_17  and  C_18
REMARK    6  A    between atoms: C_18  and  C_19
REMARK    7  A    between atoms: C_19  and  C_20
REMARK    8  A    between atoms: C_20  and  C_21
REMARK    9  A    between atoms: C_21  and  C_22
REMARK   10  A    between atoms: N_24  and  C_25
REMARK   11  A    between atoms: C_25  and  C_26
REMARK   12  A    between atoms: C_26  and  N_27
REMARK   13  A    between atoms: N_27  and  C_28
REMARK   14  A    between atoms: C_46  and  N_47
REMARK                            x       y       z     vdW  Elec       q    Type
REMARK                         _______ _______ _______ _____ _____    ______ ____
ROOT
ATOM      1  C   UNL A   1      44.926 -16.999 -39.784  0.00  0.00    -0.035 C 
ENDROOT
BRANCH   1   2
ATOM      2  C   UNL A   1      43.874 -17.841 -40.509  0.00  0.00    +0.024 C 
BRANCH   2  10
ATOM      3  C   UNL A   1      41.240 -21.569 -36.236  0.00  0.00    +0.025 A 
ATOM      4  C   UNL A   1      40.070 -20.846 -36.090  0.00  0.00    -0.040 A 
ATOM      5  C   UNL A   1      39.884 -19.654 -36.794  0.00  0.00    -0.052 A 
ATOM      6  C   UNL A   1      40.841 -19.150 -37.715  0.00  0.00    -0.007 A 
ATOM      7  C   UNL A   1      42.002 -19.913 -37.915  0.00  0.00    +0.009 A 
ATOM      8  C   UNL A   1      42.164 -21.121 -37.179  0.00  0.00    -0.031 A 
ATOM      9  C   UNL A   1      42.969 -19.465 -38.848  0.00  0.00    +0.057 A 
ATOM     10  N   UNL A   1      42.808 -18.291 -39.542  0.00  0.00    -0.339 N 
ATOM     11  C   UNL A   1      41.686 -17.514 -39.355  0.00  0.00    +0.052 A 
ATOM     12  C   UNL A   1      41.487 -16.295 -40.056  0.00  0.00    -0.017 A 
ATOM     13  C   UNL A   1      40.367 -15.481 -39.872  0.00  0.00    +0.027 A 
ATOM     14  C   UNL A   1      39.365 -15.937 -39.037  0.00  0.00    -0.040 A 
ATOM     15  C   UNL A   1      39.526 -17.123 -38.321  0.00  0.00    -0.050 A 
ATOM     16  C   UNL A   1      40.679 -17.938 -38.447  0.00  0.00    +0.006 A 
BRANCH   9  17
ATOM     17  C   UNL A   1      44.191 -20.247 -39.109  0.00  0.00    -0.001 A 
ATOM     18  C   UNL A   1      44.275 -21.101 -40.223  0.00  0.00    -0.053 A 
ATOM     19  C   UNL A   1      45.427 -21.854 -40.459  0.00  0.00    -0.061 A 
ATOM     20  C   UNL A   1      46.508 -21.768 -39.585  0.00  0.00    -0.062 A 
ATOM     21  C   UNL A   1      46.435 -20.943 -38.465  0.00  0.00    -0.061 A 
ATOM     22  C   UNL A   1      45.282 -20.194 -38.221  0.00  0.00    -0.053 A 
ENDBRANCH   9  17
BRANCH   3  23
ATOM     23  N   UNL A   1      41.377 -22.825 -35.649  0.00  0.00    -0.358 N 
ATOM     24  H   UNL A   1      41.588 -23.608 -36.206  0.00  0.00    +0.000 HD
ATOM     25  H   UNL A   1      41.264 -22.928 -34.676  0.00  0.00    +0.000 HD
ENDBRANCH   3  23
BRANCH  13  26
ATOM     26  N   UNL A   1      40.154 -14.375 -40.692  0.00  0.00    -0.358 N 
ATOM     27  H   UNL A   1      39.379 -14.354 -41.298  0.00  0.00    +0.000 HD
ATOM     28  H   UNL A   1      40.779 -13.615 -40.665  0.00  0.00    +0.000 HD
ENDBRANCH  13  26
ENDBRANCH   2  10
ENDBRANCH   1   2
BRANCH   1  29
ATOM     29  C   UNL A   1      46.344 -17.277 -40.293  0.00  0.00    -0.051 C 
BRANCH  29  30
ATOM     30  C   UNL A   1      47.272 -16.079 -40.096  0.00  0.00    -0.053 C 
BRANCH  30  31
ATOM     31  C   UNL A   1      46.548 -14.746 -40.286  0.00  0.00    -0.048 C 
BRANCH  31  32
ATOM     32  C   UNL A   1      46.866 -13.799 -39.128  0.00  0.00    -0.007 C 
BRANCH  32  33
ATOM     33  C   UNL A   1      45.727 -13.621 -38.199  0.00  0.00    +0.083 A 
ATOM     34  C   UNL A   1      45.713 -13.433 -36.834  0.00  0.00    +0.049 A 
ATOM     35  N   UNL A   1      44.388 -13.476 -36.515  0.00  0.00    -0.250 N 
ATOM     36  N   UNL A   1      43.624 -13.621 -37.612  0.00  0.00    -0.065 NA
ATOM     37  N   UNL A   1      44.438 -13.715 -38.653  0.00  0.00    -0.135 NA
BRANCH  35  38
ATOM     38  C   UNL A   1      43.791 -13.547 -35.197  0.00  0.00    +0.059 C 
BRANCH  38  39
ATOM     39  C   UNL A   1      43.879 -14.963 -34.624  0.00  0.00    +0.029 C 
BRANCH  39  40
ATOM     40  N   UNL A   1      43.512 -15.984 -35.627  0.00  0.00    -0.341 N 
ATOM     41  H   UNL A   1      43.074 -15.785 -36.487  0.00  0.00    +0.000 HD
BRANCH  40  42
ATOM     42  C   UNL A   1      43.874 -17.298 -35.191  0.00  0.00    +0.041 A 
ATOM     43  C   UNL A   1      45.181 -17.788 -35.404  0.00  0.00    -0.005 A 
ATOM     44  C   UNL A   1      45.524 -19.000 -34.797  0.00  0.00    +0.047 A 
ATOM     45  N   UNL A   1      44.661 -19.727 -34.050  0.00  0.00    -0.251 NA
ATOM     46  C   UNL A   1      43.412 -19.276 -33.874  0.00  0.00    +0.073 A 
ATOM     47  C   UNL A   1      42.539 -20.043 -33.112  0.00  0.00    -0.036 A 
ATOM     48  C   UNL A   1      41.217 -19.652 -32.883  0.00  0.00    -0.060 A 
ATOM     49  C   UNL A   1      40.749 -18.468 -33.432  0.00  0.00    -0.061 A 
ATOM     50  C   UNL A   1      41.610 -17.682 -34.197  0.00  0.00    -0.051 A 
ATOM     51  C   UNL A   1      42.954 -18.063 -34.421  0.00  0.00    +0.021 A 
ATOM     52  C   UNL A   1      46.890 -19.615 -34.962  0.00  0.00    -0.010 C 
ATOM     53  C   UNL A   1      47.957 -18.608 -35.376  0.00  0.00    -0.047 C 
ATOM     54  C   UNL A   1      47.462 -17.799 -36.562  0.00  0.00    -0.049 C 
ATOM     55  C   UNL A   1      46.212 -17.007 -36.184  0.00  0.00    -0.024 C 
ENDBRANCH  40  42
ENDBRANCH  39  40
ENDBRANCH  38  39
ENDBRANCH  35  38
ENDBRANCH  32  33
ENDBRANCH  31  32
ENDBRANCH  30  31
ENDBRANCH  29  30
ENDBRANCH   1  29
TORSDOF 14
ENDMDL
MODEL 18
REMARK VINA RESULT:    -6.266      1.944      6.016
REMARK INTER + INTRA:         -17.812
REMARK INTER:                 -11.424
REMARK INTRA:                  -6.388
REMARK UNBOUND:                -6.783
REMARK  Name = cpd169.pdb
REMARK  14 active torsions:
REMARK  status: ('A' for Active; 'I' for Inactive)
REMARK    1  A    between atoms: N_1  and  C_2
REMARK    2  A    between atoms: C_8  and  C_9
REMARK    3  A    between atoms: N_15  and  C_16
REMARK    4  A    between atoms: C_16  and  C_17
REMARK    5  A    between atoms: C_17  and  C_18
REMARK    6  A    between atoms: C_18  and  C_19
REMARK    7  A    between atoms: C_19  and  C_20
REMARK    8  A    between atoms: C_20  and  C_21
REMARK    9  A    between atoms: C_21  and  C_22
REMARK   10  A    between atoms: N_24  and  C_25
REMARK   11  A    between atoms: C_25  and  C_26
REMARK   12  A    between atoms: C_26  and  N_27
REMARK   13  A    between atoms: N_27  and  C_28
REMARK   14  A    between atoms: C_46  and  N_47
REMARK                            x       y       z     vdW  Elec       q    Type
REMARK                         _______ _______ _______ _____ _____    ______ ____
ROOT
ATOM      1  C   UNL A   1      42.536 -20.683 -38.482  0.00  0.00    -0.035 C 
ENDROOT
BRANCH   1   2
ATOM      2  C   UNL A   1      44.012 -21.001 -38.236  0.00  0.00    +0.024 C 
BRANCH   2  10
ATOM      3  C   UNL A   1      47.446 -16.159 -40.201  0.00  0.00    +0.025 A 
ATOM      4  C   UNL A   1      47.640 -15.584 -38.958  0.00  0.00    -0.040 A 
ATOM      5  C   UNL A   1      47.052 -16.143 -37.821  0.00  0.00    -0.052 A 
ATOM      6  C   UNL A   1      46.280 -17.335 -37.866  0.00  0.00    -0.007 A 
ATOM      7  C   UNL A   1      46.134 -17.959 -39.114  0.00  0.00    +0.009 A 
ATOM      8  C   UNL A   1      46.741 -17.361 -40.255  0.00  0.00    -0.031 A 
ATOM      9  C   UNL A   1      45.398 -19.166 -39.199  0.00  0.00    +0.057 A 
ATOM     10  N   UNL A   1      44.806 -19.727 -38.094  0.00  0.00    -0.339 N 
ATOM     11  C   UNL A   1      44.919 -19.128 -36.859  0.00  0.00    +0.052 A 
ATOM     12  C   UNL A   1      44.320 -19.680 -35.695  0.00  0.00    -0.017 A 
ATOM     13  C   UNL A   1      44.406 -19.085 -34.435  0.00  0.00    +0.027 A 
ATOM     14  C   UNL A   1      45.192 -17.955 -34.304  0.00  0.00    -0.040 A 
ATOM     15  C   UNL A   1      45.788 -17.376 -35.424  0.00  0.00    -0.050 A 
ATOM     16  C   UNL A   1      45.669 -17.929 -36.723  0.00  0.00    +0.006 A 
BRANCH   9  17
ATOM     17  C   UNL A   1      45.241 -19.869 -40.486  0.00  0.00    -0.001 A 
ATOM     18  C   UNL A   1      44.295 -19.436 -41.432  0.00  0.00    -0.053 A 
ATOM     19  C   UNL A   1      44.136 -20.114 -42.643  0.00  0.00    -0.061 A 
ATOM     20  C   UNL A   1      44.915 -21.234 -42.922  0.00  0.00    -0.062 A 
ATOM     21  C   UNL A   1      45.842 -21.689 -41.988  0.00  0.00    -0.061 A 
ATOM     22  C   UNL A   1      46.000 -21.020 -40.774  0.00  0.00    -0.053 A 
ENDBRANCH   9  17
BRANCH   3  23
ATOM     23  N   UNL A   1      48.138 -15.692 -41.316  0.00  0.00    -0.358 N 
ATOM     24  H   UNL A   1      47.649 -15.469 -42.141  0.00  0.00    +0.000 HD
ATOM     25  H   UNL A   1      49.116 -15.586 -41.280  0.00  0.00    +0.000 HD
ENDBRANCH   3  23
BRANCH  13  26
ATOM     26  N   UNL A   1      43.926 -19.745 -33.307  0.00  0.00    -0.358 N 
ATOM     27  H   UNL A   1      44.460 -20.457 -32.888  0.00  0.00    +0.000 HD
ATOM     28  H   UNL A   1      43.051 -19.498 -32.928  0.00  0.00    +0.000 HD
ENDBRANCH  13  26
ENDBRANCH   2  10
ENDBRANCH   1   2
BRANCH   1  29
ATOM     29  C   UNL A   1      41.614 -21.820 -38.030  0.00  0.00    -0.051 C 
BRANCH  29  30
ATOM     30  C   UNL A   1      40.142 -21.409 -38.047  0.00  0.00    -0.053 C 
BRANCH  30  31
ATOM     31  C   UNL A   1      39.387 -21.900 -36.812  0.00  0.00    -0.048 C 
BRANCH  31  32
ATOM     32  C   UNL A   1      40.278 -21.808 -35.573  0.00  0.00    -0.007 C 
BRANCH  32  33
ATOM     33  C   UNL A   1      40.172 -20.502 -34.882  0.00  0.00    +0.083 A 
ATOM     34  C   UNL A   1      39.352 -19.424 -35.137  0.00  0.00    +0.049 A 
ATOM     35  N   UNL A   1      39.799 -18.467 -34.274  0.00  0.00    -0.250 N 
ATOM     36  N   UNL A   1      40.790 -18.934 -33.495  0.00  0.00    -0.065 NA
ATOM     37  N   UNL A   1      41.031 -20.184 -33.863  0.00  0.00    -0.135 NA
BRANCH  35  38
ATOM     38  C   UNL A   1      39.449 -17.062 -34.244  0.00  0.00    +0.059 C 
BRANCH  38  39
ATOM     39  C   UNL A   1      40.326 -16.252 -35.202  0.00  0.00    +0.029 C 
BRANCH  39  40
ATOM     40  N   UNL A   1      41.670 -16.846 -35.350  0.00  0.00    -0.341 N 
ATOM     41  H   UNL A   1      41.926 -17.734 -35.007  0.00  0.00    +0.000 HD
BRANCH  40  42
ATOM     42  C   UNL A   1      42.554 -15.969 -36.054  0.00  0.00    +0.041 A 
ATOM     43  C   UNL A   1      42.682 -16.056 -37.457  0.00  0.00    -0.005 A 
ATOM     44  C   UNL A   1      43.417 -15.058 -38.103  0.00  0.00    +0.047 A 
ATOM     45  N   UNL A   1      44.029 -14.044 -37.448  0.00  0.00    -0.251 NA
ATOM     46  C   UNL A   1      43.932 -13.979 -36.114  0.00  0.00    +0.073 A 
ATOM     47  C   UNL A   1      44.576 -12.935 -35.460  0.00  0.00    -0.036 A 
ATOM     48  C   UNL A   1      44.534 -12.795 -34.071  0.00  0.00    -0.060 A 
ATOM     49  C   UNL A   1      43.837 -13.721 -33.310  0.00  0.00    -0.061 A 
ATOM     50  C   UNL A   1      43.182 -14.774 -33.947  0.00  0.00    -0.051 A 
ATOM     51  C   UNL A   1      43.206 -14.916 -35.355  0.00  0.00    +0.021 A 
ATOM     52  C   UNL A   1      43.619 -15.058 -39.598  0.00  0.00    -0.010 C 
ATOM     53  C   UNL A   1      42.577 -15.881 -40.345  0.00  0.00    -0.047 C 
ATOM     54  C   UNL A   1      42.457 -17.255 -39.707  0.00  0.00    -0.049 C 
ATOM     55  C   UNL A   1      41.986 -17.132 -38.259  0.00  0.00    -0.024 C 
ENDBRANCH  40  42
ENDBRANCH  39  40
ENDBRANCH  38  39
ENDBRANCH  35  38
ENDBRANCH  32  33
ENDBRANCH  31  32
ENDBRANCH  30  31
ENDBRANCH  29  30
ENDBRANCH   1  29
TORSDOF 14
ENDMDL
MODEL 19
REMARK VINA RESULT:    -6.156      2.131      4.982
REMARK INTER + INTRA:         -17.617
REMARK INTER:                  -9.951
REMARK INTRA:                  -7.665
REMARK UNBOUND:                -6.783
REMARK  Name = cpd169.pdb
REMARK  14 active torsions:
REMARK  status: ('A' for Active; 'I' for Inactive)
REMARK    1  A    between atoms: N_1  and  C_2
REMARK    2  A    between atoms: C_8  and  C_9
REMARK    3  A    between atoms: N_15  and  C_16
REMARK    4  A    between atoms: C_16  and  C_17
REMARK    5  A    between atoms: C_17  and  C_18
REMARK    6  A    between atoms: C_18  and  C_19
REMARK    7  A    between atoms: C_19  and  C_20
REMARK    8  A    between atoms: C_20  and  C_21
REMARK    9  A    between atoms: C_21  and  C_22
REMARK   10  A    between atoms: N_24  and  C_25
REMARK   11  A    between atoms: C_25  and  C_26
REMARK   12  A    between atoms: C_26  and  N_27
REMARK   13  A    between atoms: N_27  and  C_28
REMARK   14  A    between atoms: C_46  and  N_47
REMARK                            x       y       z     vdW  Elec       q    Type
REMARK                         _______ _______ _______ _____ _____    ______ ____
ROOT
ATOM      1  C   UNL A   1      45.680 -16.245 -37.189  0.00  0.00    -0.035 C 
ENDROOT
BRANCH   1   2
ATOM      2  C   UNL A   1      44.614 -17.295 -37.509  0.00  0.00    +0.024 C 
BRANCH   2  10
ATOM      3  C   UNL A   1      38.933 -14.685 -37.593  0.00  0.00    +0.025 A 
ATOM      4  C   UNL A   1      38.615 -14.946 -36.273  0.00  0.00    -0.040 A 
ATOM      5  C   UNL A   1      39.503 -15.655 -35.460  0.00  0.00    -0.052 A 
ATOM      6  C   UNL A   1      40.773 -16.097 -35.916  0.00  0.00    -0.007 A 
ATOM      7  C   UNL A   1      41.128 -15.778 -37.237  0.00  0.00    +0.009 A 
ATOM      8  C   UNL A   1      40.199 -15.058 -38.041  0.00  0.00    -0.031 A 
ATOM      9  C   UNL A   1      42.398 -16.171 -37.723  0.00  0.00    +0.057 A 
ATOM     10  N   UNL A   1      43.281 -16.876 -36.942  0.00  0.00    -0.339 N 
ATOM     11  C   UNL A   1      42.954 -17.217 -35.648  0.00  0.00    +0.052 A 
ATOM     12  C   UNL A   1      43.841 -17.946 -34.812  0.00  0.00    -0.017 A 
ATOM     13  C   UNL A   1      43.528 -18.317 -33.503  0.00  0.00    +0.027 A 
ATOM     14  C   UNL A   1      42.333 -17.870 -32.971  0.00  0.00    -0.040 A 
ATOM     15  C   UNL A   1      41.429 -17.162 -33.762  0.00  0.00    -0.050 A 
ATOM     16  C   UNL A   1      41.700 -16.822 -35.111  0.00  0.00    +0.006 A 
BRANCH   9  17
ATOM     17  C   UNL A   1      42.823 -15.835 -39.095  0.00  0.00    -0.001 A 
ATOM     18  C   UNL A   1      43.249 -14.535 -39.418  0.00  0.00    -0.053 A 
ATOM     19  C   UNL A   1      43.635 -14.214 -40.721  0.00  0.00    -0.061 A 
ATOM     20  C   UNL A   1      43.596 -15.185 -41.719  0.00  0.00    -0.062 A 
ATOM     21  C   UNL A   1      43.156 -16.473 -41.422  0.00  0.00    -0.061 A 
ATOM     22  C   UNL A   1      42.763 -16.796 -40.122  0.00  0.00    -0.053 A 
ENDBRANCH   9  17
BRANCH   3  23
ATOM     23  N   UNL A   1      38.121 -13.861 -38.370  0.00  0.00    -0.358 N 
ATOM     24  H   UNL A   1      38.361 -13.675 -39.306  0.00  0.00    +0.000 HD
ATOM     25  H   UNL A   1      37.306 -13.466 -37.983  0.00  0.00    +0.000 HD
ENDBRANCH   3  23
BRANCH  13  26
ATOM     26  N   UNL A   1      44.491 -18.901 -32.683  0.00  0.00    -0.358 N 
ATOM     27  H   UNL A   1      44.285 -19.729 -32.194  0.00  0.00    +0.000 HD
ATOM     28  H   UNL A   1      45.379 -18.484 -32.594  0.00  0.00    +0.000 HD
ENDBRANCH  13  26
ENDBRANCH   2  10
ENDBRANCH   1   2
BRANCH   1  29
ATOM     29  C   UNL A   1      46.443 -15.793 -38.439  0.00  0.00    -0.051 C 
BRANCH  29  30
ATOM     30  C   UNL A   1      47.189 -16.948 -39.107  0.00  0.00    -0.053 C 
BRANCH  30  31
ATOM     31  C   UNL A   1      46.627 -17.283 -40.488  0.00  0.00    -0.048 C 
BRANCH  31  32
ATOM     32  C   UNL A   1      46.894 -18.749 -40.830  0.00  0.00    -0.007 C 
BRANCH  32  33
ATOM     33  C   UNL A   1      45.822 -19.655 -40.359  0.00  0.00    +0.083 A 
ATOM     34  C   UNL A   1      44.580 -19.920 -40.893  0.00  0.00    +0.049 A 
ATOM     35  N   UNL A   1      43.988 -20.717 -39.958  0.00  0.00    -0.250 N 
ATOM     36  N   UNL A   1      44.824 -20.980 -38.938  0.00  0.00    -0.065 NA
ATOM     37  N   UNL A   1      45.954 -20.329 -39.172  0.00  0.00    -0.135 NA
BRANCH  35  38
ATOM     38  C   UNL A   1      42.602 -21.129 -39.888  0.00  0.00    +0.059 C 
BRANCH  38  39
ATOM     39  C   UNL A   1      42.155 -21.326 -38.437  0.00  0.00    +0.029 C 
BRANCH  39  40
ATOM     40  N   UNL A   1      42.074 -20.043 -37.710  0.00  0.00    -0.341 N 
ATOM     41  H   UNL A   1      42.807 -19.387 -37.658  0.00  0.00    +0.000 HD
BRANCH  40  42
ATOM     42  C   UNL A   1      40.796 -19.874 -37.089  0.00  0.00    +0.041 A 
ATOM     43  C   UNL A   1      40.587 -20.290 -35.756  0.00  0.00    -0.005 A 
ATOM     44  C   UNL A   1      39.379 -19.935 -35.150  0.00  0.00    +0.047 A 
ATOM     45  N   UNL A   1      38.403 -19.246 -35.785  0.00  0.00    -0.251 NA
ATOM     46  C   UNL A   1      38.590 -18.877 -37.060  0.00  0.00    +0.073 A 
ATOM     47  C   UNL A   1      37.571 -18.179 -37.697  0.00  0.00    -0.036 A 
ATOM     48  C   UNL A   1      37.679 -17.764 -39.026  0.00  0.00    -0.060 A 
ATOM     49  C   UNL A   1      38.829 -18.054 -39.744  0.00  0.00    -0.061 A 
ATOM     50  C   UNL A   1      39.864 -18.751 -39.122  0.00  0.00    -0.051 A 
ATOM     51  C   UNL A   1      39.770 -19.163 -37.771  0.00  0.00    +0.021 A 
ATOM     52  C   UNL A   1      39.052 -20.332 -33.732  0.00  0.00    -0.010 C 
ATOM     53  C   UNL A   1      40.285 -20.665 -32.901  0.00  0.00    -0.047 C 
ATOM     54  C   UNL A   1      41.164 -21.643 -33.663  0.00  0.00    -0.049 C 
ATOM     55  C   UNL A   1      41.651 -21.019 -34.969  0.00  0.00    -0.024 C 
ENDBRANCH  40  42
ENDBRANCH  39  40
ENDBRANCH  38  39
ENDBRANCH  35  38
ENDBRANCH  32  33
ENDBRANCH  31  32
ENDBRANCH  30  31
ENDBRANCH  29  30
ENDBRANCH   1  29
TORSDOF 14
ENDMDL
MODEL 20
REMARK VINA RESULT:    -6.002      2.112      5.306
REMARK INTER + INTRA:         -17.347
REMARK INTER:                  -9.845
REMARK INTRA:                  -7.502
REMARK UNBOUND:                -6.783
REMARK  Name = cpd169.pdb
REMARK  14 active torsions:
REMARK  status: ('A' for Active; 'I' for Inactive)
REMARK    1  A    between atoms: N_1  and  C_2
REMARK    2  A    between atoms: C_8  and  C_9
REMARK    3  A    between atoms: N_15  and  C_16
REMARK    4  A    between atoms: C_16  and  C_17
REMARK    5  A    between atoms: C_17  and  C_18
REMARK    6  A    between atoms: C_18  and  C_19
REMARK    7  A    between atoms: C_19  and  C_20
REMARK    8  A    between atoms: C_20  and  C_21
REMARK    9  A    between atoms: C_21  and  C_22
REMARK   10  A    between atoms: N_24  and  C_25
REMARK   11  A    between atoms: C_25  and  C_26
REMARK   12  A    between atoms: C_26  and  N_27
REMARK   13  A    between atoms: N_27  and  C_28
REMARK   14  A    between atoms: C_46  and  N_47
REMARK                            x       y       z     vdW  Elec       q    Type
REMARK                         _______ _______ _______ _____ _____    ______ ____
ROOT
ATOM      1  C   UNL A   1      40.299 -16.289 -39.647  0.00  0.00    -0.035 C 
ENDROOT
BRANCH   1   2
ATOM      2  C   UNL A   1      41.238 -16.398 -38.444  0.00  0.00    +0.024 C 
BRANCH   2  10
ATOM      3  C   UNL A   1      46.249 -19.721 -40.158  0.00  0.00    +0.025 A 
ATOM      4  C   UNL A   1      45.824 -20.932 -39.644  0.00  0.00    -0.040 A 
ATOM      5  C   UNL A   1      44.612 -21.020 -38.954  0.00  0.00    -0.052 A 
ATOM      6  C   UNL A   1      43.744 -19.908 -38.785  0.00  0.00    -0.007 A 
ATOM      7  C   UNL A   1      44.141 -18.691 -39.361  0.00  0.00    +0.009 A 
ATOM      8  C   UNL A   1      45.383 -18.633 -40.054  0.00  0.00    -0.031 A 
ATOM      9  C   UNL A   1      43.291 -17.564 -39.244  0.00  0.00    +0.057 A 
ATOM     10  N   UNL A   1      42.101 -17.629 -38.563  0.00  0.00    -0.339 N 
ATOM     11  C   UNL A   1      41.693 -18.806 -37.974  0.00  0.00    +0.052 A 
ATOM     12  C   UNL A   1      40.469 -18.909 -37.261  0.00  0.00    -0.017 A 
ATOM     13  C   UNL A   1      40.041 -20.085 -36.642  0.00  0.00    +0.027 A 
ATOM     14  C   UNL A   1      40.805 -21.223 -36.815  0.00  0.00    -0.040 A 
ATOM     15  C   UNL A   1      42.019 -21.162 -37.498  0.00  0.00    -0.050 A 
ATOM     16  C   UNL A   1      42.503 -19.967 -38.087  0.00  0.00    +0.006 A 
BRANCH   9  17
ATOM     17  C   UNL A   1      43.655 -16.273 -39.856  0.00  0.00    -0.001 A 
ATOM     18  C   UNL A   1      44.207 -15.239 -39.078  0.00  0.00    -0.053 A 
ATOM     19  C   UNL A   1      44.535 -14.010 -39.655  0.00  0.00    -0.061 A 
ATOM     20  C   UNL A   1      44.314 -13.797 -41.014  0.00  0.00    -0.062 A 
ATOM     21  C   UNL A   1      43.749 -14.802 -41.795  0.00  0.00    -0.061 A 
ATOM     22  C   UNL A   1      43.412 -16.029 -41.221  0.00  0.00    -0.053 A 
ENDBRANCH   9  17
BRANCH   3  23
ATOM     23  N   UNL A   1      47.383 -19.650 -40.965  0.00  0.00    -0.358 N 
ATOM     24  H   UNL A   1      47.789 -20.474 -41.317  0.00  0.00    +0.000 HD
ATOM     25  H   UNL A   1      47.778 -18.775 -41.184  0.00  0.00    +0.000 HD
ENDBRANCH   3  23
BRANCH  13  26
ATOM     26  N   UNL A   1      38.767 -20.168 -36.084  0.00  0.00    -0.358 N 
ATOM     27  H   UNL A   1      38.080 -20.731 -36.508  0.00  0.00    +0.000 HD
ATOM     28  H   UNL A   1      38.554 -19.662 -35.267  0.00  0.00    +0.000 HD
ENDBRANCH  13  26
ENDBRANCH   2  10
ENDBRANCH   1   2
BRANCH   1  29
ATOM     29  C   UNL A   1      39.572 -14.941 -39.696  0.00  0.00    -0.051 C 
BRANCH  29  30
ATOM     30  C   UNL A   1      40.420 -13.854 -40.355  0.00  0.00    -0.053 C 
BRANCH  30  31
ATOM     31  C   UNL A   1      41.132 -12.972 -39.330  0.00  0.00    -0.048 C 
BRANCH  31  32
ATOM     32  C   UNL A   1      40.297 -12.858 -38.054  0.00  0.00    -0.007 C 
BRANCH  32  33
ATOM     33  C   UNL A   1      41.063 -13.191 -36.832  0.00  0.00    +0.083 A 
ATOM     34  C   UNL A   1      42.371 -12.915 -36.497  0.00  0.00    +0.049 A 
ATOM     35  N   UNL A   1      42.554 -13.586 -35.324  0.00  0.00    -0.250 N 
ATOM     36  N   UNL A   1      41.422 -14.190 -34.924  0.00  0.00    -0.065 NA
ATOM     37  N   UNL A   1      40.498 -13.957 -35.845  0.00  0.00    -0.135 NA
BRANCH  35  38
ATOM     38  C   UNL A   1      43.797 -13.828 -34.621  0.00  0.00    +0.059 C 
BRANCH  38  39
ATOM     39  C   UNL A   1      44.026 -15.325 -34.401  0.00  0.00    +0.029 C 
BRANCH  39  40
ATOM     40  N   UNL A   1      43.544 -16.128 -35.544  0.00  0.00    -0.341 N 
ATOM     41  H   UNL A   1      43.122 -15.749 -36.349  0.00  0.00    +0.000 HD
BRANCH  40  42
ATOM     42  C   UNL A   1      43.767 -17.525 -35.332  0.00  0.00    +0.041 A 
ATOM     43  C   UNL A   1      44.975 -18.128 -35.748  0.00  0.00    -0.005 A 
ATOM     44  C   UNL A   1      45.209 -19.447 -35.352  0.00  0.00    +0.047 A 
ATOM     45  N   UNL A   1      44.327 -20.172 -34.624  0.00  0.00    -0.251 NA
ATOM     46  C   UNL A   1      43.169 -19.609 -34.256  0.00  0.00    +0.073 A 
ATOM     47  C   UNL A   1      42.274 -20.373 -33.517  0.00  0.00    -0.036 A 
ATOM     48  C   UNL A   1      41.040 -19.869 -33.098  0.00  0.00    -0.060 A 
ATOM     49  C   UNL A   1      40.685 -18.570 -33.426  0.00  0.00    -0.061 A 
ATOM     50  C   UNL A   1      41.570 -17.785 -34.164  0.00  0.00    -0.051 A 
ATOM     51  C   UNL A   1      42.828 -18.283 -34.580  0.00  0.00    +0.021 A 
ATOM     52  C   UNL A   1      46.462 -20.187 -35.745  0.00  0.00    -0.010 C 
ATOM     53  C   UNL A   1      47.611 -19.262 -36.128  0.00  0.00    -0.047 C 
ATOM     54  C   UNL A   1      47.123 -18.232 -37.133  0.00  0.00    -0.049 C 
ATOM     55  C   UNL A   1      46.026 -17.365 -36.520  0.00  0.00    -0.024 C 
ENDBRANCH  40  42
ENDBRANCH  39  40
ENDBRANCH  38  39
ENDBRANCH  35  38
ENDBRANCH  32  33
ENDBRANCH  31  32
ENDBRANCH  30  31
ENDBRANCH  29  30
ENDBRANCH   1  29
TORSDOF 14
ENDMDL
