REMARK  Name = cpd169.pdb
REMARK  14 active torsions:
REMARK  status: ('A' for Active; 'I' for Inactive)
REMARK    1  A    between atoms: N_1  and  C_2
REMARK    2  A    between atoms: C_8  and  C_9
REMARK    3  A    between atoms: N_15  and  C_16
REMARK    4  A    between atoms: C_16  and  C_17
REMARK    5  A    between atoms: C_17  and  C_18
REMARK    6  A    between atoms: C_18  and  C_19
REMARK    7  A    between atoms: C_19  and  C_20
REMARK    8  A    between atoms: C_20  and  C_21
REMARK    9  A    between atoms: C_21  and  C_22
REMARK   10  A    between atoms: N_24  and  C_25
REMARK   11  A    between atoms: C_25  and  C_26
REMARK   12  A    between atoms: C_26  and  N_27
REMARK   13  A    between atoms: N_27  and  C_28
REMARK   14  A    between atoms: C_46  and  N_47
REMARK                            x       y       z     vdW  Elec       q    Type
REMARK                         _______ _______ _______ _____ _____    ______ ____
ROOT
ATOM      1  C   UNL A   1      -2.122   1.389   1.065  0.00  0.00    -0.035 C 
ENDROOT
BRANCH   1   2
ATOM      2  C   UNL A   1      -1.678   0.954  -0.333  0.00  0.00    +0.024 C 
BRANCH   2  10
ATOM      3  C   UNL A   1       1.828  -4.221  -0.193  0.00  0.00    +0.025 A 
ATOM      4  C   UNL A   1       3.048  -3.586  -0.050  0.00  0.00    -0.040 A 
ATOM      5  C   UNL A   1       3.121  -2.191  -0.038  0.00  0.00    -0.052 A 
ATOM      6  C   UNL A   1       1.970  -1.363  -0.121  0.00  0.00    -0.007 A 
ATOM      7  C   UNL A   1       0.723  -2.003  -0.201  0.00  0.00    +0.009 A 
ATOM      8  C   UNL A   1       0.683  -3.426  -0.216  0.00  0.00    -0.031 A 
ATOM      9  C   UNL A   1      -0.453  -1.216  -0.254  0.00  0.00    +0.057 A 
ATOM     10  N   UNL A   1      -0.401   0.156  -0.252  0.00  0.00    -0.339 N 
ATOM     11  C   UNL A   1       0.809   0.812  -0.190  0.00  0.00    +0.052 A 
ATOM     12  C   UNL A   1       0.900   2.229  -0.186  0.00  0.00    -0.017 A 
ATOM     13  C   UNL A   1       2.114   2.917  -0.140  0.00  0.00    +0.027 A 
ATOM     14  C   UNL A   1       3.273   2.178   0.003  0.00  0.00    -0.040 A 
ATOM     15  C   UNL A   1       3.228   0.784  -0.008  0.00  0.00    -0.050 A 
ATOM     16  C   UNL A   1       2.013   0.062  -0.111  0.00  0.00    +0.006 A 
BRANCH   9  17
ATOM     17  C   UNL A   1      -1.785  -1.846  -0.313  0.00  0.00    -0.001 A 
ATOM     18  C   UNL A   1      -2.465  -2.203   0.865  0.00  0.00    -0.053 A 
ATOM     19  C   UNL A   1      -3.719  -2.815   0.807  0.00  0.00    -0.061 A 
ATOM     20  C   UNL A   1      -4.308  -3.082  -0.427  0.00  0.00    -0.062 A 
ATOM     21  C   UNL A   1      -3.640  -2.754  -1.604  0.00  0.00    -0.061 A 
ATOM     22  C   UNL A   1      -2.383  -2.149  -1.551  0.00  0.00    -0.053 A 
ENDBRANCH   9  17
BRANCH   3  23
ATOM     23  N   UNL A   1       1.728  -5.605  -0.067  0.00  0.00    -0.358 N 
ATOM     24  H   UNL A   1       2.542  -6.158  -0.052  0.00  0.00    +0.000 HD
ATOM     25  H   UNL A   1       0.843  -6.030   0.007  0.00  0.00    +0.000 HD
ENDBRANCH   3  23
BRANCH  13  26
ATOM     26  N   UNL A   1       2.137   4.302   0.010  0.00  0.00    -0.358 N 
ATOM     27  H   UNL A   1       1.308   4.822  -0.093  0.00  0.00    +0.000 HD
ATOM     28  H   UNL A   1       2.983   4.760   0.219  0.00  0.00    +0.000 HD
ENDBRANCH  13  26
ENDBRANCH   2  10
ENDBRANCH   1   2
BRANCH   1  29
ATOM     29  C   UNL A   1      -3.535   1.982   1.067  0.00  0.00    -0.051 C 
BRANCH  29  30
ATOM     30  C   UNL A   1      -4.613   0.900   1.002  0.00  0.00    -0.053 C 
BRANCH  30  31
ATOM     31  C   UNL A   1      -6.018   1.487   0.871  0.00  0.00    -0.048 C 
BRANCH  31  32
ATOM     32  C   UNL A   1      -7.065   0.373   0.904  0.00  0.00    -0.007 C 
BRANCH  32  33
ATOM     33  C   UNL A   1      -8.405   0.828   0.468  0.00  0.00    +0.083 A 
ATOM     34  C   UNL A   1      -9.538   1.096   1.205  0.00  0.00    +0.049 A 
ATOM     35  N   UNL A   1     -10.491   1.335   0.259  0.00  0.00    -0.250 N 
ATOM     36  N   UNL A   1      -9.975   1.278  -0.981  0.00  0.00    -0.065 NA
ATOM     37  N   UNL A   1      -8.693   0.963  -0.865  0.00  0.00    -0.135 NA
BRANCH  35  38
ATOM     38  C   UNL A   1     -11.921   1.463   0.448  0.00  0.00    +0.059 C 
BRANCH  38  39
ATOM     39  C   UNL A   1     -12.595   0.091   0.523  0.00  0.00    +0.029 C 
BRANCH  39  40
ATOM     40  N   UNL A   1     -12.628  -0.576  -0.795  0.00  0.00    -0.341 N 
ATOM     41  H   UNL A   1     -12.549  -0.106  -1.657  0.00  0.00    +0.000 HD
BRANCH  40  42
ATOM     42  C   UNL A   1     -12.790  -1.991  -0.660  0.00  0.00    +0.041 A 
ATOM     43  C   UNL A   1     -11.663  -2.842  -0.642  0.00  0.00    -0.005 A 
ATOM     44  C   UNL A   1     -11.873  -4.187  -0.326  0.00  0.00    +0.047 A 
ATOM     45  N   UNL A   1     -13.096  -4.708  -0.070  0.00  0.00    -0.251 NA
ATOM     46  C   UNL A   1     -14.168  -3.906  -0.117  0.00  0.00    +0.073 A 
ATOM     47  C   UNL A   1     -15.415  -4.463   0.139  0.00  0.00    -0.036 A 
ATOM     48  C   UNL A   1     -16.586  -3.702   0.104  0.00  0.00    -0.060 A 
ATOM     49  C   UNL A   1     -16.516  -2.351  -0.199  0.00  0.00    -0.061 A 
ATOM     50  C   UNL A   1     -15.274  -1.772  -0.456  0.00  0.00    -0.051 A 
ATOM     51  C   UNL A   1     -14.081  -2.532  -0.408  0.00  0.00    +0.021 A 
ATOM     52  C   UNL A   1     -10.741  -5.182  -0.283  0.00  0.00    -0.010 C 
ATOM     53  C   UNL A   1      -9.375  -4.531  -0.099  0.00  0.00    -0.047 C 
ATOM     54  C   UNL A   1      -9.209  -3.402  -1.102  0.00  0.00    -0.049 C 
ATOM     55  C   UNL A   1     -10.263  -2.321  -0.869  0.00  0.00    -0.024 C 
ENDBRANCH  40  42
ENDBRANCH  39  40
ENDBRANCH  38  39
ENDBRANCH  35  38
ENDBRANCH  32  33
ENDBRANCH  31  32
ENDBRANCH  30  31
ENDBRANCH  29  30
ENDBRANCH   1  29
TORSDOF 14
