REMARK  Name = cpd151.pdb
REMARK  11 active torsions:
REMARK  status: ('A' for Active; 'I' for Inactive)
REMARK    1  A    between atoms: C_2  and  C_3
REMARK    2  A    between atoms: C_3  and  S_4
REMARK    3  A    between atoms: S_4  and  C_5
REMARK    4  A    between atoms: C_5  and  C_6
REMARK    5  A    between atoms: C_6  and  N_7
REMARK    6  A    between atoms: C_6  and  C_28
REMARK    7  A    between atoms: C_8  and  C_10
REMARK    8  A    between atoms: C_10  and  C_11
REMARK    9  A    between atoms: C_11  and  C_12
REMARK   10  A    between atoms: C_12  and  N_13
REMARK   11  A    between atoms: N_13  and  C_14
REMARK                            x       y       z     vdW  Elec       q    Type
REMARK                         _______ _______ _______ _____ _____    ______ ____
ROOT
ATOM      1  N   UNL A   1       3.374   2.032   0.193  0.00  0.00    -0.303 N 
ATOM      2  C   UNL A   1       4.039   2.238   1.374  0.00  0.00    +0.214 C 
ATOM      3  O   UNL A   1       3.610   2.975   2.258  0.00  0.00    -0.276 OA
ATOM      4  H   UNL A   1       3.802   1.490  -0.509  0.00  0.00    +0.000 HD
ENDROOT
BRANCH   1   5
ATOM      5  C   UNL A   1       2.048   2.594  -0.054  0.00  0.00    +0.109 C 
BRANCH   5   6
ATOM      6  C   UNL A   1       1.070   1.404  -0.136  0.00  0.00    +0.240 C 
ATOM      7  O   UNL A   1       1.478   0.294  -0.473  0.00  0.00    -0.273 OA
ATOM      8  N   UNL A   1      -0.235   1.757   0.129  0.00  0.00    -0.263 N 
ATOM      9  C   UNL A   1      -1.336   0.938   0.090  0.00  0.00    +0.165 A 
ATOM     10  N   UNL A   1      -2.520   1.404   0.405  0.00  0.00    -0.225 NA
ATOM     11  C   UNL A   1      -3.463   0.394   0.286  0.00  0.00    +0.080 A 
ATOM     12  C   UNL A   1      -4.844   0.513   0.544  0.00  0.00    -0.035 A 
ATOM     13  C   UNL A   1      -5.680  -0.597   0.381  0.00  0.00    -0.060 A 
ATOM     14  C   UNL A   1      -5.158  -1.818  -0.034  0.00  0.00    -0.061 A 
ATOM     15  C   UNL A   1      -3.793  -1.962  -0.297  0.00  0.00    -0.046 A 
ATOM     16  C   UNL A   1      -2.963  -0.841  -0.130  0.00  0.00    +0.041 A 
ATOM     17  S   UNL A   1      -1.268  -0.696  -0.372  0.00  0.00    -0.052 S 
ATOM     18  H   UNL A   1      -0.395   2.697   0.372  0.00  0.00    +0.000 HD
ENDBRANCH   5   6
BRANCH   5  19
ATOM     19  C   UNL A   1       1.978   3.377  -1.374  0.00  0.00    +0.022 C 
BRANCH  19  20
ATOM     20  S   UNL A   1       3.275   4.648  -1.622  0.00  0.00    -0.146 S 
BRANCH  20  21
ATOM     21  C   UNL A   1       2.989   5.696  -0.159  0.00  0.00    +0.055 C 
BRANCH  21  23
ATOM     22  C   UNL A   1       4.459   7.921  -0.279  0.00  0.00    -0.118 C 
ATOM     23  C   UNL A   1       3.795   6.921  -0.229  0.00  0.00    -0.095 C 
ENDBRANCH  21  23
ENDBRANCH  20  21
ENDBRANCH  19  20
ENDBRANCH   5  19
ENDBRANCH   1   5
BRANCH   2  24
ATOM     24  C   UNL A   1       5.327   1.457   1.534  0.00  0.00    +0.025 C 
BRANCH  24  25
ATOM     25  C   UNL A   1       6.236   1.550   0.311  0.00  0.00    -0.029 C 
BRANCH  25  26
ATOM     26  C   UNL A   1       7.640   1.038   0.623  0.00  0.00    +0.010 C 
BRANCH  26  27
ATOM     27  N   UNL A   1       8.396   0.941  -0.633  0.00  0.00    -0.343 N 
ATOM     28  H   UNL A   1       8.030   1.165  -1.519  0.00  0.00    +0.000 HD
BRANCH  27  29
ATOM     29  C   UNL A   1       9.729   0.481  -0.406  0.00  0.00    +0.041 A 
ATOM     30  C   UNL A   1       9.981  -0.905  -0.443  0.00  0.00    -0.005 A 
ATOM     31  C   UNL A   1      11.283  -1.332  -0.180  0.00  0.00    +0.047 A 
ATOM     32  N   UNL A   1      12.289  -0.487   0.145  0.00  0.00    -0.251 NA
ATOM     33  C   UNL A   1      12.044   0.829   0.195  0.00  0.00    +0.073 A 
ATOM     34  C   UNL A   1      13.098   1.672   0.524  0.00  0.00    -0.036 A 
ATOM     35  C   UNL A   1      12.942   3.057   0.606  0.00  0.00    -0.060 A 
ATOM     36  C   UNL A   1      11.702   3.621   0.356  0.00  0.00    -0.061 A 
ATOM     37  C   UNL A   1      10.628   2.795   0.024  0.00  0.00    -0.051 A 
ATOM     38  C   UNL A   1      10.776   1.385  -0.066  0.00  0.00    +0.021 A 
ATOM     39  C   UNL A   1      11.653  -2.793  -0.184  0.00  0.00    -0.010 C 
ATOM     40  C   UNL A   1      10.681  -3.660  -0.975  0.00  0.00    -0.047 C 
ATOM     41  C   UNL A   1       9.252  -3.343  -0.562  0.00  0.00    -0.049 C 
ATOM     42  C   UNL A   1       8.916  -1.885  -0.875  0.00  0.00    -0.024 C 
ENDBRANCH  27  29
ENDBRANCH  26  27
ENDBRANCH  25  26
ENDBRANCH  24  25
ENDBRANCH   2  24
TORSDOF 11
