@<TRIPOS>MOLECULE
*****
 39 43 0 0 0
SMALL
GASTEIGER

@<TRIPOS>ATOM
      1 C           5.3007    4.9945    0.0000 C.1     1  UNL1       -0.0133
      2 C           4.4347    4.4945    0.0000 C.1     1  UNL1       -0.0660
      3 C           3.5686    3.9945    0.0000 C.3     1  UNL1        0.1342
      4 S           3.5686    2.9945    0.0000 S.3     1  UNL1       -0.1237
      5 C           2.7026    2.4945    0.0000 C.3     1  UNL1        0.0896
      6 C           2.7026    1.4945    0.0000 C.3     1  UNL1        0.1838
      7 N           3.5686    0.9945    0.0000 N.am    1  UNL1       -0.1968
      8 C           4.4347    1.4945    0.0000 C.2     1  UNL1        0.2418
      9 O           4.4347    2.4945    0.0000 O.2     1  UNL1       -0.2733
     10 C           5.3007    0.9945    0.0000 C.3     1  UNL1        0.0887
     11 C           6.1667    1.4945    0.0000 C.3     1  UNL1        0.0329
     12 C           7.0327    0.9945    0.0000 C.3     1  UNL1        0.1127
     13 N           7.8988    1.4945    0.0000 N.pl3   1  UNL1       -0.2378
     14 C           8.7648    0.9945    0.0000 C.ar    1  UNL1        0.0638
     15 C           8.7648   -0.0055    0.0000 C.ar    1  UNL1        0.0062
     16 C           9.6308   -0.5055    0.0000 C.ar    1  UNL1        0.0562
     17 N          10.4968   -0.0055    0.0000 N.ar    1  UNL1       -0.2499
     18 C          10.4968    0.9945    0.0000 C.ar    1  UNL1        0.0821
     19 C          11.3629    1.4945    0.0000 C.ar    1  UNL1        0.0191
     20 C          11.3629    2.4945    0.0000 C.ar    1  UNL1        0.0015
     21 C          10.4968    2.9945    0.0000 C.ar    1  UNL1        0.0001
     22 C           9.6308    2.4945    0.0000 C.ar    1  UNL1        0.0028
     23 C           9.6308    1.4945    0.0000 C.ar    1  UNL1        0.0322
     24 C           9.6308   -1.5055    0.0000 C.3     1  UNL1        0.0455
     25 C           8.7648   -2.0055    0.0000 C.3     1  UNL1        0.0066
     26 C           7.8988   -1.5055    0.0000 C.3     1  UNL1        0.0052
     27 C           7.8988   -0.5055    0.0000 C.3     1  UNL1        0.0289
     28 C           1.8366    0.9945    0.0000 C.2     1  UNL1        0.2680
     29 O           1.8366   -0.0055    0.0000 O.2     1  UNL1       -0.2710
     30 N           0.9706    1.4945    0.0000 N.am    1  UNL1       -0.1528
     31 C           0.1045    0.9945    0.0000 C.ar    1  UNL1        0.1858
     32 N          -0.8090    1.4013    0.0000 N.ar    1  UNL1       -0.2225
     33 C          -1.4781    0.6581    0.0000 C.ar    1  UNL1        0.0893
     34 C          -2.4781    0.6581    0.0000 C.ar    1  UNL1        0.0197
     35 C          -2.9781   -0.2079    0.0000 C.ar    1  UNL1        0.0016
     36 C          -2.4781   -1.0739    0.0000 C.ar    1  UNL1        0.0006
     37 C          -1.4781   -1.0739    0.0000 C.ar    1  UNL1        0.0081
     38 C          -0.9781   -0.2079    0.0000 C.ar    1  UNL1        0.0498
     39 S          -0.0000   -0.0000    0.0000 S.2     1  UNL1       -0.0497
@<TRIPOS>BOND
     1     1     2    3
     2     2     3    1
     3     3     4    1
     4     4     5    1
     5     5     6    1
     6     6     7    1
     7     7     8   am
     8     8     9    2
     9     8    10    1
    10    10    11    1
    11    11    12    1
    12    12    13    1
    13    13    14    1
    14    14    15   ar
    15    15    16   ar
    16    16    17   ar
    17    17    18   ar
    18    18    19   ar
    19    19    20   ar
    20    20    21   ar
    21    21    22   ar
    22    22    23   ar
    23    14    23   ar
    24    18    23   ar
    25    16    24    1
    26    24    25    1
    27    25    26    1
    28    26    27    1
    29    15    27    1
    30     6    28    1
    31    28    29    2
    32    28    30   am
    33    30    31    1
    34    31    32   ar
    35    32    33   ar
    36    33    34   ar
    37    34    35   ar
    38    35    36   ar
    39    36    37   ar
    40    37    38   ar
    41    33    38   ar
    42    38    39   ar
    43    31    39   ar
