REMARK  Name = cpd245.pdb
REMARK  10 active torsions:
REMARK  status: ('A' for Active; 'I' for Inactive)
REMARK    1  A    between atoms: C_1  and  O_2
REMARK    2  A    between atoms: O_2  and  C_3
REMARK    3  A    between atoms: C_3  and  C_5
REMARK    4  A    between atoms: C_5  and  C_6
REMARK    5  A    between atoms: C_5  and  N_13
REMARK    6  A    between atoms: C_6  and  C_7
REMARK    7  A    between atoms: C_14  and  C_16
REMARK    8  A    between atoms: C_16  and  O_17
REMARK    9  A    between atoms: O_17  and  C_18
REMARK   10  A    between atoms: C_21  and  C_22
REMARK                            x       y       z     vdW  Elec       q    Type
REMARK                         _______ _______ _______ _____ _____    ______ ____
ROOT
ATOM      1  N   UNL A   1      -1.743   1.798  -0.938  0.00  0.00    -0.299 N 
ATOM      2  C   UNL A   1      -0.824   2.217   0.009  0.00  0.00    +0.251 C 
ATOM      3  O   UNL A   1      -1.081   2.266   1.208  0.00  0.00    -0.272 OA
ATOM      4  H   UNL A   1      -1.457   1.686  -1.873  0.00  0.00    +0.000 HD
ENDROOT
BRANCH   1   5
ATOM      5  C   UNL A   1      -3.144   1.517  -0.569  0.00  0.00    +0.124 C 
BRANCH   5   6
ATOM      6  C   UNL A   1      -3.859   2.867  -0.388  0.00  0.00    +0.328 C 
ATOM      7  O   UNL A   1      -3.524   3.884  -0.993  0.00  0.00    -0.249 OA
BRANCH   6   9
ATOM      8  C   UNL A   1      -5.664   4.006   0.574  0.00  0.00    +0.082 C 
ATOM      9  O   UNL A   1      -4.949   2.781   0.418  0.00  0.00    -0.467 OA
ENDBRANCH   6   9
ENDBRANCH   5   6
BRANCH   5  10
ATOM     10  C   UNL A   1      -3.278   0.534   0.611  0.00  0.00    +0.001 C 
BRANCH  10  11
ATOM     11  C   UNL A   1      -4.419  -0.446   0.434  0.00  0.00    -0.045 A 
ATOM     12  C   UNL A   1      -5.623  -0.279   1.129  0.00  0.00    -0.059 A 
ATOM     13  C   UNL A   1      -6.672  -1.183   0.954  0.00  0.00    -0.062 A 
ATOM     14  C   UNL A   1      -6.527  -2.263   0.087  0.00  0.00    -0.062 A 
ATOM     15  C   UNL A   1      -5.331  -2.443  -0.606  0.00  0.00    -0.062 A 
ATOM     16  C   UNL A   1      -4.282  -1.539  -0.434  0.00  0.00    -0.059 A 
ENDBRANCH  10  11
ENDBRANCH   5  10
ENDBRANCH   1   5
BRANCH   2  17
ATOM     17  C   UNL A   1       0.549   2.588  -0.566  0.00  0.00    +0.165 C 
BRANCH  17  18
ATOM     18  O   UNL A   1       1.646   1.970   0.090  0.00  0.00    -0.483 OA
BRANCH  18  19
ATOM     19  C   UNL A   1       1.782   0.615  -0.037  0.00  0.00    +0.121 A 
ATOM     20  C   UNL A   1       2.590   0.017   0.934  0.00  0.00    -0.019 A 
ATOM     21  C   UNL A   1       2.818  -1.361   0.921  0.00  0.00    -0.048 A 
ATOM     22  C   UNL A   1       2.240  -2.146  -0.077  0.00  0.00    +0.014 A 
ATOM     23  C   UNL A   1       1.441  -1.557  -1.060  0.00  0.00    -0.048 A 
ATOM     24  C   UNL A   1       1.217  -0.175  -1.040  0.00  0.00    -0.019 A 
BRANCH  22  25
ATOM     25  C   UNL A   1       2.470  -3.604  -0.107  0.00  0.00    +0.150 C 
ATOM     26  O   UNL A   1       3.173  -4.173   0.718  0.00  0.00    -0.296 OA
ENDBRANCH  22  25
ENDBRANCH  18  19
ENDBRANCH  17  18
ENDBRANCH   2  17
TORSDOF 9
