@<TRIPOS>MOLECULE
*****
 25 26 0 0 0
SMALL
GASTEIGER

@<TRIPOS>ATOM
      1 C          -5.1962    2.0000    0.0000 C.3     1  UNL1        0.2557
      2 O          -4.3301    1.5000    0.0000 O.3     1  UNL1       -0.4432
      3 C          -3.4641    2.0000    0.0000 C.2     1  UNL1        0.3374
      4 O          -3.4641    3.0000    0.0000 O.2     1  UNL1       -0.2482
      5 C          -2.5981    1.5000    0.0000 C.3     1  UNL1        0.1978
      6 C          -2.5981    0.5000    0.0000 C.3     1  UNL1        0.0594
      7 C          -3.4641    0.0000    0.0000 C.ar    1  UNL1       -0.0199
      8 C          -4.3301    0.5000    0.0000 C.ar    1  UNL1       -0.0042
      9 C          -5.1962   -0.0000    0.0000 C.ar    1  UNL1       -0.0003
     10 C          -5.1962   -1.0000    0.0000 C.ar    1  UNL1       -0.0000
     11 C          -4.3301   -1.5000    0.0000 C.ar    1  UNL1       -0.0003
     12 C          -3.4641   -1.0000    0.0000 C.ar    1  UNL1       -0.0042
     13 N          -1.7321    2.0000    0.0000 N.am    1  UNL1       -0.1922
     14 C          -0.8660    1.5000    0.0000 C.2     1  UNL1        0.2863
     15 O          -0.8660    0.5000    0.0000 O.2     1  UNL1       -0.2693
     16 C           0.0000    2.0000    0.0000 C.3     1  UNL1        0.2911
     17 O           0.8660    1.5000    0.0000 O.3     1  UNL1       -0.4656
     18 C           0.8660    0.5000    0.0000 C.ar    1  UNL1        0.1393
     19 C           1.7321   -0.0000    0.0000 C.ar    1  UNL1        0.0370
     20 C           1.7321   -1.0000    0.0000 C.ar    1  UNL1        0.0064
     21 C           0.8660   -1.5000    0.0000 C.ar    1  UNL1        0.0424
     22 C           0.8660   -2.5000    0.0000 C.2     1  UNL1        0.2342
     23 O           1.7321   -3.0000    0.0000 O.2     1  UNL1       -0.2831
     24 C           0.0000   -1.0000    0.0000 C.ar    1  UNL1        0.0064
     25 C           0.0000   -0.0000    0.0000 C.ar    1  UNL1        0.0370
@<TRIPOS>BOND
     1     1     2    1
     2     2     3    1
     3     3     4    2
     4     3     5    1
     5     5     6    1
     6     6     7    1
     7     7     8   ar
     8     8     9   ar
     9     9    10   ar
    10    10    11   ar
    11    11    12   ar
    12     7    12   ar
    13     5    13    1
    14    13    14   am
    15    14    15    2
    16    14    16    1
    17    16    17    1
    18    17    18    1
    19    18    19   ar
    20    19    20   ar
    21    20    21   ar
    22    21    22    1
    23    22    23    2
    24    21    24   ar
    25    24    25   ar
    26    18    25   ar
