MODEL 1
REMARK VINA RESULT:    -8.452      0.000      0.000
REMARK INTER + INTRA:         -13.357
REMARK INTER:                 -12.899
REMARK INTRA:                  -0.458
REMARK UNBOUND:                -0.458
REMARK  Name = cpd245.pdb
REMARK  10 active torsions:
REMARK  status: ('A' for Active; 'I' for Inactive)
REMARK    1  A    between atoms: C_1  and  O_2
REMARK    2  A    between atoms: O_2  and  C_3
REMARK    3  A    between atoms: C_3  and  C_5
REMARK    4  A    between atoms: C_5  and  C_6
REMARK    5  A    between atoms: C_5  and  N_13
REMARK    6  A    between atoms: C_6  and  C_7
REMARK    7  A    between atoms: C_14  and  C_16
REMARK    8  A    between atoms: C_16  and  O_17
REMARK    9  A    between atoms: O_17  and  C_18
REMARK   10  A    between atoms: C_21  and  C_22
REMARK                            x       y       z     vdW  Elec       q    Type
REMARK                         _______ _______ _______ _____ _____    ______ ____
ROOT
ATOM      1  N   UNL A   1      43.624 -39.829 -29.741  0.00  0.00    -0.299 N 
ATOM      2  C   UNL A   1      43.367 -38.633 -30.389  0.00  0.00    +0.251 C 
ATOM      3  O   UNL A   1      44.248 -37.957 -30.912  0.00  0.00    -0.272 OA
ATOM      4  H   UNL A   1      42.872 -40.378 -29.423  0.00  0.00    +0.000 HD
ENDROOT
BRANCH   1   5
ATOM      5  C   UNL A   1      45.007 -40.293 -29.518  0.00  0.00    +0.124 C 
BRANCH   5   6
ATOM      6  C   UNL A   1      44.934 -41.717 -28.940  0.00  0.00    +0.328 C 
ATOM      7  O   UNL A   1      45.029 -41.953 -27.737  0.00  0.00    -0.249 OA
BRANCH   6   9
ATOM      8  C   UNL A   1      45.525 -42.640 -31.009  0.00  0.00    +0.082 C 
ATOM      9  O   UNL A   1      44.650 -42.653 -29.882  0.00  0.00    -0.467 OA
ENDBRANCH   6   9
ENDBRANCH   5   6
BRANCH   5  10
ATOM     10  C   UNL A   1      45.863 -39.295 -28.713  0.00  0.00    +0.001 C 
BRANCH  10  11
ATOM     11  C   UNL A   1      47.203 -39.013 -29.359  0.00  0.00    -0.045 A 
ATOM     12  C   UNL A   1      47.924 -40.033 -29.991  0.00  0.00    -0.059 A 
ATOM     13  C   UNL A   1      49.155 -39.762 -30.591  0.00  0.00    -0.062 A 
ATOM     14  C   UNL A   1      49.677 -38.471 -30.563  0.00  0.00    -0.062 A 
ATOM     15  C   UNL A   1      48.971 -37.449 -29.932  0.00  0.00    -0.062 A 
ATOM     16  C   UNL A   1      47.739 -37.717 -29.334  0.00  0.00    -0.059 A 
ENDBRANCH  10  11
ENDBRANCH   5  10
ENDBRANCH   1   5
BRANCH   2  17
ATOM     17  C   UNL A   1      41.885 -38.239 -30.422  0.00  0.00    +0.165 C 
BRANCH  17  18
ATOM     18  O   UNL A   1      41.626 -36.976 -31.015  0.00  0.00    -0.483 OA
BRANCH  18  19
ATOM     19  C   UNL A   1      40.320 -36.599 -31.165  0.00  0.00    +0.121 A 
ATOM     20  C   UNL A   1      39.439 -37.166 -30.239  0.00  0.00    -0.019 A 
ATOM     21  C   UNL A   1      38.075 -36.870 -30.280  0.00  0.00    -0.048 A 
ATOM     22  C   UNL A   1      37.586 -36.007 -31.261  0.00  0.00    +0.014 A 
ATOM     23  C   UNL A   1      38.454 -35.445 -32.199  0.00  0.00    -0.048 A 
ATOM     24  C   UNL A   1      39.821 -35.746 -32.152  0.00  0.00    -0.019 A 
BRANCH  22  25
ATOM     25  C   UNL A   1      36.146 -35.684 -31.320  0.00  0.00    +0.150 C 
ATOM     26  O   UNL A   1      35.402 -35.832 -30.359  0.00  0.00    -0.296 OA
ENDBRANCH  22  25
ENDBRANCH  18  19
ENDBRANCH  17  18
ENDBRANCH   2  17
TORSDOF 9
ENDMDL
MODEL 2
REMARK VINA RESULT:    -8.029      2.161      9.073
REMARK INTER + INTRA:         -12.711
REMARK INTER:                 -12.866
REMARK INTRA:                   0.155
REMARK UNBOUND:                -0.458
REMARK  Name = cpd245.pdb
REMARK  10 active torsions:
REMARK  status: ('A' for Active; 'I' for Inactive)
REMARK    1  A    between atoms: C_1  and  O_2
REMARK    2  A    between atoms: O_2  and  C_3
REMARK    3  A    between atoms: C_3  and  C_5
REMARK    4  A    between atoms: C_5  and  C_6
REMARK    5  A    between atoms: C_5  and  N_13
REMARK    6  A    between atoms: C_6  and  C_7
REMARK    7  A    between atoms: C_14  and  C_16
REMARK    8  A    between atoms: C_16  and  O_17
REMARK    9  A    between atoms: O_17  and  C_18
REMARK   10  A    between atoms: C_21  and  C_22
REMARK                            x       y       z     vdW  Elec       q    Type
REMARK                         _______ _______ _______ _____ _____    ______ ____
ROOT
ATOM      1  N   UNL A   1      42.594 -38.952 -30.798  0.00  0.00    -0.299 N 
ATOM      2  C   UNL A   1      43.291 -39.559 -29.766  0.00  0.00    +0.251 C 
ATOM      3  O   UNL A   1      43.041 -39.350 -28.583  0.00  0.00    -0.272 OA
ATOM      4  H   UNL A   1      42.770 -39.226 -31.726  0.00  0.00    +0.000 HD
ENDROOT
BRANCH   1   5
ATOM      5  C   UNL A   1      41.594 -37.902 -30.528  0.00  0.00    +0.124 C 
BRANCH   5   6
ATOM      6  C   UNL A   1      42.190 -36.560 -30.986  0.00  0.00    +0.328 C 
ATOM      7  O   UNL A   1      43.238 -36.106 -30.529  0.00  0.00    -0.249 OA
BRANCH   6   9
ATOM      8  C   UNL A   1      40.933 -34.723 -31.711  0.00  0.00    +0.082 C 
ATOM      9  O   UNL A   1      41.497 -35.999 -32.011  0.00  0.00    -0.467 OA
ENDBRANCH   6   9
ENDBRANCH   5   6
BRANCH   5  10
ATOM     10  C   UNL A   1      41.057 -37.928 -29.083  0.00  0.00    +0.001 C 
BRANCH  10  11
ATOM     11  C   UNL A   1      39.547 -38.012 -29.017  0.00  0.00    -0.045 A 
ATOM     12  C   UNL A   1      38.915 -39.000 -28.253  0.00  0.00    -0.059 A 
ATOM     13  C   UNL A   1      37.522 -39.066 -28.192  0.00  0.00    -0.062 A 
ATOM     14  C   UNL A   1      36.748 -38.147 -28.896  0.00  0.00    -0.062 A 
ATOM     15  C   UNL A   1      37.365 -37.162 -29.665  0.00  0.00    -0.062 A 
ATOM     16  C   UNL A   1      38.758 -37.094 -29.725  0.00  0.00    -0.059 A 
ENDBRANCH  10  11
ENDBRANCH   5  10
ENDBRANCH   1   5
BRANCH   2  17
ATOM     17  C   UNL A   1      44.381 -40.533 -30.230  0.00  0.00    +0.165 C 
BRANCH  17  18
ATOM     18  O   UNL A   1      45.466 -40.673 -29.324  0.00  0.00    -0.483 OA
BRANCH  18  19
ATOM     19  C   UNL A   1      46.638 -40.038 -29.632  0.00  0.00    +0.121 A 
ATOM     20  C   UNL A   1      47.483 -40.756 -30.483  0.00  0.00    -0.019 A 
ATOM     21  C   UNL A   1      48.715 -40.226 -30.875  0.00  0.00    -0.048 A 
ATOM     22  C   UNL A   1      49.108 -38.973 -30.405  0.00  0.00    +0.014 A 
ATOM     23  C   UNL A   1      48.276 -38.253 -29.544  0.00  0.00    -0.048 A 
ATOM     24  C   UNL A   1      47.043 -38.790 -29.156  0.00  0.00    -0.019 A 
BRANCH  22  25
ATOM     25  C   UNL A   1      50.406 -38.398 -30.809  0.00  0.00    +0.150 C 
ATOM     26  O   UNL A   1      51.467 -38.976 -30.614  0.00  0.00    -0.296 OA
ENDBRANCH  22  25
ENDBRANCH  18  19
ENDBRANCH  17  18
ENDBRANCH   2  17
TORSDOF 9
ENDMDL
MODEL 3
REMARK VINA RESULT:    -7.159      5.212      8.002
REMARK INTER + INTRA:         -11.383
REMARK INTER:                 -10.557
REMARK INTRA:                  -0.825
REMARK UNBOUND:                -0.458
REMARK  Name = cpd245.pdb
REMARK  10 active torsions:
REMARK  status: ('A' for Active; 'I' for Inactive)
REMARK    1  A    between atoms: C_1  and  O_2
REMARK    2  A    between atoms: O_2  and  C_3
REMARK    3  A    between atoms: C_3  and  C_5
REMARK    4  A    between atoms: C_5  and  C_6
REMARK    5  A    between atoms: C_5  and  N_13
REMARK    6  A    between atoms: C_6  and  C_7
REMARK    7  A    between atoms: C_14  and  C_16
REMARK    8  A    between atoms: C_16  and  O_17
REMARK    9  A    between atoms: O_17  and  C_18
REMARK   10  A    between atoms: C_21  and  C_22
REMARK                            x       y       z     vdW  Elec       q    Type
REMARK                         _______ _______ _______ _____ _____    ______ ____
ROOT
ATOM      1  N   UNL A   1      36.596 -36.649 -29.109  0.00  0.00    -0.299 N 
ATOM      2  C   UNL A   1      35.959 -36.048 -30.181  0.00  0.00    +0.251 C 
ATOM      3  O   UNL A   1      35.960 -36.529 -31.310  0.00  0.00    -0.272 OA
ATOM      4  H   UNL A   1      36.484 -36.272 -28.207  0.00  0.00    +0.000 HD
ENDROOT
BRANCH   1   5
ATOM      5  C   UNL A   1      37.441 -37.844 -29.297  0.00  0.00    +0.124 C 
BRANCH   5   6
ATOM      6  C   UNL A   1      36.672 -39.053 -28.736  0.00  0.00    +0.328 C 
ATOM      7  O   UNL A   1      36.146 -39.049 -27.624  0.00  0.00    -0.249 OA
BRANCH   6   9
ATOM      8  C   UNL A   1      35.450 -39.921 -30.534  0.00  0.00    +0.082 C 
ATOM      9  O   UNL A   1      36.550 -40.062 -29.636  0.00  0.00    -0.467 OA
ENDBRANCH   6   9
ENDBRANCH   5   6
BRANCH   5  10
ATOM     10  C   UNL A   1      38.876 -37.666 -28.761  0.00  0.00    +0.001 C 
BRANCH  10  11
ATOM     11  C   UNL A   1      39.904 -37.533 -29.865  0.00  0.00    -0.045 A 
ATOM     12  C   UNL A   1      39.613 -36.820 -31.035  0.00  0.00    -0.059 A 
ATOM     13  C   UNL A   1      40.569 -36.696 -32.044  0.00  0.00    -0.062 A 
ATOM     14  C   UNL A   1      41.823 -37.285 -31.896  0.00  0.00    -0.062 A 
ATOM     15  C   UNL A   1      42.122 -38.001 -30.738  0.00  0.00    -0.062 A 
ATOM     16  C   UNL A   1      41.168 -38.125 -29.727  0.00  0.00    -0.059 A 
ENDBRANCH  10  11
ENDBRANCH   5  10
ENDBRANCH   1   5
BRANCH   2  17
ATOM     17  C   UNL A   1      35.229 -34.745 -29.831  0.00  0.00    +0.165 C 
BRANCH  17  18
ATOM     18  O   UNL A   1      35.035 -33.867 -30.930  0.00  0.00    -0.483 OA
BRANCH  18  19
ATOM     19  C   UNL A   1      33.843 -33.201 -31.010  0.00  0.00    +0.121 A 
ATOM     20  C   UNL A   1      33.794 -32.006 -30.287  0.00  0.00    -0.019 A 
ATOM     21  C   UNL A   1      32.635 -31.226 -30.277  0.00  0.00    -0.048 A 
ATOM     22  C   UNL A   1      31.513 -31.650 -30.990  0.00  0.00    +0.014 A 
ATOM     23  C   UNL A   1      31.547 -32.849 -31.705  0.00  0.00    -0.048 A 
ATOM     24  C   UNL A   1      32.712 -33.625 -31.710  0.00  0.00    -0.019 A 
BRANCH  22  25
ATOM     25  C   UNL A   1      30.279 -30.839 -30.991  0.00  0.00    +0.150 C 
ATOM     26  O   UNL A   1      29.963 -30.131 -31.938  0.00  0.00    -0.296 OA
ENDBRANCH  22  25
ENDBRANCH  18  19
ENDBRANCH  17  18
ENDBRANCH   2  17
TORSDOF 9
ENDMDL
MODEL 4
REMARK VINA RESULT:    -6.858      5.764      8.735
REMARK INTER + INTRA:         -10.924
REMARK INTER:                 -10.540
REMARK INTRA:                  -0.384
REMARK UNBOUND:                -0.458
REMARK  Name = cpd245.pdb
REMARK  10 active torsions:
REMARK  status: ('A' for Active; 'I' for Inactive)
REMARK    1  A    between atoms: C_1  and  O_2
REMARK    2  A    between atoms: O_2  and  C_3
REMARK    3  A    between atoms: C_3  and  C_5
REMARK    4  A    between atoms: C_5  and  C_6
REMARK    5  A    between atoms: C_5  and  N_13
REMARK    6  A    between atoms: C_6  and  C_7
REMARK    7  A    between atoms: C_14  and  C_16
REMARK    8  A    between atoms: C_16  and  O_17
REMARK    9  A    between atoms: O_17  and  C_18
REMARK   10  A    between atoms: C_21  and  C_22
REMARK                            x       y       z     vdW  Elec       q    Type
REMARK                         _______ _______ _______ _____ _____    ______ ____
ROOT
ATOM      1  N   UNL A   1      35.772 -36.828 -31.401  0.00  0.00    -0.299 N 
ATOM      2  C   UNL A   1      35.133 -35.682 -30.960  0.00  0.00    +0.251 C 
ATOM      3  O   UNL A   1      35.476 -35.077 -29.949  0.00  0.00    -0.272 OA
ATOM      4  H   UNL A   1      35.520 -37.220 -32.268  0.00  0.00    +0.000 HD
ENDROOT
BRANCH   1   5
ATOM      5  C   UNL A   1      36.825 -37.473 -30.593  0.00  0.00    +0.124 C 
BRANCH   5   6
ATOM      6  C   UNL A   1      36.133 -38.265 -29.471  0.00  0.00    +0.328 C 
ATOM      7  O   UNL A   1      35.283 -39.126 -29.690  0.00  0.00    -0.249 OA
BRANCH   6   9
ATOM      8  C   UNL A   1      35.683 -37.476 -27.313  0.00  0.00    +0.082 C 
ATOM      9  O   UNL A   1      36.639 -37.986 -28.241  0.00  0.00    -0.467 OA
ENDBRANCH   6   9
ENDBRANCH   5   6
BRANCH   5  10
ATOM     10  C   UNL A   1      37.924 -36.494 -30.132  0.00  0.00    +0.001 C 
BRANCH  10  11
ATOM     11  C   UNL A   1      39.167 -36.556 -30.995  0.00  0.00    -0.045 A 
ATOM     12  C   UNL A   1      40.305 -37.250 -30.567  0.00  0.00    -0.059 A 
ATOM     13  C   UNL A   1      41.443 -37.308 -31.372  0.00  0.00    -0.062 A 
ATOM     14  C   UNL A   1      41.457 -36.671 -32.610  0.00  0.00    -0.062 A 
ATOM     15  C   UNL A   1      40.332 -35.972 -33.046  0.00  0.00    -0.062 A 
ATOM     16  C   UNL A   1      39.192 -35.915 -32.243  0.00  0.00    -0.059 A 
ENDBRANCH  10  11
ENDBRANCH   5  10
ENDBRANCH   1   5
BRANCH   2  17
ATOM     17  C   UNL A   1      33.978 -35.219 -31.858  0.00  0.00    +0.165 C 
BRANCH  17  18
ATOM     18  O   UNL A   1      34.056 -33.859 -32.259  0.00  0.00    -0.483 OA
BRANCH  18  19
ATOM     19  C   UNL A   1      33.256 -32.958 -31.611  0.00  0.00    +0.121 A 
ATOM     20  C   UNL A   1      31.885 -33.191 -31.749  0.00  0.00    -0.019 A 
ATOM     21  C   UNL A   1      30.954 -32.345 -31.143  0.00  0.00    -0.048 A 
ATOM     22  C   UNL A   1      31.398 -31.252 -30.398  0.00  0.00    +0.014 A 
ATOM     23  C   UNL A   1      32.766 -31.003 -30.263  0.00  0.00    -0.048 A 
ATOM     24  C   UNL A   1      33.693 -31.856 -30.875  0.00  0.00    -0.019 A 
BRANCH  22  25
ATOM     25  C   UNL A   1      30.428 -30.347 -29.749  0.00  0.00    +0.150 C 
ATOM     26  O   UNL A   1      30.244 -30.344 -28.539  0.00  0.00    -0.296 OA
ENDBRANCH  22  25
ENDBRANCH  18  19
ENDBRANCH  17  18
ENDBRANCH   2  17
TORSDOF 9
ENDMDL
MODEL 5
REMARK VINA RESULT:    -6.632     15.653     19.501
REMARK INTER + INTRA:         -10.579
REMARK INTER:                 -10.046
REMARK INTRA:                  -0.533
REMARK UNBOUND:                -0.458
REMARK  Name = cpd245.pdb
REMARK  10 active torsions:
REMARK  status: ('A' for Active; 'I' for Inactive)
REMARK    1  A    between atoms: C_1  and  O_2
REMARK    2  A    between atoms: O_2  and  C_3
REMARK    3  A    between atoms: C_3  and  C_5
REMARK    4  A    between atoms: C_5  and  C_6
REMARK    5  A    between atoms: C_5  and  N_13
REMARK    6  A    between atoms: C_6  and  C_7
REMARK    7  A    between atoms: C_14  and  C_16
REMARK    8  A    between atoms: C_16  and  O_17
REMARK    9  A    between atoms: O_17  and  C_18
REMARK   10  A    between atoms: C_21  and  C_22
REMARK                            x       y       z     vdW  Elec       q    Type
REMARK                         _______ _______ _______ _____ _____    ______ ____
ROOT
ATOM      1  N   UNL A   1      39.760 -21.976 -35.194  0.00  0.00    -0.299 N 
ATOM      2  C   UNL A   1      40.594 -22.210 -36.274  0.00  0.00    +0.251 C 
ATOM      3  O   UNL A   1      41.312 -23.201 -36.356  0.00  0.00    -0.272 OA
ATOM      4  H   UNL A   1      39.134 -21.217 -35.221  0.00  0.00    +0.000 HD
ENDROOT
BRANCH   1   5
ATOM      5  C   UNL A   1      39.795 -22.845 -34.001  0.00  0.00    +0.124 C 
BRANCH   5   6
ATOM      6  C   UNL A   1      38.718 -23.929 -34.183  0.00  0.00    +0.328 C 
ATOM      7  O   UNL A   1      38.354 -24.328 -35.288  0.00  0.00    -0.249 OA
BRANCH   6   9
ATOM      8  C   UNL A   1      37.254 -25.420 -33.127  0.00  0.00    +0.082 C 
ATOM      9  O   UNL A   1      38.303 -24.461 -33.003  0.00  0.00    -0.467 OA
ENDBRANCH   6   9
ENDBRANCH   5   6
BRANCH   5  10
ATOM     10  C   UNL A   1      39.729 -22.063 -32.675  0.00  0.00    +0.001 C 
BRANCH  10  11
ATOM     11  C   UNL A   1      38.715 -20.939 -32.704  0.00  0.00    -0.045 A 
ATOM     12  C   UNL A   1      37.341 -21.211 -32.701  0.00  0.00    -0.059 A 
ATOM     13  C   UNL A   1      36.413 -20.168 -32.720  0.00  0.00    -0.062 A 
ATOM     14  C   UNL A   1      36.849 -18.845 -32.747  0.00  0.00    -0.062 A 
ATOM     15  C   UNL A   1      38.213 -18.562 -32.756  0.00  0.00    -0.062 A 
ATOM     16  C   UNL A   1      39.142 -19.603 -32.734  0.00  0.00    -0.059 A 
ENDBRANCH  10  11
ENDBRANCH   5  10
ENDBRANCH   1   5
BRANCH   2  17
ATOM     17  C   UNL A   1      40.520 -21.139 -37.370  0.00  0.00    +0.165 C 
BRANCH  17  18
ATOM     18  O   UNL A   1      41.692 -20.347 -37.495  0.00  0.00    -0.483 OA
BRANCH  18  19
ATOM     19  C   UNL A   1      42.551 -20.639 -38.519  0.00  0.00    +0.121 A 
ATOM     20  C   UNL A   1      41.928 -20.965 -39.727  0.00  0.00    -0.019 A 
ATOM     21  C   UNL A   1      42.686 -21.289 -40.855  0.00  0.00    -0.048 A 
ATOM     22  C   UNL A   1      44.079 -21.294 -40.771  0.00  0.00    +0.014 A 
ATOM     23  C   UNL A   1      44.712 -20.982 -39.565  0.00  0.00    -0.048 A 
ATOM     24  C   UNL A   1      43.945 -20.659 -38.439  0.00  0.00    -0.019 A 
BRANCH  22  25
ATOM     25  C   UNL A   1      44.897 -21.634 -41.952  0.00  0.00    +0.150 C 
ATOM     26  O   UNL A   1      45.595 -22.639 -41.998  0.00  0.00    -0.296 OA
ENDBRANCH  22  25
ENDBRANCH  18  19
ENDBRANCH  17  18
ENDBRANCH   2  17
TORSDOF 9
ENDMDL
MODEL 6
REMARK VINA RESULT:    -6.588      4.311     10.884
REMARK INTER + INTRA:         -10.512
REMARK INTER:                  -9.790
REMARK INTRA:                  -0.722
REMARK UNBOUND:                -0.458
REMARK  Name = cpd245.pdb
REMARK  10 active torsions:
REMARK  status: ('A' for Active; 'I' for Inactive)
REMARK    1  A    between atoms: C_1  and  O_2
REMARK    2  A    between atoms: O_2  and  C_3
REMARK    3  A    between atoms: C_3  and  C_5
REMARK    4  A    between atoms: C_5  and  C_6
REMARK    5  A    between atoms: C_5  and  N_13
REMARK    6  A    between atoms: C_6  and  C_7
REMARK    7  A    between atoms: C_14  and  C_16
REMARK    8  A    between atoms: C_16  and  O_17
REMARK    9  A    between atoms: O_17  and  C_18
REMARK   10  A    between atoms: C_21  and  C_22
REMARK                            x       y       z     vdW  Elec       q    Type
REMARK                         _______ _______ _______ _____ _____    ______ ____
ROOT
ATOM      1  N   UNL A   1      35.034 -37.014 -29.791  0.00  0.00    -0.299 N 
ATOM      2  C   UNL A   1      35.773 -37.723 -28.858  0.00  0.00    +0.251 C 
ATOM      3  O   UNL A   1      35.281 -38.184 -27.833  0.00  0.00    -0.272 OA
ATOM      4  H   UNL A   1      35.455 -36.749 -30.640  0.00  0.00    +0.000 HD
ENDROOT
BRANCH   1   5
ATOM      5  C   UNL A   1      33.628 -36.650 -29.532  0.00  0.00    +0.124 C 
BRANCH   5   6
ATOM      6  C   UNL A   1      32.865 -36.760 -30.864  0.00  0.00    +0.328 C 
ATOM      7  O   UNL A   1      31.643 -36.647 -30.942  0.00  0.00    -0.249 OA
BRANCH   6   9
ATOM      8  C   UNL A   1      33.175 -36.329 -33.144  0.00  0.00    +0.082 C 
ATOM      9  O   UNL A   1      33.691 -36.883 -31.935  0.00  0.00    -0.467 OA
ENDBRANCH   6   9
ENDBRANCH   5   6
BRANCH   5  10
ATOM     10  C   UNL A   1      33.472 -35.309 -28.789  0.00  0.00    +0.001 C 
BRANCH  10  11
ATOM     11  C   UNL A   1      33.769 -34.111 -29.667  0.00  0.00    -0.045 A 
ATOM     12  C   UNL A   1      35.060 -33.884 -30.158  0.00  0.00    -0.059 A 
ATOM     13  C   UNL A   1      35.323 -32.781 -30.973  0.00  0.00    -0.062 A 
ATOM     14  C   UNL A   1      34.300 -31.895 -31.301  0.00  0.00    -0.062 A 
ATOM     15  C   UNL A   1      33.012 -32.108 -30.813  0.00  0.00    -0.062 A 
ATOM     16  C   UNL A   1      32.747 -33.211 -30.001  0.00  0.00    -0.059 A 
ENDBRANCH  10  11
ENDBRANCH   5  10
ENDBRANCH   1   5
BRANCH   2  17
ATOM     17  C   UNL A   1      37.250 -37.904 -29.230  0.00  0.00    +0.165 C 
BRANCH  17  18
ATOM     18  O   UNL A   1      37.790 -36.852 -30.016  0.00  0.00    -0.483 OA
BRANCH  18  19
ATOM     19  C   UNL A   1      39.101 -36.950 -30.396  0.00  0.00    +0.121 A 
ATOM     20  C   UNL A   1      39.877 -37.795 -29.599  0.00  0.00    -0.019 A 
ATOM     21  C   UNL A   1      41.234 -37.984 -29.871  0.00  0.00    -0.048 A 
ATOM     22  C   UNL A   1      41.821 -37.315 -30.945  0.00  0.00    +0.014 A 
ATOM     23  C   UNL A   1      41.057 -36.457 -31.741  0.00  0.00    -0.048 A 
ATOM     24  C   UNL A   1      39.698 -36.273 -31.461  0.00  0.00    -0.019 A 
BRANCH  22  25
ATOM     25  C   UNL A   1      43.253 -37.502 -31.249  0.00  0.00    +0.150 C 
ATOM     26  O   UNL A   1      44.130 -36.845 -30.702  0.00  0.00    -0.296 OA
ENDBRANCH  22  25
ENDBRANCH  18  19
ENDBRANCH  17  18
ENDBRANCH   2  17
TORSDOF 9
ENDMDL
MODEL 7
REMARK VINA RESULT:    -6.464      6.244      9.519
REMARK INTER + INTRA:         -10.323
REMARK INTER:                  -9.288
REMARK INTRA:                  -1.035
REMARK UNBOUND:                -0.458
REMARK  Name = cpd245.pdb
REMARK  10 active torsions:
REMARK  status: ('A' for Active; 'I' for Inactive)
REMARK    1  A    between atoms: C_1  and  O_2
REMARK    2  A    between atoms: O_2  and  C_3
REMARK    3  A    between atoms: C_3  and  C_5
REMARK    4  A    between atoms: C_5  and  C_6
REMARK    5  A    between atoms: C_5  and  N_13
REMARK    6  A    between atoms: C_6  and  C_7
REMARK    7  A    between atoms: C_14  and  C_16
REMARK    8  A    between atoms: C_16  and  O_17
REMARK    9  A    between atoms: O_17  and  C_18
REMARK   10  A    between atoms: C_21  and  C_22
REMARK                            x       y       z     vdW  Elec       q    Type
REMARK                         _______ _______ _______ _____ _____    ______ ____
ROOT
ATOM      1  N   UNL A   1      35.264 -37.571 -28.032  0.00  0.00    -0.299 N 
ATOM      2  C   UNL A   1      34.336 -36.720 -28.609  0.00  0.00    +0.251 C 
ATOM      3  O   UNL A   1      34.205 -36.604 -29.823  0.00  0.00    -0.272 OA
ATOM      4  H   UNL A   1      35.263 -37.698 -27.057  0.00  0.00    +0.000 HD
ENDROOT
BRANCH   1   5
ATOM      5  C   UNL A   1      36.255 -38.289 -28.857  0.00  0.00    +0.124 C 
BRANCH   5   6
ATOM      6  C   UNL A   1      35.907 -39.787 -28.805  0.00  0.00    +0.328 C 
ATOM      7  O   UNL A   1      35.471 -40.334 -27.793  0.00  0.00    -0.249 OA
BRANCH   6   9
ATOM      8  C   UNL A   1      35.715 -39.568 -31.128  0.00  0.00    +0.082 C 
ATOM      9  O   UNL A   1      36.032 -40.398 -30.011  0.00  0.00    -0.467 OA
ENDBRANCH   6   9
ENDBRANCH   5   6
BRANCH   5  10
ATOM     10  C   UNL A   1      37.713 -37.936 -28.504  0.00  0.00    +0.001 C 
BRANCH  10  11
ATOM     11  C   UNL A   1      38.460 -37.297 -29.657  0.00  0.00    -0.045 A 
ATOM     12  C   UNL A   1      37.783 -36.533 -30.615  0.00  0.00    -0.059 A 
ATOM     13  C   UNL A   1      38.480 -35.942 -31.670  0.00  0.00    -0.062 A 
ATOM     14  C   UNL A   1      39.858 -36.112 -31.779  0.00  0.00    -0.062 A 
ATOM     15  C   UNL A   1      40.542 -36.875 -30.835  0.00  0.00    -0.062 A 
ATOM     16  C   UNL A   1      39.847 -37.465 -29.778  0.00  0.00    -0.059 A 
ENDBRANCH  10  11
ENDBRANCH   5  10
ENDBRANCH   1   5
BRANCH   2  17
ATOM     17  C   UNL A   1      33.469 -35.957 -27.599  0.00  0.00    +0.165 C 
BRANCH  17  18
ATOM     18  O   UNL A   1      32.582 -36.775 -26.850  0.00  0.00    -0.483 OA
BRANCH  18  19
ATOM     19  C   UNL A   1      32.879 -36.995 -25.533  0.00  0.00    +0.121 A 
ATOM     20  C   UNL A   1      33.206 -38.318 -25.223  0.00  0.00    -0.019 A 
ATOM     21  C   UNL A   1      33.526 -38.683 -23.913  0.00  0.00    -0.048 A 
ATOM     22  C   UNL A   1      33.510 -37.720 -22.905  0.00  0.00    +0.014 A 
ATOM     23  C   UNL A   1      33.172 -36.397 -23.202  0.00  0.00    -0.048 A 
ATOM     24  C   UNL A   1      32.853 -36.038 -24.517  0.00  0.00    -0.019 A 
BRANCH  22  25
ATOM     25  C   UNL A   1      33.846 -38.088 -21.515  0.00  0.00    +0.150 C 
ATOM     26  O   UNL A   1      33.080 -37.887 -20.581  0.00  0.00    -0.296 OA
ENDBRANCH  22  25
ENDBRANCH  18  19
ENDBRANCH  17  18
ENDBRANCH   2  17
TORSDOF 9
ENDMDL
MODEL 8
REMARK VINA RESULT:    -6.443      7.544     10.650
REMARK INTER + INTRA:         -10.290
REMARK INTER:                  -9.143
REMARK INTRA:                  -1.147
REMARK UNBOUND:                -0.458
REMARK  Name = cpd245.pdb
REMARK  10 active torsions:
REMARK  status: ('A' for Active; 'I' for Inactive)
REMARK    1  A    between atoms: C_1  and  O_2
REMARK    2  A    between atoms: O_2  and  C_3
REMARK    3  A    between atoms: C_3  and  C_5
REMARK    4  A    between atoms: C_5  and  C_6
REMARK    5  A    between atoms: C_5  and  N_13
REMARK    6  A    between atoms: C_6  and  C_7
REMARK    7  A    between atoms: C_14  and  C_16
REMARK    8  A    between atoms: C_16  and  O_17
REMARK    9  A    between atoms: O_17  and  C_18
REMARK   10  A    between atoms: C_21  and  C_22
REMARK                            x       y       z     vdW  Elec       q    Type
REMARK                         _______ _______ _______ _____ _____    ______ ____
ROOT
ATOM      1  N   UNL A   1      34.256 -36.597 -31.400  0.00  0.00    -0.299 N 
ATOM      2  C   UNL A   1      33.291 -37.587 -31.469  0.00  0.00    +0.251 C 
ATOM      3  O   UNL A   1      32.130 -37.409 -31.113  0.00  0.00    -0.272 OA
ATOM      4  H   UNL A   1      35.146 -36.762 -31.787  0.00  0.00    +0.000 HD
ENDROOT
BRANCH   1   5
ATOM      5  C   UNL A   1      33.973 -35.299 -30.758  0.00  0.00    +0.124 C 
BRANCH   5   6
ATOM      6  C   UNL A   1      33.979 -34.223 -31.857  0.00  0.00    +0.328 C 
ATOM      7  O   UNL A   1      33.293 -34.306 -32.874  0.00  0.00    -0.249 OA
BRANCH   6   9
ATOM      8  C   UNL A   1      33.985 -31.935 -31.357  0.00  0.00    +0.082 C 
ATOM      9  O   UNL A   1      34.730 -33.140 -31.528  0.00  0.00    -0.467 OA
ENDBRANCH   6   9
ENDBRANCH   5   6
BRANCH   5  10
ATOM     10  C   UNL A   1      34.878 -35.010 -29.544  0.00  0.00    +0.001 C 
BRANCH  10  11
ATOM     11  C   UNL A   1      36.077 -35.932 -29.471  0.00  0.00    -0.045 A 
ATOM     12  C   UNL A   1      37.098 -35.859 -30.427  0.00  0.00    -0.059 A 
ATOM     13  C   UNL A   1      38.203 -36.707 -30.348  0.00  0.00    -0.062 A 
ATOM     14  C   UNL A   1      38.298 -37.638 -29.316  0.00  0.00    -0.062 A 
ATOM     15  C   UNL A   1      37.285 -37.724 -28.362  0.00  0.00    -0.062 A 
ATOM     16  C   UNL A   1      36.181 -36.875 -28.438  0.00  0.00    -0.059 A 
ENDBRANCH  10  11
ENDBRANCH   5  10
ENDBRANCH   1   5
BRANCH   2  17
ATOM     17  C   UNL A   1      33.790 -38.915 -32.052  0.00  0.00    +0.165 C 
BRANCH  17  18
ATOM     18  O   UNL A   1      35.012 -39.377 -31.496  0.00  0.00    -0.483 OA
BRANCH  18  19
ATOM     19  C   UNL A   1      34.945 -40.210 -30.414  0.00  0.00    +0.121 A 
ATOM     20  C   UNL A   1      36.185 -40.618 -29.914  0.00  0.00    -0.019 A 
ATOM     21  C   UNL A   1      36.262 -41.474 -28.813  0.00  0.00    -0.048 A 
ATOM     22  C   UNL A   1      35.090 -41.932 -28.212  0.00  0.00    +0.014 A 
ATOM     23  C   UNL A   1      33.845 -41.541 -28.711  0.00  0.00    -0.048 A 
ATOM     24  C   UNL A   1      33.775 -40.683 -29.815  0.00  0.00    -0.019 A 
BRANCH  22  25
ATOM     25  C   UNL A   1      35.152 -42.837 -27.047  0.00  0.00    +0.150 C 
ATOM     26  O   UNL A   1      34.620 -43.940 -27.045  0.00  0.00    -0.296 OA
ENDBRANCH  22  25
ENDBRANCH  18  19
ENDBRANCH  17  18
ENDBRANCH   2  17
TORSDOF 9
ENDMDL
MODEL 9
REMARK VINA RESULT:    -6.396      5.215     10.176
REMARK INTER + INTRA:         -10.218
REMARK INTER:                  -9.079
REMARK INTRA:                  -1.139
REMARK UNBOUND:                -0.458
REMARK  Name = cpd245.pdb
REMARK  10 active torsions:
REMARK  status: ('A' for Active; 'I' for Inactive)
REMARK    1  A    between atoms: C_1  and  O_2
REMARK    2  A    between atoms: O_2  and  C_3
REMARK    3  A    between atoms: C_3  and  C_5
REMARK    4  A    between atoms: C_5  and  C_6
REMARK    5  A    between atoms: C_5  and  N_13
REMARK    6  A    between atoms: C_6  and  C_7
REMARK    7  A    between atoms: C_14  and  C_16
REMARK    8  A    between atoms: C_16  and  O_17
REMARK    9  A    between atoms: O_17  and  C_18
REMARK   10  A    between atoms: C_21  and  C_22
REMARK                            x       y       z     vdW  Elec       q    Type
REMARK                         _______ _______ _______ _____ _____    ______ ____
ROOT
ATOM      1  N   UNL A   1      34.820 -36.036 -29.473  0.00  0.00    -0.299 N 
ATOM      2  C   UNL A   1      34.721 -36.418 -30.800  0.00  0.00    +0.251 C 
ATOM      3  O   UNL A   1      34.026 -37.359 -31.170  0.00  0.00    -0.272 OA
ATOM      4  H   UNL A   1      35.314 -35.217 -29.241  0.00  0.00    +0.000 HD
ENDROOT
BRANCH   1   5
ATOM      5  C   UNL A   1      34.198 -36.837 -28.401  0.00  0.00    +0.124 C 
BRANCH   5   6
ATOM      6  C   UNL A   1      33.222 -35.923 -27.641  0.00  0.00    +0.328 C 
ATOM      7  O   UNL A   1      32.535 -36.317 -26.700  0.00  0.00    -0.249 OA
BRANCH   6   9
ATOM      8  C   UNL A   1      32.019 -34.042 -28.345  0.00  0.00    +0.082 C 
ATOM      9  O   UNL A   1      33.285 -34.629 -28.051  0.00  0.00    -0.467 OA
ENDBRANCH   6   9
ENDBRANCH   5   6
BRANCH   5  10
ATOM     10  C   UNL A   1      35.224 -37.583 -27.524  0.00  0.00    +0.001 C 
BRANCH  10  11
ATOM     11  C   UNL A   1      35.479 -39.000 -27.994  0.00  0.00    -0.045 A 
ATOM     12  C   UNL A   1      36.653 -39.326 -28.684  0.00  0.00    -0.059 A 
ATOM     13  C   UNL A   1      36.884 -40.636 -29.107  0.00  0.00    -0.062 A 
ATOM     14  C   UNL A   1      35.944 -41.631 -28.847  0.00  0.00    -0.062 A 
ATOM     15  C   UNL A   1      34.769 -41.317 -28.166  0.00  0.00    -0.062 A 
ATOM     16  C   UNL A   1      34.538 -40.008 -27.741  0.00  0.00    -0.059 A 
ENDBRANCH  10  11
ENDBRANCH   5  10
ENDBRANCH   1   5
BRANCH   2  17
ATOM     17  C   UNL A   1      35.532 -35.547 -31.768  0.00  0.00    +0.165 C 
BRANCH  17  18
ATOM     18  O   UNL A   1      36.538 -34.761 -31.148  0.00  0.00    -0.483 OA
BRANCH  18  19
ATOM     19  C   UNL A   1      37.818 -35.243 -31.158  0.00  0.00    +0.121 A 
ATOM     20  C   UNL A   1      38.712 -34.506 -31.941  0.00  0.00    -0.019 A 
ATOM     21  C   UNL A   1      40.051 -34.889 -32.045  0.00  0.00    -0.048 A 
ATOM     22  C   UNL A   1      40.498 -36.023 -31.367  0.00  0.00    +0.014 A 
ATOM     23  C   UNL A   1      39.611 -36.774 -30.592  0.00  0.00    -0.048 A 
ATOM     24  C   UNL A   1      38.270 -36.384 -30.493  0.00  0.00    -0.019 A 
BRANCH  22  25
ATOM     25  C   UNL A   1      41.910 -36.443 -31.465  0.00  0.00    +0.150 C 
ATOM     26  O   UNL A   1      42.735 -36.173 -30.602  0.00  0.00    -0.296 OA
ENDBRANCH  22  25
ENDBRANCH  18  19
ENDBRANCH  17  18
ENDBRANCH   2  17
TORSDOF 9
ENDMDL
MODEL 10
REMARK VINA RESULT:    -6.386      4.563     10.309
REMARK INTER + INTRA:         -10.204
REMARK INTER:                  -9.267
REMARK INTRA:                  -0.937
REMARK UNBOUND:                -0.458
REMARK  Name = cpd245.pdb
REMARK  10 active torsions:
REMARK  status: ('A' for Active; 'I' for Inactive)
REMARK    1  A    between atoms: C_1  and  O_2
REMARK    2  A    between atoms: O_2  and  C_3
REMARK    3  A    between atoms: C_3  and  C_5
REMARK    4  A    between atoms: C_5  and  C_6
REMARK    5  A    between atoms: C_5  and  N_13
REMARK    6  A    between atoms: C_6  and  C_7
REMARK    7  A    between atoms: C_14  and  C_16
REMARK    8  A    between atoms: C_16  and  O_17
REMARK    9  A    between atoms: O_17  and  C_18
REMARK   10  A    between atoms: C_21  and  C_22
REMARK                            x       y       z     vdW  Elec       q    Type
REMARK                         _______ _______ _______ _____ _____    ______ ____
ROOT
ATOM      1  N   UNL A   1      35.637 -38.286 -30.211  0.00  0.00    -0.299 N 
ATOM      2  C   UNL A   1      35.441 -37.041 -30.783  0.00  0.00    +0.251 C 
ATOM      3  O   UNL A   1      34.432 -36.753 -31.420  0.00  0.00    -0.272 OA
ATOM      4  H   UNL A   1      36.418 -38.434 -29.632  0.00  0.00    +0.000 HD
ENDROOT
BRANCH   1   5
ATOM      5  C   UNL A   1      34.695 -39.395 -30.457  0.00  0.00    +0.124 C 
BRANCH   5   6
ATOM      6  C   UNL A   1      34.232 -39.926 -29.090  0.00  0.00    +0.328 C 
ATOM      7  O   UNL A   1      33.344 -40.769 -28.969  0.00  0.00    -0.249 OA
BRANCH   6   9
ATOM      8  C   UNL A   1      34.212 -38.885 -26.993  0.00  0.00    +0.082 C 
ATOM      9  O   UNL A   1      34.976 -39.446 -28.060  0.00  0.00    -0.467 OA
ENDBRANCH   6   9
ENDBRANCH   5   6
BRANCH   5  10
ATOM     10  C   UNL A   1      35.245 -40.459 -31.428  0.00  0.00    +0.001 C 
BRANCH  10  11
ATOM     11  C   UNL A   1      34.378 -40.640 -32.656  0.00  0.00    -0.045 A 
ATOM     12  C   UNL A   1      33.353 -39.733 -32.951  0.00  0.00    -0.059 A 
ATOM     13  C   UNL A   1      32.563 -39.903 -34.089  0.00  0.00    -0.062 A 
ATOM     14  C   UNL A   1      32.787 -40.982 -34.940  0.00  0.00    -0.062 A 
ATOM     15  C   UNL A   1      33.801 -41.895 -34.654  0.00  0.00    -0.062 A 
ATOM     16  C   UNL A   1      34.593 -41.725 -33.518  0.00  0.00    -0.059 A 
ENDBRANCH  10  11
ENDBRANCH   5  10
ENDBRANCH   1   5
BRANCH   2  17
ATOM     17  C   UNL A   1      36.580 -36.044 -30.530  0.00  0.00    +0.165 C 
BRANCH  17  18
ATOM     18  O   UNL A   1      37.341 -35.718 -31.683  0.00  0.00    -0.483 OA
BRANCH  18  19
ATOM     19  C   UNL A   1      38.688 -35.952 -31.644  0.00  0.00    +0.121 A 
ATOM     20  C   UNL A   1      39.096 -36.841 -30.645  0.00  0.00    -0.019 A 
ATOM     21  C   UNL A   1      40.445 -37.167 -30.490  0.00  0.00    -0.048 A 
ATOM     22  C   UNL A   1      41.395 -36.592 -31.334  0.00  0.00    +0.014 A 
ATOM     23  C   UNL A   1      41.000 -35.693 -32.328  0.00  0.00    -0.048 A 
ATOM     24  C   UNL A   1      39.646 -35.372 -32.478  0.00  0.00    -0.019 A 
BRANCH  22  25
ATOM     25  C   UNL A   1      42.826 -36.925 -31.185  0.00  0.00    +0.150 C 
ATOM     26  O   UNL A   1      43.625 -36.159 -30.661  0.00  0.00    -0.296 OA
ENDBRANCH  22  25
ENDBRANCH  18  19
ENDBRANCH  17  18
ENDBRANCH   2  17
TORSDOF 9
ENDMDL
MODEL 11
REMARK VINA RESULT:    -6.364      7.308      9.344
REMARK INTER + INTRA:         -10.171
REMARK INTER:                  -8.336
REMARK INTRA:                  -1.835
REMARK UNBOUND:                -0.458
REMARK  Name = cpd245.pdb
REMARK  10 active torsions:
REMARK  status: ('A' for Active; 'I' for Inactive)
REMARK    1  A    between atoms: C_1  and  O_2
REMARK    2  A    between atoms: O_2  and  C_3
REMARK    3  A    between atoms: C_3  and  C_5
REMARK    4  A    between atoms: C_5  and  C_6
REMARK    5  A    between atoms: C_5  and  N_13
REMARK    6  A    between atoms: C_6  and  C_7
REMARK    7  A    between atoms: C_14  and  C_16
REMARK    8  A    between atoms: C_16  and  O_17
REMARK    9  A    between atoms: O_17  and  C_18
REMARK   10  A    between atoms: C_21  and  C_22
REMARK                            x       y       z     vdW  Elec       q    Type
REMARK                         _______ _______ _______ _____ _____    ______ ____
ROOT
ATOM      1  N   UNL A   1      33.635 -38.675 -29.431  0.00  0.00    -0.299 N 
ATOM      2  C   UNL A   1      33.593 -38.611 -30.814  0.00  0.00    +0.251 C 
ATOM      3  O   UNL A   1      34.570 -38.842 -31.520  0.00  0.00    -0.272 OA
ATOM      4  H   UNL A   1      32.802 -38.575 -28.917  0.00  0.00    +0.000 HD
ENDROOT
BRANCH   1   5
ATOM      5  C   UNL A   1      34.908 -38.889 -28.716  0.00  0.00    +0.124 C 
BRANCH   5   6
ATOM      6  C   UNL A   1      34.665 -39.959 -27.639  0.00  0.00    +0.328 C 
ATOM      7  O   UNL A   1      33.947 -39.767 -26.659  0.00  0.00    -0.249 OA
BRANCH   6   9
ATOM      8  C   UNL A   1      36.382 -41.059 -28.789  0.00  0.00    +0.082 C 
ATOM      9  O   UNL A   1      35.235 -41.154 -27.946  0.00  0.00    -0.467 OA
ENDBRANCH   6   9
ENDBRANCH   5   6
BRANCH   5  10
ATOM     10  C   UNL A   1      35.553 -37.581 -28.216  0.00  0.00    +0.001 C 
BRANCH  10  11
ATOM     11  C   UNL A   1      36.556 -37.007 -29.195  0.00  0.00    -0.045 A 
ATOM     12  C   UNL A   1      36.205 -35.950 -30.044  0.00  0.00    -0.059 A 
ATOM     13  C   UNL A   1      37.137 -35.422 -30.939  0.00  0.00    -0.062 A 
ATOM     14  C   UNL A   1      38.426 -35.946 -30.995  0.00  0.00    -0.062 A 
ATOM     15  C   UNL A   1      38.786 -37.002 -30.159  0.00  0.00    -0.062 A 
ATOM     16  C   UNL A   1      37.855 -37.529 -29.262  0.00  0.00    -0.059 A 
ENDBRANCH  10  11
ENDBRANCH   5  10
ENDBRANCH   1   5
BRANCH   2  17
ATOM     17  C   UNL A   1      32.215 -38.256 -31.386  0.00  0.00    +0.165 C 
BRANCH  17  18
ATOM     18  O   UNL A   1      31.654 -37.060 -30.866  0.00  0.00    -0.483 OA
BRANCH  18  19
ATOM     19  C   UNL A   1      32.273 -35.880 -31.175  0.00  0.00    +0.121 A 
ATOM     20  C   UNL A   1      32.554 -35.064 -30.076  0.00  0.00    -0.019 A 
ATOM     21  C   UNL A   1      33.181 -33.827 -30.249  0.00  0.00    -0.048 A 
ATOM     22  C   UNL A   1      33.521 -33.400 -31.532  0.00  0.00    +0.014 A 
ATOM     23  C   UNL A   1      33.232 -34.202 -32.639  0.00  0.00    -0.048 A 
ATOM     24  C   UNL A   1      32.604 -35.440 -32.458  0.00  0.00    -0.019 A 
BRANCH  22  25
ATOM     25  C   UNL A   1      34.183 -32.096 -31.734  0.00  0.00    +0.150 C 
ATOM     26  O   UNL A   1      35.401 -31.976 -31.748  0.00  0.00    -0.296 OA
ENDBRANCH  22  25
ENDBRANCH  18  19
ENDBRANCH  17  18
ENDBRANCH   2  17
TORSDOF 9
ENDMDL
MODEL 12
REMARK VINA RESULT:    -6.173     17.565     20.095
REMARK INTER + INTRA:          -9.879
REMARK INTER:                  -8.510
REMARK INTRA:                  -1.368
REMARK UNBOUND:                -0.458
REMARK  Name = cpd245.pdb
REMARK  10 active torsions:
REMARK  status: ('A' for Active; 'I' for Inactive)
REMARK    1  A    between atoms: C_1  and  O_2
REMARK    2  A    between atoms: O_2  and  C_3
REMARK    3  A    between atoms: C_3  and  C_5
REMARK    4  A    between atoms: C_5  and  C_6
REMARK    5  A    between atoms: C_5  and  N_13
REMARK    6  A    between atoms: C_6  and  C_7
REMARK    7  A    between atoms: C_14  and  C_16
REMARK    8  A    between atoms: C_16  and  O_17
REMARK    9  A    between atoms: O_17  and  C_18
REMARK   10  A    between atoms: C_21  and  C_22
REMARK                            x       y       z     vdW  Elec       q    Type
REMARK                         _______ _______ _______ _____ _____    ______ ____
ROOT
ATOM      1  N   UNL A   1      41.750 -20.581 -37.222  0.00  0.00    -0.299 N 
ATOM      2  C   UNL A   1      41.502 -21.685 -38.019  0.00  0.00    +0.251 C 
ATOM      3  O   UNL A   1      41.345 -22.813 -37.561  0.00  0.00    -0.272 OA
ATOM      4  H   UNL A   1      41.772 -19.685 -37.629  0.00  0.00    +0.000 HD
ENDROOT
BRANCH   1   5
ATOM      5  C   UNL A   1      41.981 -20.724 -35.771  0.00  0.00    +0.124 C 
BRANCH   5   6
ATOM      6  C   UNL A   1      40.609 -20.872 -35.092  0.00  0.00    +0.328 C 
ATOM      7  O   UNL A   1      39.652 -20.148 -35.360  0.00  0.00    -0.249 OA
BRANCH   6   9
ATOM      8  C   UNL A   1      39.459 -22.828 -34.517  0.00  0.00    +0.082 C 
ATOM      9  O   UNL A   1      40.548 -21.943 -34.258  0.00  0.00    -0.467 OA
ENDBRANCH   6   9
ENDBRANCH   5   6
BRANCH   5  10
ATOM     10  C   UNL A   1      42.893 -19.626 -35.188  0.00  0.00    +0.001 C 
BRANCH  10  11
ATOM     11  C   UNL A   1      44.228 -19.532 -35.897  0.00  0.00    -0.045 A 
ATOM     12  C   UNL A   1      45.238 -20.471 -35.653  0.00  0.00    -0.059 A 
ATOM     13  C   UNL A   1      46.463 -20.381 -36.316  0.00  0.00    -0.062 A 
ATOM     14  C   UNL A   1      46.692 -19.352 -37.225  0.00  0.00    -0.062 A 
ATOM     15  C   UNL A   1      45.697 -18.407 -37.472  0.00  0.00    -0.062 A 
ATOM     16  C   UNL A   1      44.471 -18.497 -36.811  0.00  0.00    -0.059 A 
ENDBRANCH  10  11
ENDBRANCH   5  10
ENDBRANCH   1   5
BRANCH   2  17
ATOM     17  C   UNL A   1      41.413 -21.373 -39.518  0.00  0.00    +0.165 C 
BRANCH  17  18
ATOM     18  O   UNL A   1      42.428 -20.503 -39.997  0.00  0.00    -0.483 OA
BRANCH  18  19
ATOM     19  C   UNL A   1      43.517 -21.068 -40.602  0.00  0.00    +0.121 A 
ATOM     20  C   UNL A   1      44.586 -21.336 -39.743  0.00  0.00    -0.019 A 
ATOM     21  C   UNL A   1      45.764 -21.910 -40.228  0.00  0.00    -0.048 A 
ATOM     22  C   UNL A   1      45.876 -22.209 -41.586  0.00  0.00    +0.014 A 
ATOM     23  C   UNL A   1      44.818 -21.933 -42.456  0.00  0.00    -0.048 A 
ATOM     24  C   UNL A   1      43.641 -21.359 -41.962  0.00  0.00    -0.019 A 
BRANCH  22  25
ATOM     25  C   UNL A   1      47.113 -22.814 -42.118  0.00  0.00    +0.150 C 
ATOM     26  O   UNL A   1      47.151 -23.963 -42.539  0.00  0.00    -0.296 OA
ENDBRANCH  22  25
ENDBRANCH  18  19
ENDBRANCH  17  18
ENDBRANCH   2  17
TORSDOF 9
ENDMDL
MODEL 13
REMARK VINA RESULT:    -6.061      4.813     11.324
REMARK INTER + INTRA:          -9.707
REMARK INTER:                  -8.887
REMARK INTRA:                  -0.820
REMARK UNBOUND:                -0.458
REMARK  Name = cpd245.pdb
REMARK  10 active torsions:
REMARK  status: ('A' for Active; 'I' for Inactive)
REMARK    1  A    between atoms: C_1  and  O_2
REMARK    2  A    between atoms: O_2  and  C_3
REMARK    3  A    between atoms: C_3  and  C_5
REMARK    4  A    between atoms: C_5  and  C_6
REMARK    5  A    between atoms: C_5  and  N_13
REMARK    6  A    between atoms: C_6  and  C_7
REMARK    7  A    between atoms: C_14  and  C_16
REMARK    8  A    between atoms: C_16  and  O_17
REMARK    9  A    between atoms: O_17  and  C_18
REMARK   10  A    between atoms: C_21  and  C_22
REMARK                            x       y       z     vdW  Elec       q    Type
REMARK                         _______ _______ _______ _____ _____    ______ ____
ROOT
ATOM      1  N   UNL A   1      34.132 -35.011 -30.330  0.00  0.00    -0.299 N 
ATOM      2  C   UNL A   1      34.762 -35.502 -31.461  0.00  0.00    +0.251 C 
ATOM      3  O   UNL A   1      34.147 -35.966 -32.416  0.00  0.00    -0.272 OA
ATOM      4  H   UNL A   1      34.666 -34.563 -29.635  0.00  0.00    +0.000 HD
ENDROOT
BRANCH   1   5
ATOM      5  C   UNL A   1      32.674 -35.147 -30.150  0.00  0.00    +0.124 C 
BRANCH   5   6
ATOM      6  C   UNL A   1      32.044 -33.762 -30.374  0.00  0.00    +0.328 C 
ATOM      7  O   UNL A   1      31.075 -33.582 -31.110  0.00  0.00    -0.249 OA
BRANCH   6   9
ATOM      8  C   UNL A   1      32.114 -31.481 -29.849  0.00  0.00    +0.082 C 
ATOM      9  O   UNL A   1      32.601 -32.799 -29.595  0.00  0.00    -0.467 OA
ENDBRANCH   6   9
ENDBRANCH   5   6
BRANCH   5  10
ATOM     10  C   UNL A   1      32.285 -35.845 -28.831  0.00  0.00    +0.001 C 
BRANCH  10  11
ATOM     11  C   UNL A   1      33.297 -36.885 -28.396  0.00  0.00    -0.045 A 
ATOM     12  C   UNL A   1      33.407 -38.106 -29.073  0.00  0.00    -0.059 A 
ATOM     13  C   UNL A   1      34.347 -39.056 -28.670  0.00  0.00    -0.062 A 
ATOM     14  C   UNL A   1      35.182 -38.797 -27.585  0.00  0.00    -0.062 A 
ATOM     15  C   UNL A   1      35.077 -37.588 -26.900  0.00  0.00    -0.062 A 
ATOM     16  C   UNL A   1      34.139 -36.636 -27.303  0.00  0.00    -0.059 A 
ENDBRANCH  10  11
ENDBRANCH   5  10
ENDBRANCH   1   5
BRANCH   2  17
ATOM     17  C   UNL A   1      36.292 -35.392 -31.428  0.00  0.00    +0.165 C 
BRANCH  17  18
ATOM     18  O   UNL A   1      36.918 -36.210 -30.450  0.00  0.00    -0.483 OA
BRANCH  18  19
ATOM     19  C   UNL A   1      38.269 -36.396 -30.547  0.00  0.00    +0.121 A 
ATOM     20  C   UNL A   1      38.906 -35.570 -31.477  0.00  0.00    -0.019 A 
ATOM     21  C   UNL A   1      40.285 -35.657 -31.681  0.00  0.00    -0.048 A 
ATOM     22  C   UNL A   1      41.032 -36.586 -30.956  0.00  0.00    +0.014 A 
ATOM     23  C   UNL A   1      40.404 -37.426 -30.033  0.00  0.00    -0.048 A 
ATOM     24  C   UNL A   1      39.021 -37.332 -29.834  0.00  0.00    -0.019 A 
BRANCH  22  25
ATOM     25  C   UNL A   1      42.490 -36.693 -31.158  0.00  0.00    +0.150 C 
ATOM     26  O   UNL A   1      43.199 -37.398 -30.452  0.00  0.00    -0.296 OA
ENDBRANCH  22  25
ENDBRANCH  18  19
ENDBRANCH  17  18
ENDBRANCH   2  17
TORSDOF 9
ENDMDL
MODEL 14
REMARK VINA RESULT:    -6.056     18.048     20.917
REMARK INTER + INTRA:          -9.700
REMARK INTER:                  -7.485
REMARK INTRA:                  -2.216
REMARK UNBOUND:                -0.458
REMARK  Name = cpd245.pdb
REMARK  10 active torsions:
REMARK  status: ('A' for Active; 'I' for Inactive)
REMARK    1  A    between atoms: C_1  and  O_2
REMARK    2  A    between atoms: O_2  and  C_3
REMARK    3  A    between atoms: C_3  and  C_5
REMARK    4  A    between atoms: C_5  and  C_6
REMARK    5  A    between atoms: C_5  and  N_13
REMARK    6  A    between atoms: C_6  and  C_7
REMARK    7  A    between atoms: C_14  and  C_16
REMARK    8  A    between atoms: C_16  and  O_17
REMARK    9  A    between atoms: O_17  and  C_18
REMARK   10  A    between atoms: C_21  and  C_22
REMARK                            x       y       z     vdW  Elec       q    Type
REMARK                         _______ _______ _______ _____ _____    ______ ____
ROOT
ATOM      1  N   UNL A   1      43.008 -21.211 -35.796  0.00  0.00    -0.299 N 
ATOM      2  C   UNL A   1      43.372 -20.028 -35.176  0.00  0.00    +0.251 C 
ATOM      3  O   UNL A   1      42.715 -18.996 -35.275  0.00  0.00    -0.272 OA
ATOM      4  H   UNL A   1      43.516 -22.033 -35.607  0.00  0.00    +0.000 HD
ENDROOT
BRANCH   1   5
ATOM      5  C   UNL A   1      41.871 -21.261 -36.736  0.00  0.00    +0.124 C 
BRANCH   5   6
ATOM      6  C   UNL A   1      40.720 -22.005 -36.037  0.00  0.00    +0.328 C 
ATOM      7  O   UNL A   1      40.668 -23.231 -35.964  0.00  0.00    -0.249 OA
BRANCH   6   9
ATOM      8  C   UNL A   1      39.852 -21.235 -34.004  0.00  0.00    +0.082 C 
ATOM      9  O   UNL A   1      39.843 -21.164 -35.429  0.00  0.00    -0.467 OA
ENDBRANCH   6   9
ENDBRANCH   5   6
BRANCH   5  10
ATOM     10  C   UNL A   1      42.255 -21.796 -38.130  0.00  0.00    +0.001 C 
BRANCH  10  11
ATOM     11  C   UNL A   1      42.800 -20.719 -39.044  0.00  0.00    -0.045 A 
ATOM     12  C   UNL A   1      42.703 -19.366 -38.697  0.00  0.00    -0.059 A 
ATOM     13  C   UNL A   1      43.214 -18.380 -39.543  0.00  0.00    -0.062 A 
ATOM     14  C   UNL A   1      43.823 -18.736 -40.744  0.00  0.00    -0.062 A 
ATOM     15  C   UNL A   1      43.920 -20.079 -41.103  0.00  0.00    -0.062 A 
ATOM     16  C   UNL A   1      43.411 -21.066 -40.258  0.00  0.00    -0.059 A 
ENDBRANCH  10  11
ENDBRANCH   5  10
ENDBRANCH   1   5
BRANCH   2  17
ATOM     17  C   UNL A   1      44.651 -20.126 -34.334  0.00  0.00    +0.165 C 
BRANCH  17  18
ATOM     18  O   UNL A   1      45.784 -20.607 -35.041  0.00  0.00    -0.483 OA
BRANCH  18  19
ATOM     19  C   UNL A   1      46.129 -19.968 -36.200  0.00  0.00    +0.121 A 
ATOM     20  C   UNL A   1      46.343 -18.594 -36.067  0.00  0.00    -0.019 A 
ATOM     21  C   UNL A   1      46.698 -17.817 -37.172  0.00  0.00    -0.048 A 
ATOM     22  C   UNL A   1      46.829 -18.419 -38.424  0.00  0.00    +0.014 A 
ATOM     23  C   UNL A   1      46.604 -19.790 -38.572  0.00  0.00    -0.048 A 
ATOM     24  C   UNL A   1      46.250 -20.562 -37.458  0.00  0.00    -0.019 A 
BRANCH  22  25
ATOM     25  C   UNL A   1      47.202 -17.614 -39.604  0.00  0.00    +0.150 C 
ATOM     26  O   UNL A   1      47.217 -16.390 -39.583  0.00  0.00    -0.296 OA
ENDBRANCH  22  25
ENDBRANCH  18  19
ENDBRANCH  17  18
ENDBRANCH   2  17
TORSDOF 9
ENDMDL
MODEL 15
REMARK VINA RESULT:    -6.048      5.255     10.396
REMARK INTER + INTRA:          -9.688
REMARK INTER:                  -8.493
REMARK INTRA:                  -1.195
REMARK UNBOUND:                -0.458
REMARK  Name = cpd245.pdb
REMARK  10 active torsions:
REMARK  status: ('A' for Active; 'I' for Inactive)
REMARK    1  A    between atoms: C_1  and  O_2
REMARK    2  A    between atoms: O_2  and  C_3
REMARK    3  A    between atoms: C_3  and  C_5
REMARK    4  A    between atoms: C_5  and  C_6
REMARK    5  A    between atoms: C_5  and  N_13
REMARK    6  A    between atoms: C_6  and  C_7
REMARK    7  A    between atoms: C_14  and  C_16
REMARK    8  A    between atoms: C_16  and  O_17
REMARK    9  A    between atoms: O_17  and  C_18
REMARK   10  A    between atoms: C_21  and  C_22
REMARK                            x       y       z     vdW  Elec       q    Type
REMARK                         _______ _______ _______ _____ _____    ______ ____
ROOT
ATOM      1  N   UNL A   1      34.404 -37.540 -27.687  0.00  0.00    -0.299 N 
ATOM      2  C   UNL A   1      34.085 -36.885 -28.864  0.00  0.00    +0.251 C 
ATOM      3  O   UNL A   1      33.009 -37.031 -29.436  0.00  0.00    -0.272 OA
ATOM      4  H   UNL A   1      35.240 -37.315 -27.220  0.00  0.00    +0.000 HD
ENDROOT
BRANCH   1   5
ATOM      5  C   UNL A   1      33.511 -38.571 -27.123  0.00  0.00    +0.124 C 
BRANCH   5   6
ATOM      6  C   UNL A   1      33.127 -38.128 -25.701  0.00  0.00    +0.328 C 
ATOM      7  O   UNL A   1      32.673 -38.905 -24.862  0.00  0.00    -0.249 OA
BRANCH   6   9
ATOM      8  C   UNL A   1      32.340 -36.024 -25.044  0.00  0.00    +0.082 C 
ATOM      9  O   UNL A   1      33.444 -36.832 -25.450  0.00  0.00    -0.467 OA
ENDBRANCH   6   9
ENDBRANCH   5   6
BRANCH   5  10
ATOM     10  C   UNL A   1      34.080 -40.000 -27.240  0.00  0.00    +0.001 C 
BRANCH  10  11
ATOM     11  C   UNL A   1      34.466 -40.365 -28.658  0.00  0.00    -0.045 A 
ATOM     12  C   UNL A   1      33.489 -40.530 -29.648  0.00  0.00    -0.059 A 
ATOM     13  C   UNL A   1      33.855 -40.860 -30.954  0.00  0.00    -0.062 A 
ATOM     14  C   UNL A   1      35.197 -41.031 -31.283  0.00  0.00    -0.062 A 
ATOM     15  C   UNL A   1      36.178 -40.875 -30.305  0.00  0.00    -0.062 A 
ATOM     16  C   UNL A   1      35.815 -40.543 -28.999  0.00  0.00    -0.059 A 
ENDBRANCH  10  11
ENDBRANCH   5  10
ENDBRANCH   1   5
BRANCH   2  17
ATOM     17  C   UNL A   1      35.180 -35.940 -29.376  0.00  0.00    +0.165 C 
BRANCH  17  18
ATOM     18  O   UNL A   1      35.721 -36.299 -30.639  0.00  0.00    -0.483 OA
BRANCH  18  19
ATOM     19  C   UNL A   1      37.080 -36.421 -30.737  0.00  0.00    +0.121 A 
ATOM     20  C   UNL A   1      37.669 -37.198 -29.736  0.00  0.00    -0.019 A 
ATOM     21  C   UNL A   1      39.051 -37.401 -29.713  0.00  0.00    -0.048 A 
ATOM     22  C   UNL A   1      39.851 -36.815 -30.695  0.00  0.00    +0.014 A 
ATOM     23  C   UNL A   1      39.274 -36.026 -31.692  0.00  0.00    -0.048 A 
ATOM     24  C   UNL A   1      37.888 -35.827 -31.709  0.00  0.00    -0.019 A 
BRANCH  22  25
ATOM     25  C   UNL A   1      41.313 -37.019 -30.686  0.00  0.00    +0.150 C 
ATOM     26  O   UNL A   1      42.059 -36.381 -29.954  0.00  0.00    -0.296 OA
ENDBRANCH  22  25
ENDBRANCH  18  19
ENDBRANCH  17  18
ENDBRANCH   2  17
TORSDOF 9
ENDMDL
MODEL 16
REMARK VINA RESULT:    -5.903     17.508     19.924
REMARK INTER + INTRA:          -9.467
REMARK INTER:                  -8.615
REMARK INTRA:                  -0.852
REMARK UNBOUND:                -0.458
REMARK  Name = cpd245.pdb
REMARK  10 active torsions:
REMARK  status: ('A' for Active; 'I' for Inactive)
REMARK    1  A    between atoms: C_1  and  O_2
REMARK    2  A    between atoms: O_2  and  C_3
REMARK    3  A    between atoms: C_3  and  C_5
REMARK    4  A    between atoms: C_5  and  C_6
REMARK    5  A    between atoms: C_5  and  N_13
REMARK    6  A    between atoms: C_6  and  C_7
REMARK    7  A    between atoms: C_14  and  C_16
REMARK    8  A    between atoms: C_16  and  O_17
REMARK    9  A    between atoms: O_17  and  C_18
REMARK   10  A    between atoms: C_21  and  C_22
REMARK                            x       y       z     vdW  Elec       q    Type
REMARK                         _______ _______ _______ _____ _____    ______ ____
ROOT
ATOM      1  N   UNL A   1      45.027 -19.544 -37.297  0.00  0.00    -0.299 N 
ATOM      2  C   UNL A   1      45.632 -19.589 -36.052  0.00  0.00    +0.251 C 
ATOM      3  O   UNL A   1      46.834 -19.786 -35.904  0.00  0.00    -0.272 OA
ATOM      4  H   UNL A   1      44.079 -19.289 -37.365  0.00  0.00    +0.000 HD
ENDROOT
BRANCH   1   5
ATOM      5  C   UNL A   1      45.780 -19.873 -38.523  0.00  0.00    +0.124 C 
BRANCH   5   6
ATOM      6  C   UNL A   1      45.987 -18.567 -39.308  0.00  0.00    +0.328 C 
ATOM      7  O   UNL A   1      47.100 -18.148 -39.622  0.00  0.00    -0.249 OA
BRANCH   6   9
ATOM      8  C   UNL A   1      44.775 -16.579 -39.554  0.00  0.00    +0.082 C 
ATOM      9  O   UNL A   1      44.818 -17.998 -39.701  0.00  0.00    -0.467 OA
ENDBRANCH   6   9
ENDBRANCH   5   6
BRANCH   5  10
ATOM     10  C   UNL A   1      45.162 -21.036 -39.324  0.00  0.00    +0.001 C 
BRANCH  10  11
ATOM     11  C   UNL A   1      46.183 -21.790 -40.150  0.00  0.00    -0.045 A 
ATOM     12  C   UNL A   1      47.471 -22.030 -39.655  0.00  0.00    -0.059 A 
ATOM     13  C   UNL A   1      48.403 -22.732 -40.420  0.00  0.00    -0.062 A 
ATOM     14  C   UNL A   1      48.060 -23.198 -41.687  0.00  0.00    -0.062 A 
ATOM     15  C   UNL A   1      46.783 -22.960 -42.193  0.00  0.00    -0.062 A 
ATOM     16  C   UNL A   1      45.849 -22.260 -41.428  0.00  0.00    -0.059 A 
ENDBRANCH  10  11
ENDBRANCH   5  10
ENDBRANCH   1   5
BRANCH   2  17
ATOM     17  C   UNL A   1      44.675 -19.346 -34.878  0.00  0.00    +0.165 C 
BRANCH  17  18
ATOM     18  O   UNL A   1      43.316 -19.178 -35.253  0.00  0.00    -0.483 OA
BRANCH  18  19
ATOM     19  C   UNL A   1      42.400 -20.052 -34.736  0.00  0.00    +0.121 A 
ATOM     20  C   UNL A   1      42.216 -19.952 -33.354  0.00  0.00    -0.019 A 
ATOM     21  C   UNL A   1      41.312 -20.788 -32.694  0.00  0.00    -0.048 A 
ATOM     22  C   UNL A   1      40.593 -21.738 -33.422  0.00  0.00    +0.014 A 
ATOM     23  C   UNL A   1      40.779 -21.854 -34.801  0.00  0.00    -0.048 A 
ATOM     24  C   UNL A   1      41.687 -21.012 -35.455  0.00  0.00    -0.019 A 
BRANCH  22  25
ATOM     25  C   UNL A   1      39.634 -22.630 -32.741  0.00  0.00    +0.150 C 
ATOM     26  O   UNL A   1      39.741 -23.849 -32.770  0.00  0.00    -0.296 OA
ENDBRANCH  22  25
ENDBRANCH  18  19
ENDBRANCH  17  18
ENDBRANCH   2  17
TORSDOF 9
ENDMDL
MODEL 17
REMARK VINA RESULT:    -5.893      7.715     11.573
REMARK INTER + INTRA:          -9.452
REMARK INTER:                  -7.621
REMARK INTRA:                  -1.831
REMARK UNBOUND:                -0.458
REMARK  Name = cpd245.pdb
REMARK  10 active torsions:
REMARK  status: ('A' for Active; 'I' for Inactive)
REMARK    1  A    between atoms: C_1  and  O_2
REMARK    2  A    between atoms: O_2  and  C_3
REMARK    3  A    between atoms: C_3  and  C_5
REMARK    4  A    between atoms: C_5  and  C_6
REMARK    5  A    between atoms: C_5  and  N_13
REMARK    6  A    between atoms: C_6  and  C_7
REMARK    7  A    between atoms: C_14  and  C_16
REMARK    8  A    between atoms: C_16  and  O_17
REMARK    9  A    between atoms: O_17  and  C_18
REMARK   10  A    between atoms: C_21  and  C_22
REMARK                            x       y       z     vdW  Elec       q    Type
REMARK                         _______ _______ _______ _____ _____    ______ ____
ROOT
ATOM      1  N   UNL A   1      32.643 -35.864 -30.815  0.00  0.00    -0.299 N 
ATOM      2  C   UNL A   1      32.083 -37.083 -30.471  0.00  0.00    +0.251 C 
ATOM      3  O   UNL A   1      31.531 -37.279 -29.392  0.00  0.00    -0.272 OA
ATOM      4  H   UNL A   1      32.989 -35.731 -31.727  0.00  0.00    +0.000 HD
ENDROOT
BRANCH   1   5
ATOM      5  C   UNL A   1      32.732 -34.762 -29.837  0.00  0.00    +0.124 C 
BRANCH   5   6
ATOM      6  C   UNL A   1      31.551 -33.812 -30.097  0.00  0.00    +0.328 C 
ATOM      7  O   UNL A   1      30.484 -33.895 -29.490  0.00  0.00    -0.249 OA
BRANCH   6   9
ATOM      8  C   UNL A   1      30.720 -32.202 -31.580  0.00  0.00    +0.082 C 
ATOM      9  O   UNL A   1      31.855 -32.823 -30.977  0.00  0.00    -0.467 OA
ENDBRANCH   6   9
ENDBRANCH   5   6
BRANCH   5  10
ATOM     10  C   UNL A   1      34.121 -34.095 -29.796  0.00  0.00    +0.001 C 
BRANCH  10  11
ATOM     11  C   UNL A   1      35.253 -35.097 -29.701  0.00  0.00    -0.045 A 
ATOM     12  C   UNL A   1      36.278 -35.114 -30.654  0.00  0.00    -0.059 A 
ATOM     13  C   UNL A   1      37.321 -36.036 -30.555  0.00  0.00    -0.062 A 
ATOM     14  C   UNL A   1      37.348 -36.951 -29.506  0.00  0.00    -0.062 A 
ATOM     15  C   UNL A   1      36.330 -36.948 -28.554  0.00  0.00    -0.062 A 
ATOM     16  C   UNL A   1      35.287 -36.025 -28.650  0.00  0.00    -0.059 A 
ENDBRANCH  10  11
ENDBRANCH   5  10
ENDBRANCH   1   5
BRANCH   2  17
ATOM     17  C   UNL A   1      32.188 -38.156 -31.562  0.00  0.00    +0.165 C 
BRANCH  17  18
ATOM     18  O   UNL A   1      32.292 -39.484 -31.070  0.00  0.00    -0.483 OA
BRANCH  18  19
ATOM     19  C   UNL A   1      33.446 -39.836 -30.427  0.00  0.00    +0.121 A 
ATOM     20  C   UNL A   1      34.586 -39.840 -31.236  0.00  0.00    -0.019 A 
ATOM     21  C   UNL A   1      35.833 -40.184 -30.708  0.00  0.00    -0.048 A 
ATOM     22  C   UNL A   1      35.938 -40.536 -29.363  0.00  0.00    +0.014 A 
ATOM     23  C   UNL A   1      34.803 -40.548 -28.548  0.00  0.00    -0.048 A 
ATOM     24  C   UNL A   1      33.557 -40.201 -29.084  0.00  0.00    -0.019 A 
BRANCH  22  25
ATOM     25  C   UNL A   1      37.247 -40.904 -28.788  0.00  0.00    +0.150 C 
ATOM     26  O   UNL A   1      37.810 -40.214 -27.948  0.00  0.00    -0.296 OA
ENDBRANCH  22  25
ENDBRANCH  18  19
ENDBRANCH  17  18
ENDBRANCH   2  17
TORSDOF 9
ENDMDL
MODEL 18
REMARK VINA RESULT:    -5.843     17.613     19.646
REMARK INTER + INTRA:          -9.375
REMARK INTER:                  -8.238
REMARK INTRA:                  -1.137
REMARK UNBOUND:                -0.458
REMARK  Name = cpd245.pdb
REMARK  10 active torsions:
REMARK  status: ('A' for Active; 'I' for Inactive)
REMARK    1  A    between atoms: C_1  and  O_2
REMARK    2  A    between atoms: O_2  and  C_3
REMARK    3  A    between atoms: C_3  and  C_5
REMARK    4  A    between atoms: C_5  and  C_6
REMARK    5  A    between atoms: C_5  and  N_13
REMARK    6  A    between atoms: C_6  and  C_7
REMARK    7  A    between atoms: C_14  and  C_16
REMARK    8  A    between atoms: C_16  and  O_17
REMARK    9  A    between atoms: O_17  and  C_18
REMARK   10  A    between atoms: C_21  and  C_22
REMARK                            x       y       z     vdW  Elec       q    Type
REMARK                         _______ _______ _______ _____ _____    ______ ____
ROOT
ATOM      1  N   UNL A   1      44.129 -21.005 -39.838  0.00  0.00    -0.299 N 
ATOM      2  C   UNL A   1      43.133 -20.148 -39.401  0.00  0.00    +0.251 C 
ATOM      3  O   UNL A   1      43.346 -18.975 -39.112  0.00  0.00    -0.272 OA
ATOM      4  H   UNL A   1      43.889 -21.908 -40.147  0.00  0.00    +0.000 HD
ENDROOT
BRANCH   1   5
ATOM      5  C   UNL A   1      45.545 -20.588 -39.846  0.00  0.00    +0.124 C 
BRANCH   5   6
ATOM      6  C   UNL A   1      46.133 -20.959 -41.219  0.00  0.00    +0.328 C 
ATOM      7  O   UNL A   1      46.869 -20.205 -41.852  0.00  0.00    -0.249 OA
BRANCH   6   9
ATOM      8  C   UNL A   1      46.979 -23.064 -41.794  0.00  0.00    +0.082 C 
ATOM      9  O   UNL A   1      45.838 -22.231 -41.591  0.00  0.00    -0.467 OA
ENDBRANCH   6   9
ENDBRANCH   5   6
BRANCH   5  10
ATOM     10  C   UNL A   1      46.338 -21.099 -38.627  0.00  0.00    +0.001 C 
BRANCH  10  11
ATOM     11  C   UNL A   1      46.417 -20.081 -37.508  0.00  0.00    -0.045 A 
ATOM     12  C   UNL A   1      47.376 -19.061 -37.532  0.00  0.00    -0.059 A 
ATOM     13  C   UNL A   1      47.437 -18.123 -36.500  0.00  0.00    -0.062 A 
ATOM     14  C   UNL A   1      46.544 -18.197 -35.434  0.00  0.00    -0.062 A 
ATOM     15  C   UNL A   1      45.589 -19.212 -35.396  0.00  0.00    -0.062 A 
ATOM     16  C   UNL A   1      45.525 -20.149 -36.428  0.00  0.00    -0.059 A 
ENDBRANCH  10  11
ENDBRANCH   5  10
ENDBRANCH   1   5
BRANCH   2  17
ATOM     17  C   UNL A   1      41.738 -20.784 -39.336  0.00  0.00    +0.165 C 
BRANCH  17  18
ATOM     18  O   UNL A   1      41.679 -21.993 -38.594  0.00  0.00    -0.483 OA
BRANCH  18  19
ATOM     19  C   UNL A   1      41.404 -21.906 -37.257  0.00  0.00    +0.121 A 
ATOM     20  C   UNL A   1      40.332 -22.694 -36.830  0.00  0.00    -0.019 A 
ATOM     21  C   UNL A   1      39.940 -22.698 -35.490  0.00  0.00    -0.048 A 
ATOM     22  C   UNL A   1      40.620 -21.899 -34.570  0.00  0.00    +0.014 A 
ATOM     23  C   UNL A   1      41.686 -21.098 -34.988  0.00  0.00    -0.048 A 
ATOM     24  C   UNL A   1      42.073 -21.100 -36.334  0.00  0.00    -0.019 A 
BRANCH  22  25
ATOM     25  C   UNL A   1      40.220 -21.890 -33.149  0.00  0.00    +0.150 C 
ATOM     26  O   UNL A   1      39.428 -22.701 -32.687  0.00  0.00    -0.296 OA
ENDBRANCH  22  25
ENDBRANCH  18  19
ENDBRANCH  17  18
ENDBRANCH   2  17
TORSDOF 9
ENDMDL
MODEL 19
REMARK VINA RESULT:    -5.735     17.854     20.587
REMARK INTER + INTRA:          -9.210
REMARK INTER:                  -8.385
REMARK INTRA:                  -0.825
REMARK UNBOUND:                -0.458
REMARK  Name = cpd245.pdb
REMARK  10 active torsions:
REMARK  status: ('A' for Active; 'I' for Inactive)
REMARK    1  A    between atoms: C_1  and  O_2
REMARK    2  A    between atoms: O_2  and  C_3
REMARK    3  A    between atoms: C_3  and  C_5
REMARK    4  A    between atoms: C_5  and  C_6
REMARK    5  A    between atoms: C_5  and  N_13
REMARK    6  A    between atoms: C_6  and  C_7
REMARK    7  A    between atoms: C_14  and  C_16
REMARK    8  A    between atoms: C_16  and  O_17
REMARK    9  A    between atoms: O_17  and  C_18
REMARK   10  A    between atoms: C_21  and  C_22
REMARK                            x       y       z     vdW  Elec       q    Type
REMARK                         _______ _______ _______ _____ _____    ______ ____
ROOT
ATOM      1  N   UNL A   1      43.377 -18.856 -39.794  0.00  0.00    -0.299 N 
ATOM      2  C   UNL A   1      43.074 -19.874 -38.905  0.00  0.00    +0.251 C 
ATOM      3  O   UNL A   1      43.867 -20.767 -38.621  0.00  0.00    -0.272 OA
ATOM      4  H   UNL A   1      42.742 -18.114 -39.913  0.00  0.00    +0.000 HD
ENDROOT
BRANCH   1   5
ATOM      5  C   UNL A   1      44.634 -18.868 -40.566  0.00  0.00    +0.124 C 
BRANCH   5   6
ATOM      6  C   UNL A   1      45.023 -17.406 -40.846  0.00  0.00    +0.328 C 
ATOM      7  O   UNL A   1      46.189 -17.015 -40.842  0.00  0.00    -0.249 OA
BRANCH   6   9
ATOM      8  C   UNL A   1      43.883 -15.389 -40.512  0.00  0.00    +0.082 C 
ATOM      9  O   UNL A   1      43.961 -16.637 -41.199  0.00  0.00    -0.467 OA
ENDBRANCH   6   9
ENDBRANCH   5   6
BRANCH   5  10
ATOM     10  C   UNL A   1      44.582 -19.787 -41.802  0.00  0.00    +0.001 C 
BRANCH  10  11
ATOM     11  C   UNL A   1      45.582 -20.922 -41.735  0.00  0.00    -0.045 A 
ATOM     12  C   UNL A   1      45.466 -22.033 -42.580  0.00  0.00    -0.059 A 
ATOM     13  C   UNL A   1      46.396 -23.071 -42.516  0.00  0.00    -0.062 A 
ATOM     14  C   UNL A   1      47.448 -23.012 -41.605  0.00  0.00    -0.062 A 
ATOM     15  C   UNL A   1      47.570 -21.915 -40.754  0.00  0.00    -0.062 A 
ATOM     16  C   UNL A   1      46.642 -20.875 -40.819  0.00  0.00    -0.059 A 
ENDBRANCH  10  11
ENDBRANCH   5  10
ENDBRANCH   1   5
BRANCH   2  17
ATOM     17  C   UNL A   1      41.674 -19.773 -38.284  0.00  0.00    +0.165 C 
BRANCH  17  18
ATOM     18  O   UNL A   1      40.927 -20.980 -38.324  0.00  0.00    -0.483 OA
BRANCH  18  19
ATOM     19  C   UNL A   1      40.571 -21.547 -37.132  0.00  0.00    +0.121 A 
ATOM     20  C   UNL A   1      41.279 -21.069 -36.025  0.00  0.00    -0.019 A 
ATOM     21  C   UNL A   1      41.019 -21.566 -34.745  0.00  0.00    -0.048 A 
ATOM     22  C   UNL A   1      40.050 -22.554 -34.573  0.00  0.00    +0.014 A 
ATOM     23  C   UNL A   1      39.346 -23.048 -35.674  0.00  0.00    -0.048 A 
ATOM     24  C   UNL A   1      39.612 -22.546 -36.953  0.00  0.00    -0.019 A 
BRANCH  22  25
ATOM     25  C   UNL A   1      39.763 -23.091 -33.228  0.00  0.00    +0.150 C 
ATOM     26  O   UNL A   1      39.354 -24.231 -33.052  0.00  0.00    -0.296 OA
ENDBRANCH  22  25
ENDBRANCH  18  19
ENDBRANCH  17  18
ENDBRANCH   2  17
TORSDOF 9
ENDMDL
MODEL 20
REMARK VINA RESULT:    -5.636     16.383     19.752
REMARK INTER + INTRA:          -9.059
REMARK INTER:                  -6.835
REMARK INTRA:                  -2.225
REMARK UNBOUND:                -0.458
REMARK  Name = cpd245.pdb
REMARK  10 active torsions:
REMARK  status: ('A' for Active; 'I' for Inactive)
REMARK    1  A    between atoms: C_1  and  O_2
REMARK    2  A    between atoms: O_2  and  C_3
REMARK    3  A    between atoms: C_3  and  C_5
REMARK    4  A    between atoms: C_5  and  C_6
REMARK    5  A    between atoms: C_5  and  N_13
REMARK    6  A    between atoms: C_6  and  C_7
REMARK    7  A    between atoms: C_14  and  C_16
REMARK    8  A    between atoms: C_16  and  O_17
REMARK    9  A    between atoms: O_17  and  C_18
REMARK   10  A    between atoms: C_21  and  C_22
REMARK                            x       y       z     vdW  Elec       q    Type
REMARK                         _______ _______ _______ _____ _____    ______ ____
ROOT
ATOM      1  N   UNL A   1      41.819 -20.768 -33.366  0.00  0.00    -0.299 N 
ATOM      2  C   UNL A   1      41.690 -19.398 -33.213  0.00  0.00    +0.251 C 
ATOM      3  O   UNL A   1      40.625 -18.809 -33.370  0.00  0.00    -0.272 OA
ATOM      4  H   UNL A   1      42.672 -21.202 -33.136  0.00  0.00    +0.000 HD
ENDROOT
BRANCH   1   5
ATOM      5  C   UNL A   1      40.700 -21.588 -33.869  0.00  0.00    +0.124 C 
BRANCH   5   6
ATOM      6  C   UNL A   1      40.158 -22.413 -32.689  0.00  0.00    +0.328 C 
ATOM      7  O   UNL A   1      39.006 -22.840 -32.650  0.00  0.00    -0.249 OA
BRANCH   6   9
ATOM      8  C   UNL A   1      41.418 -24.090 -31.650  0.00  0.00    +0.082 C 
ATOM      9  O   UNL A   1      41.113 -22.701 -31.767  0.00  0.00    -0.467 OA
ENDBRANCH   6   9
ENDBRANCH   5   6
BRANCH   5  10
ATOM     10  C   UNL A   1      41.056 -22.395 -35.133  0.00  0.00    +0.001 C 
BRANCH  10  11
ATOM     11  C   UNL A   1      40.706 -21.668 -36.414  0.00  0.00    -0.045 A 
ATOM     12  C   UNL A   1      41.220 -22.094 -37.645  0.00  0.00    -0.059 A 
ATOM     13  C   UNL A   1      40.885 -21.422 -38.822  0.00  0.00    -0.062 A 
ATOM     14  C   UNL A   1      40.039 -20.318 -38.780  0.00  0.00    -0.062 A 
ATOM     15  C   UNL A   1      39.526 -19.880 -37.560  0.00  0.00    -0.062 A 
ATOM     16  C   UNL A   1      39.857 -20.552 -36.383  0.00  0.00    -0.059 A 
ENDBRANCH  10  11
ENDBRANCH   5  10
ENDBRANCH   1   5
BRANCH   2  17
ATOM     17  C   UNL A   1      42.986 -18.685 -32.804  0.00  0.00    +0.165 C 
BRANCH  17  18
ATOM     18  O   UNL A   1      43.627 -17.983 -33.859  0.00  0.00    -0.483 OA
BRANCH  18  19
ATOM     19  C   UNL A   1      43.915 -18.677 -35.002  0.00  0.00    +0.121 A 
ATOM     20  C   UNL A   1      43.177 -18.286 -36.123  0.00  0.00    -0.019 A 
ATOM     21  C   UNL A   1      43.368 -18.915 -37.356  0.00  0.00    -0.048 A 
ATOM     22  C   UNL A   1      44.298 -19.949 -37.466  0.00  0.00    +0.014 A 
ATOM     23  C   UNL A   1      45.031 -20.356 -36.349  0.00  0.00    -0.048 A 
ATOM     24  C   UNL A   1      44.835 -19.721 -35.117  0.00  0.00    -0.019 A 
BRANCH  22  25
ATOM     25  C   UNL A   1      44.512 -20.625 -38.761  0.00  0.00    +0.150 C 
ATOM     26  O   UNL A   1      44.812 -20.012 -39.777  0.00  0.00    -0.296 OA
ENDBRANCH  22  25
ENDBRANCH  18  19
ENDBRANCH  17  18
ENDBRANCH   2  17
TORSDOF 9
ENDMDL
