REMARK  Name = cpd128.pdb
REMARK  9 active torsions:
REMARK  status: ('A' for Active; 'I' for Inactive)
REMARK    1  A    between atoms: C_1  and  O_2
REMARK    2  A    between atoms: O_2  and  C_3
REMARK    3  A    between atoms: C_12  and  O_13
REMARK    4  A    between atoms: N_19  and  C_20
REMARK    5  A    between atoms: C_20  and  C_21
REMARK    6  A    between atoms: C_21  and  C_22
REMARK    7  A    between atoms: C_21  and  C_23
REMARK    8  A    between atoms: C_23  and  C_25
REMARK    9  A    between atoms: C_28  and  C_29
REMARK                            x       y       z     vdW  Elec       q    Type
REMARK                         _______ _______ _______ _____ _____    ______ ____
ROOT
ATOM      1  C   UNL     1       3.707  -2.659   0.344  0.00  0.00    +0.162 A 
ATOM      2  C   UNL     1       2.696  -3.172   1.160  0.00  0.00    -0.016 A 
ATOM      3  C   UNL     1       1.656  -2.342   1.632  0.00  0.00    -0.053 A 
ATOM      4  C   UNL     1       1.611  -0.972   1.324  0.00  0.00    -0.026 A 
ATOM      5  C   UNL     1       2.699  -0.449   0.642  0.00  0.00    +0.016 A 
ATOM      6  C   UNL     1       3.679  -1.296   0.101  0.00  0.00    +0.167 A 
ATOM      7  O   UNL     1       4.528  -0.631  -0.778  0.00  0.00    -0.484 OA
ATOM      8  C   UNL     1       4.365   0.714  -0.312  0.00  0.00    +0.116 C 
ATOM      9  C   UNL     1       4.835   1.828  -1.229  0.00  0.00    +0.015 C 
ATOM     10  C   UNL     1       4.744   3.156  -0.445  0.00  0.00    +0.077 C 
ATOM     11  C   UNL     1       3.713   3.182   0.663  0.00  0.00    -0.059 C 
ATOM     12  C   UNL     1       2.887   2.153   0.952  0.00  0.00    -0.071 C 
ATOM     13  C   UNL     1       2.880   0.921   0.080  0.00  0.00    +0.056 C 
ATOM     14  C   UNL     1       1.849   1.070  -1.068  0.00  0.00    -0.023 C 
ATOM     15  C   UNL     1       0.386   0.708  -0.687  0.00  0.00    +0.000 C 
ATOM     16  N   UNL     1       0.071   0.985   0.723  0.00  0.00    -0.297 N 
ATOM     17  C   UNL     1       0.367  -0.163   1.624  0.00  0.00    +0.024 C 
ATOM     18  H   UNL     1       0.690   1.759   0.964  0.00  0.00    +0.000 HD
ENDROOT
BRANCH   1  20
ATOM     19  C   UNL     1       4.713  -4.776  -0.031  0.00  0.00    +0.079 C 
ATOM     20  O   UNL     1       4.716  -3.370  -0.234  0.00  0.00    -0.491 OA
ENDBRANCH   1  20
BRANCH  10  21
ATOM     21  O   UNL     1       4.451   4.223  -1.335  0.00  0.00    -0.388 OA
ATOM     22  H   UNL     1       3.576   4.083  -1.730  0.00  0.00    +0.000 HD
ENDBRANCH  10  21
BRANCH  16  23
ATOM     23  C   UNL     1      -1.321   1.422   0.939  0.00  0.00    +0.009 C 
BRANCH  23  24
ATOM     24  C   UNL     1      -1.680   2.808   0.359  0.00  0.00    +0.032 C 
ATOM     25  C   UNL     1      -0.745   3.904   0.881  0.00  0.00    -0.054 C 
BRANCH  24  26
ATOM     26  C   UNL     1      -3.129   3.128   0.740  0.00  0.00    +0.167 C 
ATOM     27  O   UNL     1      -3.406   3.945   1.617  0.00  0.00    -0.292 OA
BRANCH  26  28
ATOM     28  C   UNL     1      -4.251   2.392   0.073  0.00  0.00    +0.018 A 
ATOM     29  C   UNL     1      -4.090   1.673  -1.116  0.00  0.00    -0.051 A 
ATOM     30  C   UNL     1      -5.172   0.982  -1.673  0.00  0.00    -0.058 A 
ATOM     31  C   UNL     1      -6.425   0.992  -1.048  0.00  0.00    -0.050 A 
ATOM     32  C   UNL     1      -7.589   0.272  -1.661  0.00  0.00    -0.040 C 
ATOM     33  C   UNL     1      -6.591   1.735   0.124  0.00  0.00    -0.058 A 
ATOM     34  C   UNL     1      -5.513   2.427   0.682  0.00  0.00    -0.051 A 
ENDBRANCH  26  28
ENDBRANCH  24  26
ENDBRANCH  23  24
ENDBRANCH  16  23
TORSDOF 6
