MODEL 1
REMARK VINA RESULT:    -8.236      0.000      0.000
REMARK INTER + INTRA:         -12.904
REMARK INTER:                 -10.884
REMARK INTRA:                  -2.020
REMARK UNBOUND:                -2.020
REMARK  Name = cpd128.pdb
REMARK  9 active torsions:
REMARK  status: ('A' for Active; 'I' for Inactive)
REMARK    1  A    between atoms: C_1  and  O_2
REMARK    2  A    between atoms: O_2  and  C_3
REMARK    3  A    between atoms: C_12  and  O_13
REMARK    4  A    between atoms: N_19  and  C_20
REMARK    5  A    between atoms: C_20  and  C_21
REMARK    6  A    between atoms: C_21  and  C_22
REMARK    7  A    between atoms: C_21  and  C_23
REMARK    8  A    between atoms: C_23  and  C_25
REMARK    9  A    between atoms: C_28  and  C_29
REMARK                            x       y       z     vdW  Elec       q    Type
REMARK                         _______ _______ _______ _____ _____    ______ ____
ROOT
ATOM      1  C   UNL     1      39.735 -36.035 -30.951  0.00  0.00    +0.162 A 
ATOM      2  C   UNL     1      40.348 -37.072 -30.245  0.00  0.00    -0.016 A 
ATOM      3  C   UNL     1      39.584 -37.967 -29.465  0.00  0.00    -0.053 A 
ATOM      4  C   UNL     1      38.190 -37.835 -29.347  0.00  0.00    -0.026 A 
ATOM      5  C   UNL     1      37.617 -36.715 -29.930  0.00  0.00    +0.016 A 
ATOM      6  C   UNL     1      38.370 -35.884 -30.776  0.00  0.00    +0.167 A 
ATOM      7  O   UNL     1      37.574 -34.989 -31.484  0.00  0.00    -0.484 OA
ATOM      8  C   UNL     1      36.426 -34.945 -30.628  0.00  0.00    +0.116 C 
ATOM      9  C   UNL     1      35.150 -34.364 -31.208  0.00  0.00    +0.015 C 
ATOM     10  C   UNL     1      34.123 -34.238 -30.061  0.00  0.00    +0.077 C 
ATOM     11  C   UNL     1      34.314 -35.209 -28.915  0.00  0.00    -0.059 C 
ATOM     12  C   UNL     1      35.276 -36.156 -28.878  0.00  0.00    -0.071 C 
ATOM     13  C   UNL     1      36.173 -36.370 -30.073  0.00  0.00    +0.056 C 
ATOM     14  C   UNL     1      35.560 -37.417 -31.037  0.00  0.00    -0.023 C 
ATOM     15  C   UNL     1      35.844 -38.899 -30.662  0.00  0.00    +0.000 C 
ATOM     16  N   UNL     1      35.974 -39.114 -29.213  0.00  0.00    -0.297 N 
ATOM     17  C   UNL     1      37.369 -38.942 -28.721  0.00  0.00    +0.024 C 
ATOM     18  H   UNL     1      35.390 -38.384 -28.804  0.00  0.00    +0.000 HD
ENDROOT
BRANCH   1  20
ATOM     19  C   UNL     1      41.209 -35.710 -32.783  0.00  0.00    +0.079 C 
ATOM     20  O   UNL     1      40.351 -35.159 -31.794  0.00  0.00    -0.491 OA
ENDBRANCH   1  20
BRANCH  10  21
ATOM     21  O   UNL     1      32.809 -34.418 -30.567  0.00  0.00    -0.388 OA
ATOM     22  H   UNL     1      32.306 -33.595 -30.461  0.00  0.00    +0.000 HD
ENDBRANCH  10  21
BRANCH  16  23
ATOM     23  C   UNL     1      35.461 -40.422 -28.765  0.00  0.00    +0.009 C 
BRANCH  23  24
ATOM     24  C   UNL     1      34.490 -40.379 -27.564  0.00  0.00    +0.032 C 
ATOM     25  C   UNL     1      33.765 -41.714 -27.369  0.00  0.00    -0.054 C 
BRANCH  24  26
ATOM     26  C   UNL     1      33.474 -39.259 -27.808  0.00  0.00    +0.167 C 
ATOM     27  O   UNL     1      32.847 -39.167 -28.862  0.00  0.00    -0.292 OA
BRANCH  26  28
ATOM     28  C   UNL     1      33.267 -38.205 -26.763  0.00  0.00    +0.018 A 
ATOM     29  C   UNL     1      32.237 -37.260 -26.828  0.00  0.00    -0.051 A 
ATOM     30  C   UNL     1      32.080 -36.319 -25.804  0.00  0.00    -0.058 A 
ATOM     31  C   UNL     1      32.940 -36.313 -24.699  0.00  0.00    -0.050 A 
ATOM     32  C   UNL     1      32.785 -35.288 -23.616  0.00  0.00    -0.040 C 
ATOM     33  C   UNL     1      33.986 -37.240 -24.651  0.00  0.00    -0.058 A 
ATOM     34  C   UNL     1      34.147 -38.179 -25.672  0.00  0.00    -0.051 A 
ENDBRANCH  26  28
ENDBRANCH  24  26
ENDBRANCH  23  24
ENDBRANCH  16  23
TORSDOF 6
ENDMDL
MODEL 2
REMARK VINA RESULT:    -7.966      1.900      7.244
REMARK INTER + INTRA:         -12.548
REMARK INTER:                 -11.532
REMARK INTRA:                  -1.016
REMARK UNBOUND:                -2.020
REMARK  Name = cpd128.pdb
REMARK  9 active torsions:
REMARK  status: ('A' for Active; 'I' for Inactive)
REMARK    1  A    between atoms: C_1  and  O_2
REMARK    2  A    between atoms: O_2  and  C_3
REMARK    3  A    between atoms: C_12  and  O_13
REMARK    4  A    between atoms: N_19  and  C_20
REMARK    5  A    between atoms: C_20  and  C_21
REMARK    6  A    between atoms: C_21  and  C_22
REMARK    7  A    between atoms: C_21  and  C_23
REMARK    8  A    between atoms: C_23  and  C_25
REMARK    9  A    between atoms: C_28  and  C_29
REMARK                            x       y       z     vdW  Elec       q    Type
REMARK                         _______ _______ _______ _____ _____    ______ ____
ROOT
ATOM      1  C   UNL     1      35.233 -41.638 -27.871  0.00  0.00    +0.162 A 
ATOM      2  C   UNL     1      35.663 -41.924 -29.169  0.00  0.00    -0.016 A 
ATOM      3  C   UNL     1      35.654 -40.929 -30.170  0.00  0.00    -0.053 A 
ATOM      4  C   UNL     1      35.191 -39.628 -29.910  0.00  0.00    -0.026 A 
ATOM      5  C   UNL     1      34.629 -39.403 -28.663  0.00  0.00    +0.016 A 
ATOM      6  C   UNL     1      34.725 -40.369 -27.649  0.00  0.00    +0.167 A 
ATOM      7  O   UNL     1      34.363 -39.868 -26.403  0.00  0.00    -0.484 OA
ATOM      8  C   UNL     1      33.537 -38.769 -26.807  0.00  0.00    +0.116 C 
ATOM      9  C   UNL     1      33.222 -37.716 -25.760  0.00  0.00    +0.015 C 
ATOM     10  C   UNL     1      32.173 -36.753 -26.359  0.00  0.00    +0.077 C 
ATOM     11  C   UNL     1      32.181 -36.648 -27.869  0.00  0.00    -0.059 C 
ATOM     12  C   UNL     1      33.051 -37.302 -28.668  0.00  0.00    -0.071 C 
ATOM     13  C   UNL     1      34.168 -38.117 -28.063  0.00  0.00    +0.056 C 
ATOM     14  C   UNL     1      35.433 -37.244 -27.859  0.00  0.00    -0.023 C 
ATOM     15  C   UNL     1      36.335 -37.093 -29.116  0.00  0.00    +0.000 C 
ATOM     16  N   UNL     1      35.580 -37.140 -30.378  0.00  0.00    -0.297 N 
ATOM     17  C   UNL     1      35.425 -38.520 -30.915  0.00  0.00    +0.024 C 
ATOM     18  H   UNL     1      34.660 -36.781 -30.125  0.00  0.00    +0.000 HD
ENDROOT
BRANCH   1  20
ATOM     19  C   UNL     1      34.151 -43.351 -26.634  0.00  0.00    +0.079 C 
ATOM     20  O   UNL     1      35.265 -42.487 -26.805  0.00  0.00    -0.491 OA
ENDBRANCH   1  20
BRANCH  10  21
ATOM     21  O   UNL     1      32.359 -35.448 -25.832  0.00  0.00    -0.388 OA
ATOM     22  H   UNL     1      32.791 -34.890 -26.498  0.00  0.00    +0.000 HD
ENDBRANCH  10  21
BRANCH  16  23
ATOM     23  C   UNL     1      36.142 -36.273 -31.431  0.00  0.00    +0.009 C 
BRANCH  23  24
ATOM     24  C   UNL     1      37.274 -35.325 -30.978  0.00  0.00    +0.032 C 
ATOM     25  C   UNL     1      36.845 -33.855 -31.038  0.00  0.00    -0.054 C 
BRANCH  24  26
ATOM     26  C   UNL     1      38.486 -35.556 -31.885  0.00  0.00    +0.167 C 
ATOM     27  O   UNL     1      38.555 -35.075 -33.015  0.00  0.00    -0.292 OA
BRANCH  26  28
ATOM     28  C   UNL     1      39.605 -36.437 -31.418  0.00  0.00    +0.018 A 
ATOM     29  C   UNL     1      39.615 -37.054 -30.163  0.00  0.00    -0.051 A 
ATOM     30  C   UNL     1      40.677 -37.890 -29.798  0.00  0.00    -0.058 A 
ATOM     31  C   UNL     1      41.737 -38.127 -30.681  0.00  0.00    -0.050 A 
ATOM     32  C   UNL     1      42.886 -39.002 -30.277  0.00  0.00    -0.040 C 
ATOM     33  C   UNL     1      41.739 -37.485 -31.923  0.00  0.00    -0.058 A 
ATOM     34  C   UNL     1      40.681 -36.650 -32.290  0.00  0.00    -0.051 A 
ENDBRANCH  26  28
ENDBRANCH  24  26
ENDBRANCH  23  24
ENDBRANCH  16  23
TORSDOF 6
ENDMDL
MODEL 3
REMARK VINA RESULT:    -7.543      3.039      6.644
REMARK INTER + INTRA:         -11.988
REMARK INTER:                 -10.607
REMARK INTRA:                  -1.381
REMARK UNBOUND:                -2.020
REMARK  Name = cpd128.pdb
REMARK  9 active torsions:
REMARK  status: ('A' for Active; 'I' for Inactive)
REMARK    1  A    between atoms: C_1  and  O_2
REMARK    2  A    between atoms: O_2  and  C_3
REMARK    3  A    between atoms: C_12  and  O_13
REMARK    4  A    between atoms: N_19  and  C_20
REMARK    5  A    between atoms: C_20  and  C_21
REMARK    6  A    between atoms: C_21  and  C_22
REMARK    7  A    between atoms: C_21  and  C_23
REMARK    8  A    between atoms: C_23  and  C_25
REMARK    9  A    between atoms: C_28  and  C_29
REMARK                            x       y       z     vdW  Elec       q    Type
REMARK                         _______ _______ _______ _____ _____    ______ ____
ROOT
ATOM      1  C   UNL     1      32.410 -40.637 -33.968  0.00  0.00    +0.162 A 
ATOM      2  C   UNL     1      33.460 -41.541 -33.798  0.00  0.00    -0.016 A 
ATOM      3  C   UNL     1      34.564 -41.224 -32.977  0.00  0.00    -0.053 A 
ATOM      4  C   UNL     1      34.661 -39.984 -32.323  0.00  0.00    -0.026 A 
ATOM      5  C   UNL     1      33.688 -39.042 -32.621  0.00  0.00    +0.016 A 
ATOM      6  C   UNL     1      32.551 -39.398 -33.364  0.00  0.00    +0.167 A 
ATOM      7  O   UNL     1      31.564 -38.419 -33.324  0.00  0.00    -0.484 OA
ATOM      8  C   UNL     1      32.362 -37.273 -33.007  0.00  0.00    +0.116 C 
ATOM      9  C   UNL     1      31.635 -36.039 -32.505  0.00  0.00    +0.015 C 
ATOM     10  C   UNL     1      32.662 -34.887 -32.421  0.00  0.00    +0.077 C 
ATOM     11  C   UNL     1      34.099 -35.317 -32.217  0.00  0.00    -0.059 C 
ATOM     12  C   UNL     1      34.491 -36.601 -32.075  0.00  0.00    -0.071 C 
ATOM     13  C   UNL     1      33.462 -37.703 -32.004  0.00  0.00    +0.056 C 
ATOM     14  C   UNL     1      33.034 -37.957 -30.535  0.00  0.00    -0.023 C 
ATOM     15  C   UNL     1      33.976 -38.897 -29.731  0.00  0.00    +0.000 C 
ATOM     16  N   UNL     1      35.380 -38.813 -30.161  0.00  0.00    -0.297 N 
ATOM     17  C   UNL     1      35.713 -39.764 -31.257  0.00  0.00    +0.024 C 
ATOM     18  H   UNL     1      35.471 -37.861 -30.514  0.00  0.00    +0.000 HD
ENDROOT
BRANCH   1  20
ATOM     19  C   UNL     1      31.395 -41.415 -35.967  0.00  0.00    +0.079 C 
ATOM     20  O   UNL     1      31.261 -40.855 -34.669  0.00  0.00    -0.491 OA
ENDBRANCH   1  20
BRANCH  10  21
ATOM     21  O   UNL     1      32.317 -34.009 -31.360  0.00  0.00    -0.388 OA
ATOM     22  H   UNL     1      33.099 -33.499 -31.096  0.00  0.00    +0.000 HD
ENDBRANCH  10  21
BRANCH  16  23
ATOM     23  C   UNL     1      36.344 -38.990 -29.058  0.00  0.00    +0.009 C 
BRANCH  23  24
ATOM     24  C   UNL     1      36.697 -37.709 -28.271  0.00  0.00    +0.032 C 
ATOM     25  C   UNL     1      35.658 -37.400 -27.188  0.00  0.00    -0.054 C 
BRANCH  24  26
ATOM     26  C   UNL     1      36.783 -36.544 -29.263  0.00  0.00    +0.167 C 
ATOM     27  O   UNL     1      35.905 -35.687 -29.338  0.00  0.00    -0.292 OA
BRANCH  26  28
ATOM     28  C   UNL     1      37.939 -36.465 -30.215  0.00  0.00    +0.018 A 
ATOM     29  C   UNL     1      39.151 -37.128 -29.998  0.00  0.00    -0.051 A 
ATOM     30  C   UNL     1      40.181 -37.037 -30.940  0.00  0.00    -0.058 A 
ATOM     31  C   UNL     1      40.014 -36.292 -32.114  0.00  0.00    -0.050 A 
ATOM     32  C   UNL     1      41.129 -36.175 -33.110  0.00  0.00    -0.040 C 
ATOM     33  C   UNL     1      38.812 -35.607 -32.314  0.00  0.00    -0.058 A 
ATOM     34  C   UNL     1      37.782 -35.694 -31.375  0.00  0.00    -0.051 A 
ENDBRANCH  26  28
ENDBRANCH  24  26
ENDBRANCH  23  24
ENDBRANCH  16  23
TORSDOF 6
ENDMDL
MODEL 4
REMARK VINA RESULT:    -7.473      1.113      1.535
REMARK INTER + INTRA:         -11.896
REMARK INTER:                  -9.790
REMARK INTRA:                  -2.106
REMARK UNBOUND:                -2.020
REMARK  Name = cpd128.pdb
REMARK  9 active torsions:
REMARK  status: ('A' for Active; 'I' for Inactive)
REMARK    1  A    between atoms: C_1  and  O_2
REMARK    2  A    between atoms: O_2  and  C_3
REMARK    3  A    between atoms: C_12  and  O_13
REMARK    4  A    between atoms: N_19  and  C_20
REMARK    5  A    between atoms: C_20  and  C_21
REMARK    6  A    between atoms: C_21  and  C_22
REMARK    7  A    between atoms: C_21  and  C_23
REMARK    8  A    between atoms: C_23  and  C_25
REMARK    9  A    between atoms: C_28  and  C_29
REMARK                            x       y       z     vdW  Elec       q    Type
REMARK                         _______ _______ _______ _____ _____    ______ ____
ROOT
ATOM      1  C   UNL     1      39.838 -36.134 -30.950  0.00  0.00    +0.162 A 
ATOM      2  C   UNL     1      40.466 -37.116 -30.180  0.00  0.00    -0.016 A 
ATOM      3  C   UNL     1      39.715 -37.965 -29.337  0.00  0.00    -0.053 A 
ATOM      4  C   UNL     1      38.321 -37.839 -29.221  0.00  0.00    -0.026 A 
ATOM      5  C   UNL     1      37.733 -36.766 -29.873  0.00  0.00    +0.016 A 
ATOM      6  C   UNL     1      38.472 -35.986 -30.776  0.00  0.00    +0.167 A 
ATOM      7  O   UNL     1      37.664 -35.148 -31.537  0.00  0.00    -0.484 OA
ATOM      8  C   UNL     1      36.520 -35.059 -30.679  0.00  0.00    +0.116 C 
ATOM      9  C   UNL     1      35.234 -34.531 -31.289  0.00  0.00    +0.015 C 
ATOM     10  C   UNL     1      34.212 -34.339 -30.146  0.00  0.00    +0.077 C 
ATOM     11  C   UNL     1      34.419 -35.230 -28.940  0.00  0.00    -0.059 C 
ATOM     12  C   UNL     1      35.391 -36.163 -28.846  0.00  0.00    -0.071 C 
ATOM     13  C   UNL     1      36.285 -36.446 -30.029  0.00  0.00    +0.056 C 
ATOM     14  C   UNL     1      35.677 -37.561 -30.918  0.00  0.00    -0.023 C 
ATOM     15  C   UNL     1      35.979 -39.012 -30.448  0.00  0.00    +0.000 C 
ATOM     16  N   UNL     1      36.119 -39.129 -28.989  0.00  0.00    -0.297 N 
ATOM     17  C   UNL     1      37.515 -38.910 -28.517  0.00  0.00    +0.024 C 
ATOM     18  H   UNL     1      35.530 -38.380 -28.626  0.00  0.00    +0.000 HD
ENDROOT
BRANCH   1  20
ATOM     19  C   UNL     1      41.170 -35.926 -32.903  0.00  0.00    +0.079 C 
ATOM     20  O   UNL     1      40.440 -35.309 -31.853  0.00  0.00    -0.491 OA
ENDBRANCH   1  20
BRANCH  10  21
ATOM     21  O   UNL     1      32.897 -34.565 -30.632  0.00  0.00    -0.388 OA
ATOM     22  H   UNL     1      32.338 -34.891 -29.909  0.00  0.00    +0.000 HD
ENDBRANCH  10  21
BRANCH  16  23
ATOM     23  C   UNL     1      35.623 -40.409 -28.452  0.00  0.00    +0.009 C 
BRANCH  23  24
ATOM     24  C   UNL     1      34.332 -40.320 -27.607  0.00  0.00    +0.032 C 
ATOM     25  C   UNL     1      34.025 -41.641 -26.894  0.00  0.00    -0.054 C 
BRANCH  24  26
ATOM     26  C   UNL     1      33.174 -39.943 -28.537  0.00  0.00    +0.167 C 
ATOM     27  O   UNL     1      32.849 -40.650 -29.491  0.00  0.00    -0.292 OA
BRANCH  26  28
ATOM     28  C   UNL     1      32.443 -38.652 -28.326  0.00  0.00    +0.018 A 
ATOM     29  C   UNL     1      31.671 -38.043 -29.320  0.00  0.00    -0.051 A 
ATOM     30  C   UNL     1      30.988 -36.852 -29.050  0.00  0.00    -0.058 A 
ATOM     31  C   UNL     1      31.060 -36.258 -27.783  0.00  0.00    -0.050 A 
ATOM     32  C   UNL     1      30.348 -34.968 -27.505  0.00  0.00    -0.040 C 
ATOM     33  C   UNL     1      31.856 -36.853 -26.801  0.00  0.00    -0.058 A 
ATOM     34  C   UNL     1      32.540 -38.042 -27.068  0.00  0.00    -0.051 A 
ENDBRANCH  26  28
ENDBRANCH  24  26
ENDBRANCH  23  24
ENDBRANCH  16  23
TORSDOF 6
ENDMDL
MODEL 5
REMARK VINA RESULT:    -7.305      1.976      2.922
REMARK INTER + INTRA:         -11.673
REMARK INTER:                 -10.327
REMARK INTRA:                  -1.346
REMARK UNBOUND:                -2.020
REMARK  Name = cpd128.pdb
REMARK  9 active torsions:
REMARK  status: ('A' for Active; 'I' for Inactive)
REMARK    1  A    between atoms: C_1  and  O_2
REMARK    2  A    between atoms: O_2  and  C_3
REMARK    3  A    between atoms: C_12  and  O_13
REMARK    4  A    between atoms: N_19  and  C_20
REMARK    5  A    between atoms: C_20  and  C_21
REMARK    6  A    between atoms: C_21  and  C_22
REMARK    7  A    between atoms: C_21  and  C_23
REMARK    8  A    between atoms: C_23  and  C_25
REMARK    9  A    between atoms: C_28  and  C_29
REMARK                            x       y       z     vdW  Elec       q    Type
REMARK                         _______ _______ _______ _____ _____    ______ ____
ROOT
ATOM      1  C   UNL     1      38.331 -36.881 -30.173  0.00  0.00    +0.162 A 
ATOM      2  C   UNL     1      38.352 -37.791 -29.114  0.00  0.00    -0.016 A 
ATOM      3  C   UNL     1      37.233 -37.940 -28.266  0.00  0.00    -0.053 A 
ATOM      4  C   UNL     1      36.072 -37.167 -28.436  0.00  0.00    -0.026 A 
ATOM      5  C   UNL     1      36.124 -36.166 -29.394  0.00  0.00    +0.016 A 
ATOM      6  C   UNL     1      37.203 -36.086 -30.289  0.00  0.00    +0.167 A 
ATOM      7  O   UNL     1      36.954 -35.214 -31.344  0.00  0.00    -0.484 OA
ATOM      8  C   UNL     1      35.949 -34.384 -30.749  0.00  0.00    +0.116 C 
ATOM      9  C   UNL     1      35.124 -33.516 -31.681  0.00  0.00    +0.015 C 
ATOM     10  C   UNL     1      34.258 -32.578 -30.811  0.00  0.00    +0.077 C 
ATOM     11  C   UNL     1      33.930 -33.100 -29.429  0.00  0.00    -0.059 C 
ATOM     12  C   UNL     1      34.316 -34.309 -28.965  0.00  0.00    -0.071 C 
ATOM     13  C   UNL     1      35.028 -35.277 -29.878  0.00  0.00    +0.056 C 
ATOM     14  C   UNL     1      34.009 -36.186 -30.612  0.00  0.00    -0.023 C 
ATOM     15  C   UNL     1      33.536 -37.426 -29.802  0.00  0.00    +0.000 C 
ATOM     16  N   UNL     1      33.512 -37.193 -28.350  0.00  0.00    -0.297 N 
ATOM     17  C   UNL     1      34.805 -37.516 -27.686  0.00  0.00    +0.024 C 
ATOM     18  H   UNL     1      33.342 -36.191 -28.266  0.00  0.00    +0.000 HD
ENDROOT
BRANCH   1  20
ATOM     19  C   UNL     1      40.641 -37.009 -30.704  0.00  0.00    +0.079 C 
ATOM     20  O   UNL     1      39.312 -36.701 -31.102  0.00  0.00    -0.491 OA
ENDBRANCH   1  20
BRANCH  10  21
ATOM     21  O   UNL     1      33.032 -32.302 -31.472  0.00  0.00    -0.388 OA
ATOM     22  H   UNL     1      32.786 -33.060 -32.026  0.00  0.00    +0.000 HD
ENDBRANCH  10  21
BRANCH  16  23
ATOM     23  C   UNL     1      32.422 -37.907 -27.658  0.00  0.00    +0.009 C 
BRANCH  23  24
ATOM     24  C   UNL     1      31.264 -37.020 -27.151  0.00  0.00    +0.032 C 
ATOM     25  C   UNL     1      30.610 -36.230 -28.289  0.00  0.00    -0.054 C 
BRANCH  24  26
ATOM     26  C   UNL     1      31.822 -36.058 -26.097  0.00  0.00    +0.167 C 
ATOM     27  O   UNL     1      32.040 -34.873 -26.347  0.00  0.00    -0.292 OA
BRANCH  26  28
ATOM     28  C   UNL     1      32.169 -36.572 -24.733  0.00  0.00    +0.018 A 
ATOM     29  C   UNL     1      31.229 -37.156 -23.877  0.00  0.00    -0.051 A 
ATOM     30  C   UNL     1      31.624 -37.644 -22.626  0.00  0.00    -0.058 A 
ATOM     31  C   UNL     1      32.961 -37.565 -22.217  0.00  0.00    -0.050 A 
ATOM     32  C   UNL     1      33.376 -38.065 -20.865  0.00  0.00    -0.040 C 
ATOM     33  C   UNL     1      33.892 -36.955 -23.061  0.00  0.00    -0.058 A 
ATOM     34  C   UNL     1      33.501 -36.465 -24.310  0.00  0.00    -0.051 A 
ENDBRANCH  26  28
ENDBRANCH  24  26
ENDBRANCH  23  24
ENDBRANCH  16  23
TORSDOF 6
ENDMDL
MODEL 6
REMARK VINA RESULT:    -7.024     16.689     20.501
REMARK INTER + INTRA:         -11.302
REMARK INTER:                  -9.324
REMARK INTRA:                  -1.978
REMARK UNBOUND:                -2.020
REMARK  Name = cpd128.pdb
REMARK  9 active torsions:
REMARK  status: ('A' for Active; 'I' for Inactive)
REMARK    1  A    between atoms: C_1  and  O_2
REMARK    2  A    between atoms: O_2  and  C_3
REMARK    3  A    between atoms: C_12  and  O_13
REMARK    4  A    between atoms: N_19  and  C_20
REMARK    5  A    between atoms: C_20  and  C_21
REMARK    6  A    between atoms: C_21  and  C_22
REMARK    7  A    between atoms: C_21  and  C_23
REMARK    8  A    between atoms: C_23  and  C_25
REMARK    9  A    between atoms: C_28  and  C_29
REMARK                            x       y       z     vdW  Elec       q    Type
REMARK                         _______ _______ _______ _____ _____    ______ ____
ROOT
ATOM      1  C   UNL     1      46.354 -21.331 -40.666  0.00  0.00    +0.162 A 
ATOM      2  C   UNL     1      45.236 -21.756 -41.388  0.00  0.00    -0.016 A 
ATOM      3  C   UNL     1      43.933 -21.570 -40.879  0.00  0.00    -0.053 A 
ATOM      4  C   UNL     1      43.710 -20.979 -39.624  0.00  0.00    -0.026 A 
ATOM      5  C   UNL     1      44.831 -20.702 -38.857  0.00  0.00    +0.016 A 
ATOM      6  C   UNL     1      46.119 -20.806 -39.406  0.00  0.00    +0.167 A 
ATOM      7  O   UNL     1      47.090 -20.227 -38.596  0.00  0.00    -0.484 OA
ATOM      8  C   UNL     1      46.421 -20.279 -37.330  0.00  0.00    +0.116 C 
ATOM      9  C   UNL     1      46.978 -19.414 -36.215  0.00  0.00    +0.015 C 
ATOM     10  C   UNL     1      46.232 -19.782 -34.913  0.00  0.00    +0.077 C 
ATOM     11  C   UNL     1      44.837 -20.339 -35.104  0.00  0.00    -0.059 C 
ATOM     12  C   UNL     1      44.239 -20.485 -36.306  0.00  0.00    -0.071 C 
ATOM     13  C   UNL     1      44.918 -19.978 -37.555  0.00  0.00    +0.056 C 
ATOM     14  C   UNL     1      44.516 -18.508 -37.838  0.00  0.00    -0.023 C 
ATOM     15  C   UNL     1      43.171 -18.330 -38.596  0.00  0.00    +0.000 C 
ATOM     16  N   UNL     1      42.196 -19.392 -38.301  0.00  0.00    -0.297 N 
ATOM     17  C   UNL     1      42.314 -20.562 -39.214  0.00  0.00    +0.024 C 
ATOM     18  H   UNL     1      42.437 -19.688 -37.355  0.00  0.00    +0.000 HD
ENDROOT
BRANCH   1  20
ATOM     19  C   UNL     1      48.217 -22.675 -41.265  0.00  0.00    +0.079 C 
ATOM     20  O   UNL     1      47.651 -21.385 -41.081  0.00  0.00    -0.491 OA
ENDBRANCH   1  20
BRANCH  10  21
ATOM     21  O   UNL     1      46.131 -18.640 -34.075  0.00  0.00    -0.388 OA
ATOM     22  H   UNL     1      45.410 -18.071 -34.389  0.00  0.00    +0.000 HD
ENDBRANCH  10  21
BRANCH  16  23
ATOM     23  C   UNL     1      40.798 -18.921 -38.297  0.00  0.00    +0.009 C 
BRANCH  23  24
ATOM     24  C   UNL     1      39.935 -19.415 -37.115  0.00  0.00    +0.032 C 
ATOM     25  C   UNL     1      38.633 -18.617 -36.987  0.00  0.00    -0.054 C 
BRANCH  24  26
ATOM     26  C   UNL     1      40.759 -19.284 -35.830  0.00  0.00    +0.167 C 
ATOM     27  O   UNL     1      41.424 -18.279 -35.582  0.00  0.00    -0.292 OA
BRANCH  26  28
ATOM     28  C   UNL     1      40.812 -20.428 -34.863  0.00  0.00    +0.018 A 
ATOM     29  C   UNL     1      40.524 -21.748 -35.227  0.00  0.00    -0.051 A 
ATOM     30  C   UNL     1      40.620 -22.776 -34.283  0.00  0.00    -0.058 A 
ATOM     31  C   UNL     1      41.012 -22.503 -32.966  0.00  0.00    -0.050 A 
ATOM     32  C   UNL     1      41.089 -23.603 -31.950  0.00  0.00    -0.040 C 
ATOM     33  C   UNL     1      41.271 -21.180 -32.597  0.00  0.00    -0.058 A 
ATOM     34  C   UNL     1      41.175 -20.151 -33.538  0.00  0.00    -0.051 A 
ENDBRANCH  26  28
ENDBRANCH  24  26
ENDBRANCH  23  24
ENDBRANCH  16  23
TORSDOF 6
ENDMDL
MODEL 7
REMARK VINA RESULT:    -6.990      2.794      4.635
REMARK INTER + INTRA:         -11.257
REMARK INTER:                  -9.732
REMARK INTRA:                  -1.525
REMARK UNBOUND:                -2.020
REMARK  Name = cpd128.pdb
REMARK  9 active torsions:
REMARK  status: ('A' for Active; 'I' for Inactive)
REMARK    1  A    between atoms: C_1  and  O_2
REMARK    2  A    between atoms: O_2  and  C_3
REMARK    3  A    between atoms: C_12  and  O_13
REMARK    4  A    between atoms: N_19  and  C_20
REMARK    5  A    between atoms: C_20  and  C_21
REMARK    6  A    between atoms: C_21  and  C_22
REMARK    7  A    between atoms: C_21  and  C_23
REMARK    8  A    between atoms: C_23  and  C_25
REMARK    9  A    between atoms: C_28  and  C_29
REMARK                            x       y       z     vdW  Elec       q    Type
REMARK                         _______ _______ _______ _____ _____    ______ ____
ROOT
ATOM      1  C   UNL     1      38.204 -36.962 -29.862  0.00  0.00    +0.162 A 
ATOM      2  C   UNL     1      38.014 -37.792 -28.755  0.00  0.00    -0.016 A 
ATOM      3  C   UNL     1      36.813 -37.747 -28.015  0.00  0.00    -0.053 A 
ATOM      4  C   UNL     1      35.779 -36.854 -28.343  0.00  0.00    -0.026 A 
ATOM      5  C   UNL     1      36.043 -35.935 -29.347  0.00  0.00    +0.016 A 
ATOM      6  C   UNL     1      37.200 -36.047 -30.134  0.00  0.00    +0.167 A 
ATOM      7  O   UNL     1      37.160 -35.226 -31.256  0.00  0.00    -0.484 OA
ATOM      8  C   UNL     1      36.217 -34.243 -30.811  0.00  0.00    +0.116 C 
ATOM      9  C   UNL     1      35.596 -33.348 -31.868  0.00  0.00    +0.015 C 
ATOM     10  C   UNL     1      34.779 -32.256 -31.143  0.00  0.00    +0.077 C 
ATOM     11  C   UNL     1      34.264 -32.638 -29.772  0.00  0.00    -0.059 C 
ATOM     12  C   UNL     1      34.451 -33.850 -29.205  0.00  0.00    -0.071 C 
ATOM     13  C   UNL     1      35.116 -34.957 -29.986  0.00  0.00    +0.056 C 
ATOM     14  C   UNL     1      34.062 -35.786 -30.763  0.00  0.00    -0.023 C 
ATOM     15  C   UNL     1      33.364 -36.902 -29.935  0.00  0.00    +0.000 C 
ATOM     16  N   UNL     1      33.239 -36.568 -28.508  0.00  0.00    -0.297 N 
ATOM     17  C   UNL     1      34.415 -36.997 -27.702  0.00  0.00    +0.024 C 
ATOM     18  H   UNL     1      33.189 -35.549 -28.499  0.00  0.00    +0.000 HD
ENDROOT
BRANCH   1  20
ATOM     19  C   UNL     1      40.560 -37.118 -30.101  0.00  0.00    +0.079 C 
ATOM     20  O   UNL     1      39.280 -36.965 -30.698  0.00  0.00    -0.491 OA
ENDBRANCH   1  20
BRANCH  10  21
ATOM     21  O   UNL     1      33.663 -31.881 -31.937  0.00  0.00    -0.388 OA
ATOM     22  H   UNL     1      33.375 -32.640 -32.468  0.00  0.00    +0.000 HD
ENDBRANCH  10  21
BRANCH  16  23
ATOM     23  C   UNL     1      32.009 -37.097 -27.887  0.00  0.00    +0.009 C 
BRANCH  23  24
ATOM     24  C   UNL     1      30.753 -36.211 -28.041  0.00  0.00    +0.032 C 
ATOM     25  C   UNL     1      29.986 -36.529 -29.329  0.00  0.00    -0.054 C 
BRANCH  24  26
ATOM     26  C   UNL     1      31.196 -34.744 -28.043  0.00  0.00    +0.167 C 
ATOM     27  O   UNL     1      31.915 -34.281 -27.159  0.00  0.00    -0.292 OA
BRANCH  26  28
ATOM     28  C   UNL     1      30.703 -33.821 -29.115  0.00  0.00    +0.018 A 
ATOM     29  C   UNL     1      31.080 -33.941 -30.457  0.00  0.00    -0.051 A 
ATOM     30  C   UNL     1      30.560 -33.064 -31.416  0.00  0.00    -0.058 A 
ATOM     31  C   UNL     1      29.651 -32.064 -31.051  0.00  0.00    -0.050 A 
ATOM     32  C   UNL     1      29.116 -31.109 -32.077  0.00  0.00    -0.040 C 
ATOM     33  C   UNL     1      29.298 -31.927 -29.706  0.00  0.00    -0.058 A 
ATOM     34  C   UNL     1      29.817 -32.800 -28.746  0.00  0.00    -0.051 A 
ENDBRANCH  26  28
ENDBRANCH  24  26
ENDBRANCH  23  24
ENDBRANCH  16  23
TORSDOF 6
ENDMDL
MODEL 8
REMARK VINA RESULT:    -6.967      2.065      3.842
REMARK INTER + INTRA:         -11.228
REMARK INTER:                  -9.887
REMARK INTRA:                  -1.340
REMARK UNBOUND:                -2.020
REMARK  Name = cpd128.pdb
REMARK  9 active torsions:
REMARK  status: ('A' for Active; 'I' for Inactive)
REMARK    1  A    between atoms: C_1  and  O_2
REMARK    2  A    between atoms: O_2  and  C_3
REMARK    3  A    between atoms: C_12  and  O_13
REMARK    4  A    between atoms: N_19  and  C_20
REMARK    5  A    between atoms: C_20  and  C_21
REMARK    6  A    between atoms: C_21  and  C_22
REMARK    7  A    between atoms: C_21  and  C_23
REMARK    8  A    between atoms: C_23  and  C_25
REMARK    9  A    between atoms: C_28  and  C_29
REMARK                            x       y       z     vdW  Elec       q    Type
REMARK                         _______ _______ _______ _____ _____    ______ ____
ROOT
ATOM      1  C   UNL     1      39.557 -36.052 -31.122  0.00  0.00    +0.162 A 
ATOM      2  C   UNL     1      40.211 -37.029 -30.369  0.00  0.00    -0.016 A 
ATOM      3  C   UNL     1      39.494 -37.854 -29.475  0.00  0.00    -0.053 A 
ATOM      4  C   UNL     1      38.109 -37.709 -29.290  0.00  0.00    -0.026 A 
ATOM      5  C   UNL     1      37.502 -36.638 -29.928  0.00  0.00    +0.016 A 
ATOM      6  C   UNL     1      38.204 -35.883 -30.882  0.00  0.00    +0.167 A 
ATOM      7  O   UNL     1      37.368 -35.046 -31.614  0.00  0.00    -0.484 OA
ATOM      8  C   UNL     1      36.270 -34.928 -30.701  0.00  0.00    +0.116 C 
ATOM      9  C   UNL     1      34.962 -34.392 -31.253  0.00  0.00    +0.015 C 
ATOM     10  C   UNL     1      34.003 -34.169 -30.063  0.00  0.00    +0.077 C 
ATOM     11  C   UNL     1      34.260 -35.042 -28.854  0.00  0.00    -0.059 C 
ATOM     12  C   UNL     1      35.224 -35.987 -28.794  0.00  0.00    -0.071 C 
ATOM     13  C   UNL     1      36.052 -36.301 -30.016  0.00  0.00    +0.056 C 
ATOM     14  C   UNL     1      35.385 -37.422 -30.854  0.00  0.00    -0.023 C 
ATOM     15  C   UNL     1      35.692 -38.869 -30.376  0.00  0.00    +0.000 C 
ATOM     16  N   UNL     1      35.906 -38.964 -28.924  0.00  0.00    -0.297 N 
ATOM     17  C   UNL     1      37.326 -38.757 -28.528  0.00  0.00    +0.024 C 
ATOM     18  H   UNL     1      35.345 -38.202 -28.544  0.00  0.00    +0.000 HD
ENDROOT
BRANCH   1  20
ATOM     19  C   UNL     1      41.225 -35.781 -32.788  0.00  0.00    +0.079 C 
ATOM     20  O   UNL     1      40.122 -35.250 -32.068  0.00  0.00    -0.491 OA
ENDBRANCH   1  20
BRANCH  10  21
ATOM     21  O   UNL     1      32.662 -34.385 -30.477  0.00  0.00    -0.388 OA
ATOM     22  H   UNL     1      32.367 -35.258 -30.173  0.00  0.00    +0.000 HD
ENDBRANCH  10  21
BRANCH  16  23
ATOM     23  C   UNL     1      35.421 -40.229 -28.340  0.00  0.00    +0.009 C 
BRANCH  23  24
ATOM     24  C   UNL     1      33.904 -40.292 -28.055  0.00  0.00    +0.032 C 
ATOM     25  C   UNL     1      33.613 -40.644 -26.593  0.00  0.00    -0.054 C 
BRANCH  24  26
ATOM     26  C   UNL     1      33.284 -41.341 -28.983  0.00  0.00    +0.167 C 
ATOM     27  O   UNL     1      33.100 -42.502 -28.620  0.00  0.00    -0.292 OA
BRANCH  26  28
ATOM     28  C   UNL     1      32.937 -40.973 -30.393  0.00  0.00    +0.018 A 
ATOM     29  C   UNL     1      32.096 -39.902 -30.716  0.00  0.00    -0.051 A 
ATOM     30  C   UNL     1      31.834 -39.592 -32.055  0.00  0.00    -0.058 A 
ATOM     31  C   UNL     1      32.414 -40.338 -33.089  0.00  0.00    -0.050 A 
ATOM     32  C   UNL     1      32.111 -40.018 -34.522  0.00  0.00    -0.040 C 
ATOM     33  C   UNL     1      33.230 -41.425 -32.764  0.00  0.00    -0.058 A 
ATOM     34  C   UNL     1      33.492 -41.739 -31.427  0.00  0.00    -0.051 A 
ENDBRANCH  26  28
ENDBRANCH  24  26
ENDBRANCH  23  24
ENDBRANCH  16  23
TORSDOF 6
ENDMDL
MODEL 9
REMARK VINA RESULT:    -6.733     15.921     19.818
REMARK INTER + INTRA:         -10.918
REMARK INTER:                  -8.953
REMARK INTRA:                  -1.965
REMARK UNBOUND:                -2.020
REMARK  Name = cpd128.pdb
REMARK  9 active torsions:
REMARK  status: ('A' for Active; 'I' for Inactive)
REMARK    1  A    between atoms: C_1  and  O_2
REMARK    2  A    between atoms: O_2  and  C_3
REMARK    3  A    between atoms: C_12  and  O_13
REMARK    4  A    between atoms: N_19  and  C_20
REMARK    5  A    between atoms: C_20  and  C_21
REMARK    6  A    between atoms: C_21  and  C_22
REMARK    7  A    between atoms: C_21  and  C_23
REMARK    8  A    between atoms: C_23  and  C_25
REMARK    9  A    between atoms: C_28  and  C_29
REMARK                            x       y       z     vdW  Elec       q    Type
REMARK                         _______ _______ _______ _____ _____    ______ ____
ROOT
ATOM      1  C   UNL     1      38.574 -23.702 -34.299  0.00  0.00    +0.162 A 
ATOM      2  C   UNL     1      38.483 -23.124 -33.031  0.00  0.00    -0.016 A 
ATOM      3  C   UNL     1      39.039 -21.852 -32.775  0.00  0.00    -0.053 A 
ATOM      4  C   UNL     1      39.724 -21.134 -33.770  0.00  0.00    -0.026 A 
ATOM      5  C   UNL     1      39.936 -21.785 -34.975  0.00  0.00    +0.016 A 
ATOM      6  C   UNL     1      39.303 -23.008 -35.249  0.00  0.00    +0.167 A 
ATOM      7  O   UNL     1      39.403 -23.367 -36.590  0.00  0.00    -0.484 OA
ATOM      8  C   UNL     1      40.564 -22.616 -36.964  0.00  0.00    +0.116 C 
ATOM      9  C   UNL     1      40.820 -22.426 -38.447  0.00  0.00    +0.015 C 
ATOM     10  C   UNL     1      42.209 -21.769 -38.608  0.00  0.00    +0.077 C 
ATOM     11  C   UNL     1      42.669 -20.937 -37.430  0.00  0.00    -0.059 C 
ATOM     12  C   UNL     1      41.932 -20.728 -36.317  0.00  0.00    -0.071 C 
ATOM     13  C   UNL     1      40.517 -21.247 -36.239  0.00  0.00    +0.056 C 
ATOM     14  C   UNL     1      39.517 -20.188 -36.771  0.00  0.00    -0.023 C 
ATOM     15  C   UNL     1      39.091 -19.109 -35.736  0.00  0.00    +0.000 C 
ATOM     16  N   UNL     1      40.142 -18.806 -34.753  0.00  0.00    -0.297 N 
ATOM     17  C   UNL     1      40.086 -19.681 -33.549  0.00  0.00    +0.024 C 
ATOM     18  H   UNL     1      41.009 -18.995 -35.256  0.00  0.00    +0.000 HD
ENDROOT
BRANCH   1  20
ATOM     19  C   UNL     1      37.128 -25.510 -33.774  0.00  0.00    +0.079 C 
ATOM     20  O   UNL     1      38.015 -24.882 -34.689  0.00  0.00    -0.491 OA
ENDBRANCH   1  20
BRANCH  10  21
ATOM     21  O   UNL     1      42.219 -20.937 -39.758  0.00  0.00    -0.388 OA
ATOM     22  H   UNL     1      43.076 -20.487 -39.823  0.00  0.00    +0.000 HD
ENDBRANCH  10  21
BRANCH  16  23
ATOM     23  C   UNL     1      40.155 -17.395 -34.324  0.00  0.00    +0.009 C 
BRANCH  23  24
ATOM     24  C   UNL     1      40.769 -17.129 -32.931  0.00  0.00    +0.032 C 
ATOM     25  C   UNL     1      39.973 -16.080 -32.148  0.00  0.00    -0.054 C 
BRANCH  24  26
ATOM     26  C   UNL     1      42.214 -16.657 -33.124  0.00  0.00    +0.167 C 
ATOM     27  O   UNL     1      42.568 -15.513 -32.841  0.00  0.00    -0.292 OA
BRANCH  26  28
ATOM     28  C   UNL     1      43.223 -17.586 -33.726  0.00  0.00    +0.018 A 
ATOM     29  C   UNL     1      43.578 -18.807 -33.143  0.00  0.00    -0.051 A 
ATOM     30  C   UNL     1      44.507 -19.644 -33.772  0.00  0.00    -0.058 A 
ATOM     31  C   UNL     1      45.088 -19.279 -34.992  0.00  0.00    -0.050 A 
ATOM     32  C   UNL     1      46.102 -20.166 -35.650  0.00  0.00    -0.040 C 
ATOM     33  C   UNL     1      44.754 -18.045 -35.558  0.00  0.00    -0.058 A 
ATOM     34  C   UNL     1      43.828 -17.207 -34.933  0.00  0.00    -0.051 A 
ENDBRANCH  26  28
ENDBRANCH  24  26
ENDBRANCH  23  24
ENDBRANCH  16  23
TORSDOF 6
ENDMDL
MODEL 10
REMARK VINA RESULT:    -6.649     16.480     20.153
REMARK INTER + INTRA:         -10.807
REMARK INTER:                  -9.809
REMARK INTRA:                  -0.998
REMARK UNBOUND:                -2.020
REMARK  Name = cpd128.pdb
REMARK  9 active torsions:
REMARK  status: ('A' for Active; 'I' for Inactive)
REMARK    1  A    between atoms: C_1  and  O_2
REMARK    2  A    between atoms: O_2  and  C_3
REMARK    3  A    between atoms: C_12  and  O_13
REMARK    4  A    between atoms: N_19  and  C_20
REMARK    5  A    between atoms: C_20  and  C_21
REMARK    6  A    between atoms: C_21  and  C_22
REMARK    7  A    between atoms: C_21  and  C_23
REMARK    8  A    between atoms: C_23  and  C_25
REMARK    9  A    between atoms: C_28  and  C_29
REMARK                            x       y       z     vdW  Elec       q    Type
REMARK                         _______ _______ _______ _____ _____    ______ ____
ROOT
ATOM      1  C   UNL     1      43.904 -20.975 -40.560  0.00  0.00    +0.162 A 
ATOM      2  C   UNL     1      42.632 -21.518 -40.369  0.00  0.00    -0.016 A 
ATOM      3  C   UNL     1      41.992 -21.438 -39.113  0.00  0.00    -0.053 A 
ATOM      4  C   UNL     1      42.616 -20.838 -38.007  0.00  0.00    -0.026 A 
ATOM      5  C   UNL     1      43.934 -20.440 -38.173  0.00  0.00    +0.016 A 
ATOM      6  C   UNL     1      44.527 -20.441 -39.445  0.00  0.00    +0.167 A 
ATOM      7  O   UNL     1      45.737 -19.755 -39.466  0.00  0.00    -0.484 OA
ATOM      8  C   UNL     1      46.093 -19.836 -38.081  0.00  0.00    +0.116 C 
ATOM      9  C   UNL     1      47.176 -18.894 -37.587  0.00  0.00    +0.015 C 
ATOM     10  C   UNL     1      47.525 -19.294 -36.136  0.00  0.00    +0.077 C 
ATOM     11  C   UNL     1      46.414 -19.981 -35.371  0.00  0.00    -0.059 C 
ATOM     12  C   UNL     1      45.181 -20.211 -35.872  0.00  0.00    -0.071 C 
ATOM     13  C   UNL     1      44.806 -19.678 -37.233  0.00  0.00    +0.056 C 
ATOM     14  C   UNL     1      44.195 -18.258 -37.114  0.00  0.00    -0.023 C 
ATOM     15  C   UNL     1      42.679 -18.222 -36.773  0.00  0.00    +0.000 C 
ATOM     16  N   UNL     1      42.245 -19.360 -35.947  0.00  0.00    -0.297 N 
ATOM     17  C   UNL     1      41.822 -20.539 -36.753  0.00  0.00    +0.024 C 
ATOM     18  H   UNL     1      43.080 -19.609 -35.417  0.00  0.00    +0.000 HD
ENDROOT
BRANCH   1  20
ATOM     19  C   UNL     1      44.236 -19.887 -42.644  0.00  0.00    +0.079 C 
ATOM     20  O   UNL     1      44.590 -20.921 -41.737  0.00  0.00    -0.491 OA
ENDBRANCH   1  20
BRANCH  10  21
ATOM     21  O   UNL     1      47.913 -18.145 -35.398  0.00  0.00    -0.388 OA
ATOM     22  H   UNL     1      47.322 -17.407 -35.615  0.00  0.00    +0.000 HD
ENDBRANCH  10  21
BRANCH  16  23
ATOM     23  C   UNL     1      41.175 -19.019 -34.992  0.00  0.00    +0.009 C 
BRANCH  23  24
ATOM     24  C   UNL     1      41.639 -18.747 -33.544  0.00  0.00    +0.032 C 
ATOM     25  C   UNL     1      43.029 -19.332 -33.271  0.00  0.00    -0.054 C 
BRANCH  24  26
ATOM     26  C   UNL     1      40.613 -19.362 -32.586  0.00  0.00    +0.167 C 
ATOM     27  O   UNL     1      40.291 -18.809 -31.535  0.00  0.00    -0.292 OA
BRANCH  26  28
ATOM     28  C   UNL     1      40.017 -20.700 -32.898  0.00  0.00    +0.018 A 
ATOM     29  C   UNL     1      40.768 -21.880 -32.930  0.00  0.00    -0.051 A 
ATOM     30  C   UNL     1      40.145 -23.104 -33.200  0.00  0.00    -0.058 A 
ATOM     31  C   UNL     1      38.766 -23.169 -33.432  0.00  0.00    -0.050 A 
ATOM     32  C   UNL     1      38.106 -24.478 -33.746  0.00  0.00    -0.040 C 
ATOM     33  C   UNL     1      38.022 -21.985 -33.428  0.00  0.00    -0.058 A 
ATOM     34  C   UNL     1      38.641 -20.762 -33.161  0.00  0.00    -0.051 A 
ENDBRANCH  26  28
ENDBRANCH  24  26
ENDBRANCH  23  24
ENDBRANCH  16  23
TORSDOF 6
ENDMDL
MODEL 11
REMARK VINA RESULT:    -6.623     16.385     20.800
REMARK INTER + INTRA:         -10.773
REMARK INTER:                  -8.776
REMARK INTRA:                  -1.997
REMARK UNBOUND:                -2.020
REMARK  Name = cpd128.pdb
REMARK  9 active torsions:
REMARK  status: ('A' for Active; 'I' for Inactive)
REMARK    1  A    between atoms: C_1  and  O_2
REMARK    2  A    between atoms: O_2  and  C_3
REMARK    3  A    between atoms: C_12  and  O_13
REMARK    4  A    between atoms: N_19  and  C_20
REMARK    5  A    between atoms: C_20  and  C_21
REMARK    6  A    between atoms: C_21  and  C_22
REMARK    7  A    between atoms: C_21  and  C_23
REMARK    8  A    between atoms: C_23  and  C_25
REMARK    9  A    between atoms: C_28  and  C_29
REMARK                            x       y       z     vdW  Elec       q    Type
REMARK                         _______ _______ _______ _____ _____    ______ ____
ROOT
ATOM      1  C   UNL     1      39.760 -23.024 -34.087  0.00  0.00    +0.162 A 
ATOM      2  C   UNL     1      40.302 -22.532 -32.897  0.00  0.00    -0.016 A 
ATOM      3  C   UNL     1      41.241 -21.478 -32.910  0.00  0.00    -0.053 A 
ATOM      4  C   UNL     1      41.684 -20.903 -34.113  0.00  0.00    -0.026 A 
ATOM      5  C   UNL     1      41.253 -21.501 -35.287  0.00  0.00    +0.016 A 
ATOM      6  C   UNL     1      40.253 -22.486 -35.264  0.00  0.00    +0.167 A 
ATOM      7  O   UNL     1      39.753 -22.764 -36.532  0.00  0.00    -0.484 OA
ATOM      8  C   UNL     1      40.856 -22.328 -37.336  0.00  0.00    +0.116 C 
ATOM      9  C   UNL     1      40.593 -22.111 -38.815  0.00  0.00    +0.015 C 
ATOM     10  C   UNL     1      41.951 -21.842 -39.501  0.00  0.00    +0.077 C 
ATOM     11  C   UNL     1      43.019 -21.249 -38.608  0.00  0.00    -0.059 C 
ATOM     12  C   UNL     1      42.828 -20.928 -37.310  0.00  0.00    -0.071 C 
ATOM     13  C   UNL     1      41.455 -21.051 -36.695  0.00  0.00    +0.056 C 
ATOM     14  C   UNL     1      40.664 -19.728 -36.857  0.00  0.00    -0.023 C 
ATOM     15  C   UNL     1      40.960 -18.650 -35.777  0.00  0.00    +0.000 C 
ATOM     16  N   UNL     1      42.338 -18.710 -35.264  0.00  0.00    -0.297 N 
ATOM     17  C   UNL     1      42.487 -19.619 -34.095  0.00  0.00    +0.024 C 
ATOM     18  H   UNL     1      42.873 -19.089 -36.045  0.00  0.00    +0.000 HD
ENDROOT
BRANCH   1  20
ATOM     19  C   UNL     1      37.607 -23.789 -33.444  0.00  0.00    +0.079 C 
ATOM     20  O   UNL     1      38.795 -23.980 -34.200  0.00  0.00    -0.491 OA
ENDBRANCH   1  20
BRANCH  10  21
ATOM     21  O   UNL     1      41.769 -20.964 -40.603  0.00  0.00    -0.388 OA
ATOM     22  H   UNL     1      42.623 -20.572 -40.847  0.00  0.00    +0.000 HD
ENDBRANCH  10  21
BRANCH  16  23
ATOM     23  C   UNL     1      42.895 -17.388 -34.922  0.00  0.00    +0.009 C 
BRANCH  23  24
ATOM     24  C   UNL     1      44.385 -17.380 -34.514  0.00  0.00    +0.032 C 
ATOM     25  C   UNL     1      44.681 -16.313 -33.455  0.00  0.00    -0.054 C 
BRANCH  24  26
ATOM     26  C   UNL     1      45.225 -17.121 -35.769  0.00  0.00    +0.167 C 
ATOM     27  O   UNL     1      45.491 -15.982 -36.151  0.00  0.00    -0.292 OA
BRANCH  26  28
ATOM     28  C   UNL     1      45.698 -18.278 -36.597  0.00  0.00    +0.018 A 
ATOM     29  C   UNL     1      46.080 -19.504 -36.044  0.00  0.00    -0.051 A 
ATOM     30  C   UNL     1      46.484 -20.556 -36.875  0.00  0.00    -0.058 A 
ATOM     31  C   UNL     1      46.504 -20.400 -38.266  0.00  0.00    -0.050 A 
ATOM     32  C   UNL     1      46.962 -21.520 -39.152  0.00  0.00    -0.040 C 
ATOM     33  C   UNL     1      46.149 -19.165 -38.815  0.00  0.00    -0.058 A 
ATOM     34  C   UNL     1      45.747 -18.113 -37.988  0.00  0.00    -0.051 A 
ENDBRANCH  26  28
ENDBRANCH  24  26
ENDBRANCH  23  24
ENDBRANCH  16  23
TORSDOF 6
ENDMDL
MODEL 12
REMARK VINA RESULT:    -6.605     16.292     19.471
REMARK INTER + INTRA:         -10.749
REMARK INTER:                  -8.814
REMARK INTRA:                  -1.935
REMARK UNBOUND:                -2.020
REMARK  Name = cpd128.pdb
REMARK  9 active torsions:
REMARK  status: ('A' for Active; 'I' for Inactive)
REMARK    1  A    between atoms: C_1  and  O_2
REMARK    2  A    between atoms: O_2  and  C_3
REMARK    3  A    between atoms: C_12  and  O_13
REMARK    4  A    between atoms: N_19  and  C_20
REMARK    5  A    between atoms: C_20  and  C_21
REMARK    6  A    between atoms: C_21  and  C_22
REMARK    7  A    between atoms: C_21  and  C_23
REMARK    8  A    between atoms: C_23  and  C_25
REMARK    9  A    between atoms: C_28  and  C_29
REMARK                            x       y       z     vdW  Elec       q    Type
REMARK                         _______ _______ _______ _____ _____    ______ ____
ROOT
ATOM      1  C   UNL     1      43.784 -19.815 -39.633  0.00  0.00    +0.162 A 
ATOM      2  C   UNL     1      43.074 -20.896 -40.160  0.00  0.00    -0.016 A 
ATOM      3  C   UNL     1      42.184 -21.639 -39.355  0.00  0.00    -0.053 A 
ATOM      4  C   UNL     1      41.999 -21.341 -37.995  0.00  0.00    -0.026 A 
ATOM      5  C   UNL     1      42.822 -20.366 -37.451  0.00  0.00    +0.016 A 
ATOM      6  C   UNL     1      43.635 -19.574 -38.277  0.00  0.00    +0.167 A 
ATOM      7  O   UNL     1      44.167 -18.479 -37.605  0.00  0.00    -0.484 OA
ATOM      8  C   UNL     1      44.094 -18.956 -36.255  0.00  0.00    +0.116 C 
ATOM      9  C   UNL     1      44.235 -17.929 -35.148  0.00  0.00    +0.015 C 
ATOM     10  C   UNL     1      44.324 -18.689 -33.806  0.00  0.00    +0.077 C 
ATOM     11  C   UNL     1      43.658 -20.048 -33.789  0.00  0.00    -0.059 C 
ATOM     12  C   UNL     1      42.991 -20.577 -34.838  0.00  0.00    -0.071 C 
ATOM     13  C   UNL     1      42.779 -19.759 -36.089  0.00  0.00    +0.056 C 
ATOM     14  C   UNL     1      41.455 -18.958 -36.001  0.00  0.00    -0.023 C 
ATOM     15  C   UNL     1      40.180 -19.752 -36.403  0.00  0.00    +0.000 C 
ATOM     16  N   UNL     1      40.276 -21.189 -36.104  0.00  0.00    -0.297 N 
ATOM     17  C   UNL     1      40.865 -21.979 -37.221  0.00  0.00    +0.024 C 
ATOM     18  H   UNL     1      40.908 -21.231 -35.305  0.00  0.00    +0.000 HD
ENDROOT
BRANCH   1  20
ATOM     19  C   UNL     1      44.301 -18.751 -41.691  0.00  0.00    +0.079 C 
ATOM     20  O   UNL     1      44.609 -18.978 -40.323  0.00  0.00    -0.491 OA
ENDBRANCH   1  20
BRANCH  10  21
ATOM     21  O   UNL     1      43.745 -17.910 -32.770  0.00  0.00    -0.388 OA
ATOM     22  H   UNL     1      42.780 -17.905 -32.870  0.00  0.00    +0.000 HD
ENDBRANCH  10  21
BRANCH  16  23
ATOM     23  C   UNL     1      38.991 -21.794 -35.709  0.00  0.00    +0.009 C 
BRANCH  23  24
ATOM     24  C   UNL     1      39.027 -22.653 -34.426  0.00  0.00    +0.032 C 
ATOM     25  C   UNL     1      38.351 -24.013 -34.630  0.00  0.00    -0.054 C 
BRANCH  24  26
ATOM     26  C   UNL     1      38.323 -21.878 -33.308  0.00  0.00    +0.167 C 
ATOM     27  O   UNL     1      37.403 -22.369 -32.655  0.00  0.00    -0.292 OA
BRANCH  26  28
ATOM     28  C   UNL     1      38.716 -20.460 -33.027  0.00  0.00    +0.018 A 
ATOM     29  C   UNL     1      37.843 -19.379 -33.194  0.00  0.00    -0.051 A 
ATOM     30  C   UNL     1      38.263 -18.081 -32.885  0.00  0.00    -0.058 A 
ATOM     31  C   UNL     1      39.555 -17.843 -32.400  0.00  0.00    -0.050 A 
ATOM     32  C   UNL     1      40.011 -16.447 -32.095  0.00  0.00    -0.040 C 
ATOM     33  C   UNL     1      40.435 -18.920 -32.262  0.00  0.00    -0.058 A 
ATOM     34  C   UNL     1      40.019 -20.218 -32.570  0.00  0.00    -0.051 A 
ENDBRANCH  26  28
ENDBRANCH  24  26
ENDBRANCH  23  24
ENDBRANCH  16  23
TORSDOF 6
ENDMDL
MODEL 13
REMARK VINA RESULT:    -6.557     17.491     21.082
REMARK INTER + INTRA:         -10.685
REMARK INTER:                  -8.684
REMARK INTRA:                  -2.001
REMARK UNBOUND:                -2.020
REMARK  Name = cpd128.pdb
REMARK  9 active torsions:
REMARK  status: ('A' for Active; 'I' for Inactive)
REMARK    1  A    between atoms: C_1  and  O_2
REMARK    2  A    between atoms: O_2  and  C_3
REMARK    3  A    between atoms: C_12  and  O_13
REMARK    4  A    between atoms: N_19  and  C_20
REMARK    5  A    between atoms: C_20  and  C_21
REMARK    6  A    between atoms: C_21  and  C_22
REMARK    7  A    between atoms: C_21  and  C_23
REMARK    8  A    between atoms: C_23  and  C_25
REMARK    9  A    between atoms: C_28  and  C_29
REMARK                            x       y       z     vdW  Elec       q    Type
REMARK                         _______ _______ _______ _____ _____    ______ ____
ROOT
ATOM      1  C   UNL     1      44.983 -19.700 -40.561  0.00  0.00    +0.162 A 
ATOM      2  C   UNL     1      43.901 -20.523 -40.885  0.00  0.00    -0.016 A 
ATOM      3  C   UNL     1      43.036 -21.008 -39.881  0.00  0.00    -0.053 A 
ATOM      4  C   UNL     1      43.241 -20.708 -38.524  0.00  0.00    -0.026 A 
ATOM      5  C   UNL     1      44.401 -20.019 -38.205  0.00  0.00    +0.016 A 
ATOM      6  C   UNL     1      45.204 -19.464 -39.214  0.00  0.00    +0.167 A 
ATOM      7  O   UNL     1      46.154 -18.581 -38.711  0.00  0.00    -0.484 OA
ATOM      8  C   UNL     1      46.244 -19.056 -37.362  0.00  0.00    +0.116 C 
ATOM      9  C   UNL     1      46.904 -18.140 -36.347  0.00  0.00    +0.015 C 
ATOM     10  C   UNL     1      47.065 -18.932 -35.030  0.00  0.00    +0.077 C 
ATOM     11  C   UNL     1      46.065 -20.049 -34.823  0.00  0.00    -0.059 C 
ATOM     12  C   UNL     1      45.066 -20.341 -35.684  0.00  0.00    -0.071 C 
ATOM     13  C   UNL     1      44.826 -19.462 -36.888  0.00  0.00    +0.056 C 
ATOM     14  C   UNL     1      43.831 -18.325 -36.544  0.00  0.00    -0.023 C 
ATOM     15  C   UNL     1      42.329 -18.717 -36.634  0.00  0.00    +0.000 C 
ATOM     16  N   UNL     1      42.082 -20.131 -36.313  0.00  0.00    -0.297 N 
ATOM     17  C   UNL     1      42.169 -21.024 -37.502  0.00  0.00    +0.024 C 
ATOM     18  H   UNL     1      42.835 -20.371 -35.668  0.00  0.00    +0.000 HD
ENDROOT
BRANCH   1  20
ATOM     19  C   UNL     1      46.997 -19.846 -41.808  0.00  0.00    +0.079 C 
ATOM     20  O   UNL     1      45.839 -19.109 -41.441  0.00  0.00    -0.491 OA
ENDBRANCH   1  20
BRANCH  10  21
ATOM     21  O   UNL     1      46.966 -18.050 -33.921  0.00  0.00    -0.388 OA
ATOM     22  H   UNL     1      47.767 -17.506 -33.869  0.00  0.00    +0.000 HD
ENDBRANCH  10  21
BRANCH  16  23
ATOM     23  C   UNL     1      40.796 -20.362 -35.629  0.00  0.00    +0.009 C 
BRANCH  23  24
ATOM     24  C   UNL     1      40.882 -21.137 -34.296  0.00  0.00    +0.032 C 
ATOM     25  C   UNL     1      39.837 -22.255 -34.217  0.00  0.00    -0.054 C 
BRANCH  24  26
ATOM     26  C   UNL     1      40.676 -20.143 -33.148  0.00  0.00    +0.167 C 
ATOM     27  O   UNL     1      39.762 -20.268 -32.335  0.00  0.00    -0.292 OA
BRANCH  26  28
ATOM     28  C   UNL     1      41.572 -18.947 -33.033  0.00  0.00    +0.018 A 
ATOM     29  C   UNL     1      41.101 -17.632 -33.110  0.00  0.00    -0.051 A 
ATOM     30  C   UNL     1      41.986 -16.558 -32.965  0.00  0.00    -0.058 A 
ATOM     31  C   UNL     1      43.349 -16.781 -32.733  0.00  0.00    -0.050 A 
ATOM     32  C   UNL     1      44.299 -15.627 -32.604  0.00  0.00    -0.040 C 
ATOM     33  C   UNL     1      43.822 -18.095 -32.686  0.00  0.00    -0.058 A 
ATOM     34  C   UNL     1      42.941 -19.170 -32.832  0.00  0.00    -0.051 A 
ENDBRANCH  26  28
ENDBRANCH  24  26
ENDBRANCH  23  24
ENDBRANCH  16  23
TORSDOF 6
ENDMDL
MODEL 14
REMARK VINA RESULT:    -6.553      3.388      6.906
REMARK INTER + INTRA:         -10.680
REMARK INTER:                  -8.829
REMARK INTRA:                  -1.851
REMARK UNBOUND:                -2.020
REMARK  Name = cpd128.pdb
REMARK  9 active torsions:
REMARK  status: ('A' for Active; 'I' for Inactive)
REMARK    1  A    between atoms: C_1  and  O_2
REMARK    2  A    between atoms: O_2  and  C_3
REMARK    3  A    between atoms: C_12  and  O_13
REMARK    4  A    between atoms: N_19  and  C_20
REMARK    5  A    between atoms: C_20  and  C_21
REMARK    6  A    between atoms: C_21  and  C_22
REMARK    7  A    between atoms: C_21  and  C_23
REMARK    8  A    between atoms: C_23  and  C_25
REMARK    9  A    between atoms: C_28  and  C_29
REMARK                            x       y       z     vdW  Elec       q    Type
REMARK                         _______ _______ _______ _____ _____    ______ ____
ROOT
ATOM      1  C   UNL     1      32.417 -40.929 -34.342  0.00  0.00    +0.162 A 
ATOM      2  C   UNL     1      31.356 -40.091 -34.692  0.00  0.00    -0.016 A 
ATOM      3  C   UNL     1      31.043 -38.956 -33.912  0.00  0.00    -0.053 A 
ATOM      4  C   UNL     1      31.764 -38.642 -32.748  0.00  0.00    -0.026 A 
ATOM      5  C   UNL     1      32.713 -39.564 -32.333  0.00  0.00    +0.016 A 
ATOM      6  C   UNL     1      33.078 -40.637 -33.161  0.00  0.00    +0.167 A 
ATOM      7  O   UNL     1      34.226 -41.284 -32.715  0.00  0.00    -0.484 OA
ATOM      8  C   UNL     1      34.198 -40.916 -31.331  0.00  0.00    +0.116 C 
ATOM      9  C   UNL     1      35.476 -41.108 -30.535  0.00  0.00    +0.015 C 
ATOM     10  C   UNL     1      35.153 -40.837 -29.049  0.00  0.00    +0.077 C 
ATOM     11  C   UNL     1      33.987 -39.904 -28.801  0.00  0.00    -0.059 C 
ATOM     12  C   UNL     1      33.279 -39.301 -29.781  0.00  0.00    -0.071 C 
ATOM     13  C   UNL     1      33.703 -39.452 -31.222  0.00  0.00    +0.056 C 
ATOM     14  C   UNL     1      34.693 -38.328 -31.621  0.00  0.00    -0.023 C 
ATOM     15  C   UNL     1      34.030 -36.987 -32.043  0.00  0.00    +0.000 C 
ATOM     16  N   UNL     1      32.754 -36.733 -31.355  0.00  0.00    -0.297 N 
ATOM     17  C   UNL     1      31.580 -37.298 -32.076  0.00  0.00    +0.024 C 
ATOM     18  H   UNL     1      32.856 -37.218 -30.464  0.00  0.00    +0.000 HD
ENDROOT
BRANCH   1  20
ATOM     19  C   UNL     1      33.075 -41.816 -36.444  0.00  0.00    +0.079 C 
ATOM     20  O   UNL     1      32.864 -42.004 -35.052  0.00  0.00    -0.491 OA
ENDBRANCH   1  20
BRANCH  10  21
ATOM     21  O   UNL     1      36.292 -40.291 -28.400  0.00  0.00    -0.388 OA
ATOM     22  H   UNL     1      36.004 -39.678 -27.704  0.00  0.00    +0.000 HD
ENDBRANCH  10  21
BRANCH  16  23
ATOM     23  C   UNL     1      32.510 -35.305 -31.079  0.00  0.00    +0.009 C 
BRANCH  23  24
ATOM     24  C   UNL     1      32.801 -34.849 -29.632  0.00  0.00    +0.032 C 
ATOM     25  C   UNL     1      31.773 -33.826 -29.139  0.00  0.00    -0.054 C 
BRANCH  24  26
ATOM     26  C   UNL     1      34.207 -34.242 -29.593  0.00  0.00    +0.167 C 
ATOM     27  O   UNL     1      34.390 -33.025 -29.594  0.00  0.00    -0.292 OA
BRANCH  26  28
ATOM     28  C   UNL     1      35.405 -35.142 -29.611  0.00  0.00    +0.018 A 
ATOM     29  C   UNL     1      36.451 -35.001 -30.528  0.00  0.00    -0.051 A 
ATOM     30  C   UNL     1      37.557 -35.857 -30.473  0.00  0.00    -0.058 A 
ATOM     31  C   UNL     1      37.637 -36.858 -29.497  0.00  0.00    -0.050 A 
ATOM     32  C   UNL     1      38.811 -37.790 -29.457  0.00  0.00    -0.040 C 
ATOM     33  C   UNL     1      36.578 -37.016 -28.600  0.00  0.00    -0.058 A 
ATOM     34  C   UNL     1      35.472 -36.164 -28.654  0.00  0.00    -0.051 A 
ENDBRANCH  26  28
ENDBRANCH  24  26
ENDBRANCH  23  24
ENDBRANCH  16  23
TORSDOF 6
ENDMDL
MODEL 15
REMARK VINA RESULT:    -6.511     17.177     20.699
REMARK INTER + INTRA:         -10.625
REMARK INTER:                  -8.842
REMARK INTRA:                  -1.783
REMARK UNBOUND:                -2.020
REMARK  Name = cpd128.pdb
REMARK  9 active torsions:
REMARK  status: ('A' for Active; 'I' for Inactive)
REMARK    1  A    between atoms: C_1  and  O_2
REMARK    2  A    between atoms: O_2  and  C_3
REMARK    3  A    between atoms: C_12  and  O_13
REMARK    4  A    between atoms: N_19  and  C_20
REMARK    5  A    between atoms: C_20  and  C_21
REMARK    6  A    between atoms: C_21  and  C_22
REMARK    7  A    between atoms: C_21  and  C_23
REMARK    8  A    between atoms: C_23  and  C_25
REMARK    9  A    between atoms: C_28  and  C_29
REMARK                            x       y       z     vdW  Elec       q    Type
REMARK                         _______ _______ _______ _____ _____    ______ ____
ROOT
ATOM      1  C   UNL     1      44.079 -20.083 -41.419  0.00  0.00    +0.162 A 
ATOM      2  C   UNL     1      44.912 -18.966 -41.323  0.00  0.00    -0.016 A 
ATOM      3  C   UNL     1      44.980 -18.215 -40.130  0.00  0.00    -0.053 A 
ATOM      4  C   UNL     1      44.199 -18.543 -39.009  0.00  0.00    -0.026 A 
ATOM      5  C   UNL     1      43.269 -19.558 -39.170  0.00  0.00    +0.016 A 
ATOM      6  C   UNL     1      43.273 -20.355 -40.326  0.00  0.00    +0.167 A 
ATOM      7  O   UNL     1      42.473 -21.485 -40.194  0.00  0.00    -0.484 OA
ATOM      8  C   UNL     1      41.585 -21.042 -39.161  0.00  0.00    +0.116 C 
ATOM      9  C   UNL     1      40.770 -22.102 -38.444  0.00  0.00    +0.015 C 
ATOM     10  C   UNL     1      39.757 -21.381 -37.528  0.00  0.00    +0.077 C 
ATOM     11  C   UNL     1      40.174 -20.001 -37.065  0.00  0.00    -0.059 C 
ATOM     12  C   UNL     1      41.353 -19.423 -37.378  0.00  0.00    -0.071 C 
ATOM     13  C   UNL     1      42.397 -20.199 -38.144  0.00  0.00    +0.056 C 
ATOM     14  C   UNL     1      43.337 -20.958 -37.173  0.00  0.00    -0.023 C 
ATOM     15  C   UNL     1      44.507 -20.112 -36.598  0.00  0.00    +0.000 C 
ATOM     16  N   UNL     1      44.172 -18.687 -36.451  0.00  0.00    -0.297 N 
ATOM     17  C   UNL     1      44.472 -17.887 -37.671  0.00  0.00    +0.024 C 
ATOM     18  H   UNL     1      43.164 -18.688 -36.299  0.00  0.00    +0.000 HD
ENDROOT
BRANCH   1  20
ATOM     19  C   UNL     1      44.988 -21.926 -42.608  0.00  0.00    +0.079 C 
ATOM     20  O   UNL     1      43.983 -20.929 -42.484  0.00  0.00    -0.491 OA
ENDBRANCH   1  20
BRANCH  10  21
ATOM     21  O   UNL     1      39.505 -22.168 -36.373  0.00  0.00    -0.388 OA
ATOM     22  H   UNL     1      39.948 -21.768 -35.607  0.00  0.00    +0.000 HD
ENDBRANCH  10  21
BRANCH  16  23
ATOM     23  C   UNL     1      44.815 -18.050 -35.287  0.00  0.00    +0.009 C 
BRANCH  23  24
ATOM     24  C   UNL     1      43.853 -17.381 -34.280  0.00  0.00    +0.032 C 
ATOM     25  C   UNL     1      44.409 -16.054 -33.754  0.00  0.00    -0.054 C 
BRANCH  24  26
ATOM     26  C   UNL     1      43.623 -18.352 -33.117  0.00  0.00    +0.167 C 
ATOM     27  O   UNL     1      44.475 -18.540 -32.249  0.00  0.00    -0.292 OA
BRANCH  26  28
ATOM     28  C   UNL     1      42.353 -19.144 -33.051  0.00  0.00    +0.018 A 
ATOM     29  C   UNL     1      42.227 -20.428 -33.591  0.00  0.00    -0.051 A 
ATOM     30  C   UNL     1      41.021 -21.128 -33.471  0.00  0.00    -0.058 A 
ATOM     31  C   UNL     1      39.929 -20.560 -32.804  0.00  0.00    -0.050 A 
ATOM     32  C   UNL     1      38.629 -21.301 -32.700  0.00  0.00    -0.040 C 
ATOM     33  C   UNL     1      40.047 -19.265 -32.292  0.00  0.00    -0.058 A 
ATOM     34  C   UNL     1      41.249 -18.564 -32.411  0.00  0.00    -0.051 A 
ENDBRANCH  26  28
ENDBRANCH  24  26
ENDBRANCH  23  24
ENDBRANCH  16  23
TORSDOF 6
ENDMDL
MODEL 16
REMARK VINA RESULT:    -6.490     17.287     21.314
REMARK INTER + INTRA:         -10.597
REMARK INTER:                  -8.579
REMARK INTRA:                  -2.018
REMARK UNBOUND:                -2.020
REMARK  Name = cpd128.pdb
REMARK  9 active torsions:
REMARK  status: ('A' for Active; 'I' for Inactive)
REMARK    1  A    between atoms: C_1  and  O_2
REMARK    2  A    between atoms: O_2  and  C_3
REMARK    3  A    between atoms: C_12  and  O_13
REMARK    4  A    between atoms: N_19  and  C_20
REMARK    5  A    between atoms: C_20  and  C_21
REMARK    6  A    between atoms: C_21  and  C_22
REMARK    7  A    between atoms: C_21  and  C_23
REMARK    8  A    between atoms: C_23  and  C_25
REMARK    9  A    between atoms: C_28  and  C_29
REMARK                            x       y       z     vdW  Elec       q    Type
REMARK                         _______ _______ _______ _____ _____    ______ ____
ROOT
ATOM      1  C   UNL     1      39.234 -20.147 -33.968  0.00  0.00    +0.162 A 
ATOM      2  C   UNL     1      40.079 -20.030 -32.863  0.00  0.00    -0.016 A 
ATOM      3  C   UNL     1      41.481 -19.995 -33.024  0.00  0.00    -0.053 A 
ATOM      4  C   UNL     1      42.079 -20.101 -34.291  0.00  0.00    -0.026 A 
ATOM      5  C   UNL     1      41.235 -20.368 -35.359  0.00  0.00    +0.016 A 
ATOM      6  C   UNL     1      39.841 -20.311 -35.202  0.00  0.00    +0.167 A 
ATOM      7  O   UNL     1      39.169 -20.324 -36.420  0.00  0.00    -0.484 OA
ATOM      8  C   UNL     1      40.164 -20.942 -37.246  0.00  0.00    +0.116 C 
ATOM      9  C   UNL     1      39.990 -20.822 -38.749  0.00  0.00    +0.015 C 
ATOM     10  C   UNL     1      41.052 -21.720 -39.421  0.00  0.00    +0.077 C 
ATOM     11  C   UNL     1      42.305 -21.957 -38.606  0.00  0.00    -0.059 C 
ATOM     12  C   UNL     1      42.532 -21.412 -37.391  0.00  0.00    -0.071 C 
ATOM     13  C   UNL     1      41.556 -20.415 -36.815  0.00  0.00    +0.056 C 
ATOM     14  C   UNL     1      41.938 -18.972 -37.233  0.00  0.00    -0.023 C 
ATOM     15  C   UNL     1      43.022 -18.298 -36.346  0.00  0.00    +0.000 C 
ATOM     16  N   UNL     1      43.984 -19.257 -35.781  0.00  0.00    -0.297 N 
ATOM     17  C   UNL     1      43.554 -19.809 -34.467  0.00  0.00    +0.024 C 
ATOM     18  H   UNL     1      44.005 -20.014 -36.464  0.00  0.00    +0.000 HD
ENDROOT
BRANCH   1  20
ATOM     19  C   UNL     1      37.205 -21.276 -33.472  0.00  0.00    +0.079 C 
ATOM     20  O   UNL     1      37.871 -20.115 -33.949  0.00  0.00    -0.491 OA
ENDBRANCH   1  20
BRANCH  10  21
ATOM     21  O   UNL     1      41.444 -21.156 -40.664  0.00  0.00    -0.388 OA
ATOM     22  H   UNL     1      40.983 -21.612 -41.385  0.00  0.00    +0.000 HD
ENDBRANCH  10  21
BRANCH  16  23
ATOM     23  C   UNL     1      45.349 -18.713 -35.652  0.00  0.00    +0.009 C 
BRANCH  23  24
ATOM     24  C   UNL     1      46.466 -19.560 -36.302  0.00  0.00    +0.032 C 
ATOM     25  C   UNL     1      47.767 -19.504 -35.495  0.00  0.00    -0.054 C 
BRANCH  24  26
ATOM     26  C   UNL     1      46.704 -19.033 -37.721  0.00  0.00    +0.167 C 
ATOM     27  O   UNL     1      47.355 -18.012 -37.935  0.00  0.00    -0.292 OA
BRANCH  26  28
ATOM     28  C   UNL     1      46.087 -19.741 -38.888  0.00  0.00    +0.018 A 
ATOM     29  C   UNL     1      45.242 -19.106 -39.804  0.00  0.00    -0.051 A 
ATOM     30  C   UNL     1      44.720 -19.816 -40.891  0.00  0.00    -0.058 A 
ATOM     31  C   UNL     1      45.041 -21.166 -41.084  0.00  0.00    -0.050 A 
ATOM     32  C   UNL     1      44.459 -21.931 -42.235  0.00  0.00    -0.040 C 
ATOM     33  C   UNL     1      45.861 -21.806 -40.151  0.00  0.00    -0.058 A 
ATOM     34  C   UNL     1      46.382 -21.100 -39.064  0.00  0.00    -0.051 A 
ENDBRANCH  26  28
ENDBRANCH  24  26
ENDBRANCH  23  24
ENDBRANCH  16  23
TORSDOF 6
ENDMDL
MODEL 17
REMARK VINA RESULT:    -6.487     16.726     20.230
REMARK INTER + INTRA:         -10.593
REMARK INTER:                  -8.747
REMARK INTRA:                  -1.846
REMARK UNBOUND:                -2.020
REMARK  Name = cpd128.pdb
REMARK  9 active torsions:
REMARK  status: ('A' for Active; 'I' for Inactive)
REMARK    1  A    between atoms: C_1  and  O_2
REMARK    2  A    between atoms: O_2  and  C_3
REMARK    3  A    between atoms: C_12  and  O_13
REMARK    4  A    between atoms: N_19  and  C_20
REMARK    5  A    between atoms: C_20  and  C_21
REMARK    6  A    between atoms: C_21  and  C_22
REMARK    7  A    between atoms: C_21  and  C_23
REMARK    8  A    between atoms: C_23  and  C_25
REMARK    9  A    between atoms: C_28  and  C_29
REMARK                            x       y       z     vdW  Elec       q    Type
REMARK                         _______ _______ _______ _____ _____    ______ ____
ROOT
ATOM      1  C   UNL     1      46.272 -19.913 -39.371  0.00  0.00    +0.162 A 
ATOM      2  C   UNL     1      46.849 -18.856 -38.664  0.00  0.00    -0.016 A 
ATOM      3  C   UNL     1      46.124 -18.173 -37.664  0.00  0.00    -0.053 A 
ATOM      4  C   UNL     1      44.794 -18.509 -37.360  0.00  0.00    -0.026 A 
ATOM      5  C   UNL     1      44.188 -19.456 -38.172  0.00  0.00    +0.016 A 
ATOM      6  C   UNL     1      44.942 -20.191 -39.100  0.00  0.00    +0.167 A 
ATOM      7  O   UNL     1      44.239 -21.275 -39.615  0.00  0.00    -0.484 OA
ATOM      8  C   UNL     1      42.896 -20.832 -39.386  0.00  0.00    +0.116 C 
ATOM      9  C   UNL     1      41.797 -21.876 -39.467  0.00  0.00    +0.015 C 
ATOM     10  C   UNL     1      40.440 -21.142 -39.386  0.00  0.00    +0.077 C 
ATOM     11  C   UNL     1      40.467 -19.816 -38.656  0.00  0.00    -0.059 C 
ATOM     12  C   UNL     1      41.568 -19.296 -38.071  0.00  0.00    -0.071 C 
ATOM     13  C   UNL     1      42.848 -20.094 -38.024  0.00  0.00    +0.056 C 
ATOM     14  C   UNL     1      42.906 -20.958 -36.738  0.00  0.00    -0.023 C 
ATOM     15  C   UNL     1      43.419 -20.216 -35.472  0.00  0.00    +0.000 C 
ATOM     16  N   UNL     1      43.088 -18.783 -35.469  0.00  0.00    -0.297 N 
ATOM     17  C   UNL     1      44.126 -17.942 -36.125  0.00  0.00    +0.024 C 
ATOM     18  H   UNL     1      42.229 -18.730 -36.016  0.00  0.00    +0.000 HD
ENDROOT
BRANCH   1  20
ATOM     19  C   UNL     1      46.941 -20.200 -41.630  0.00  0.00    +0.079 C 
ATOM     20  O   UNL     1      46.890 -20.696 -40.300  0.00  0.00    -0.491 OA
ENDBRANCH   1  20
BRANCH  10  21
ATOM     21  O   UNL     1      39.481 -21.970 -38.745  0.00  0.00    -0.388 OA
ATOM     22  H   UNL     1      38.605 -21.805 -39.129  0.00  0.00    +0.000 HD
ENDBRANCH  10  21
BRANCH  16  23
ATOM     23  C   UNL     1      42.813 -18.247 -34.122  0.00  0.00    +0.009 C 
BRANCH  23  24
ATOM     24  C   UNL     1      41.355 -17.801 -33.870  0.00  0.00    +0.032 C 
ATOM     25  C   UNL     1      41.289 -16.433 -33.184  0.00  0.00    -0.054 C 
BRANCH  24  26
ATOM     26  C   UNL     1      40.673 -18.860 -32.998  0.00  0.00    +0.167 C 
ATOM     27  O   UNL     1      40.609 -18.753 -31.774  0.00  0.00    -0.292 OA
BRANCH  26  28
ATOM     28  C   UNL     1      40.111 -20.095 -33.634  0.00  0.00    +0.018 A 
ATOM     29  C   UNL     1      39.605 -20.117 -34.938  0.00  0.00    -0.051 A 
ATOM     30  C   UNL     1      39.121 -21.310 -35.485  0.00  0.00    -0.058 A 
ATOM     31  C   UNL     1      39.142 -22.498 -34.743  0.00  0.00    -0.050 A 
ATOM     32  C   UNL     1      38.598 -23.769 -35.323  0.00  0.00    -0.040 C 
ATOM     33  C   UNL     1      39.620 -22.467 -33.430  0.00  0.00    -0.058 A 
ATOM     34  C   UNL     1      40.103 -21.277 -32.881  0.00  0.00    -0.051 A 
ENDBRANCH  26  28
ENDBRANCH  24  26
ENDBRANCH  23  24
ENDBRANCH  16  23
TORSDOF 6
ENDMDL
MODEL 18
REMARK VINA RESULT:    -6.189      2.863      6.860
REMARK INTER + INTRA:         -10.199
REMARK INTER:                  -8.787
REMARK INTRA:                  -1.412
REMARK UNBOUND:                -2.020
REMARK  Name = cpd128.pdb
REMARK  9 active torsions:
REMARK  status: ('A' for Active; 'I' for Inactive)
REMARK    1  A    between atoms: C_1  and  O_2
REMARK    2  A    between atoms: O_2  and  C_3
REMARK    3  A    between atoms: C_12  and  O_13
REMARK    4  A    between atoms: N_19  and  C_20
REMARK    5  A    between atoms: C_20  and  C_21
REMARK    6  A    between atoms: C_21  and  C_22
REMARK    7  A    between atoms: C_21  and  C_23
REMARK    8  A    between atoms: C_23  and  C_25
REMARK    9  A    between atoms: C_28  and  C_29
REMARK                            x       y       z     vdW  Elec       q    Type
REMARK                         _______ _______ _______ _____ _____    ______ ____
ROOT
ATOM      1  C   UNL     1      29.174 -33.354 -30.030  0.00  0.00    +0.162 A 
ATOM      2  C   UNL     1      28.492 -34.562 -29.864  0.00  0.00    -0.016 A 
ATOM      3  C   UNL     1      29.195 -35.782 -29.764  0.00  0.00    -0.053 A 
ATOM      4  C   UNL     1      30.596 -35.833 -29.853  0.00  0.00    -0.026 A 
ATOM      5  C   UNL     1      31.246 -34.649 -30.168  0.00  0.00    +0.016 A 
ATOM      6  C   UNL     1      30.549 -33.431 -30.175  0.00  0.00    +0.167 A 
ATOM      7  O   UNL     1      31.401 -32.333 -30.231  0.00  0.00    -0.484 OA
ATOM      8  C   UNL     1      32.560 -32.946 -30.808  0.00  0.00    +0.116 C 
ATOM      9  C   UNL     1      33.870 -32.185 -30.709  0.00  0.00    +0.015 C 
ATOM     10  C   UNL     1      34.918 -32.935 -31.561  0.00  0.00    +0.077 C 
ATOM     11  C   UNL     1      34.668 -34.419 -31.733  0.00  0.00    -0.059 C 
ATOM     12  C   UNL     1      33.637 -35.082 -31.167  0.00  0.00    -0.071 C 
ATOM     13  C   UNL     1      32.710 -34.369 -30.213  0.00  0.00    +0.056 C 
ATOM     14  C   UNL     1      33.229 -34.486 -28.757  0.00  0.00    -0.023 C 
ATOM     15  C   UNL     1      32.838 -35.801 -28.024  0.00  0.00    +0.000 C 
ATOM     16  N   UNL     1      32.709 -36.951 -28.932  0.00  0.00    -0.297 N 
ATOM     17  C   UNL     1      31.338 -37.103 -29.493  0.00  0.00    +0.024 C 
ATOM     18  H   UNL     1      33.353 -36.735 -29.693  0.00  0.00    +0.000 HD
ENDROOT
BRANCH   1  20
ATOM     19  C   UNL     1      28.108 -31.600 -28.838  0.00  0.00    +0.079 C 
ATOM     20  O   UNL     1      28.616 -32.111 -30.062  0.00  0.00    -0.491 OA
ENDBRANCH   1  20
BRANCH  10  21
ATOM     21  O   UNL     1      36.208 -32.776 -30.990  0.00  0.00    -0.388 OA
ATOM     22  H   UNL     1      36.579 -31.923 -31.264  0.00  0.00    +0.000 HD
ENDBRANCH  10  21
BRANCH  16  23
ATOM     23  C   UNL     1      33.126 -38.228 -28.324  0.00  0.00    +0.009 C 
BRANCH  23  24
ATOM     24  C   UNL     1      34.000 -39.136 -29.217  0.00  0.00    +0.032 C 
ATOM     25  C   UNL     1      33.427 -40.554 -29.322  0.00  0.00    -0.054 C 
BRANCH  24  26
ATOM     26  C   UNL     1      35.411 -39.182 -28.623  0.00  0.00    +0.167 C 
ATOM     27  O   UNL     1      35.664 -39.808 -27.595  0.00  0.00    -0.292 OA
BRANCH  26  28
ATOM     28  C   UNL     1      36.514 -38.401 -29.271  0.00  0.00    +0.018 A 
ATOM     29  C   UNL     1      36.311 -37.570 -30.377  0.00  0.00    -0.051 A 
ATOM     30  C   UNL     1      37.378 -36.844 -30.918  0.00  0.00    -0.058 A 
ATOM     31  C   UNL     1      38.658 -36.930 -30.357  0.00  0.00    -0.050 A 
ATOM     32  C   UNL     1      39.805 -36.170 -30.954  0.00  0.00    -0.040 C 
ATOM     33  C   UNL     1      38.865 -37.783 -29.270  0.00  0.00    -0.058 A 
ATOM     34  C   UNL     1      37.802 -38.511 -28.729  0.00  0.00    -0.051 A 
ENDBRANCH  26  28
ENDBRANCH  24  26
ENDBRANCH  23  24
ENDBRANCH  16  23
TORSDOF 6
ENDMDL
MODEL 19
REMARK VINA RESULT:    -6.068     16.911     20.870
REMARK INTER + INTRA:         -10.040
REMARK INTER:                  -8.087
REMARK INTRA:                  -1.953
REMARK UNBOUND:                -2.020
REMARK  Name = cpd128.pdb
REMARK  9 active torsions:
REMARK  status: ('A' for Active; 'I' for Inactive)
REMARK    1  A    between atoms: C_1  and  O_2
REMARK    2  A    between atoms: O_2  and  C_3
REMARK    3  A    between atoms: C_12  and  O_13
REMARK    4  A    between atoms: N_19  and  C_20
REMARK    5  A    between atoms: C_20  and  C_21
REMARK    6  A    between atoms: C_21  and  C_22
REMARK    7  A    between atoms: C_21  and  C_23
REMARK    8  A    between atoms: C_23  and  C_25
REMARK    9  A    between atoms: C_28  and  C_29
REMARK                            x       y       z     vdW  Elec       q    Type
REMARK                         _______ _______ _______ _____ _____    ______ ____
ROOT
ATOM      1  C   UNL     1      43.735 -17.704 -33.247  0.00  0.00    +0.162 A 
ATOM      2  C   UNL     1      44.782 -18.080 -34.092  0.00  0.00    -0.016 A 
ATOM      3  C   UNL     1      44.641 -19.171 -34.977  0.00  0.00    -0.053 A 
ATOM      4  C   UNL     1      43.462 -19.933 -35.024  0.00  0.00    -0.026 A 
ATOM      5  C   UNL     1      42.492 -19.643 -34.076  0.00  0.00    +0.016 A 
ATOM      6  C   UNL     1      42.604 -18.503 -33.264  0.00  0.00    +0.167 A 
ATOM      7  O   UNL     1      41.424 -18.219 -32.584  0.00  0.00    -0.484 OA
ATOM      8  C   UNL     1      40.815 -19.516 -32.590  0.00  0.00    +0.116 C 
ATOM      9  C   UNL     1      39.334 -19.589 -32.269  0.00  0.00    +0.015 C 
ATOM     10  C   UNL     1      38.950 -21.080 -32.140  0.00  0.00    +0.077 C 
ATOM     11  C   UNL     1      39.821 -22.040 -32.922  0.00  0.00    -0.059 C 
ATOM     12  C   UNL     1      40.845 -21.657 -33.716  0.00  0.00    -0.071 C 
ATOM     13  C   UNL     1      41.110 -20.191 -33.954  0.00  0.00    +0.056 C 
ATOM     14  C   UNL     1      40.322 -19.686 -35.189  0.00  0.00    -0.023 C 
ATOM     15  C   UNL     1      41.010 -19.948 -36.558  0.00  0.00    +0.000 C 
ATOM     16  N   UNL     1      41.832 -21.168 -36.567  0.00  0.00    -0.297 N 
ATOM     17  C   UNL     1      43.239 -20.927 -36.144  0.00  0.00    +0.024 C 
ATOM     18  H   UNL     1      41.382 -21.771 -35.879  0.00  0.00    +0.000 HD
ENDROOT
BRANCH   1  20
ATOM     19  C   UNL     1      44.154 -15.388 -32.945  0.00  0.00    +0.079 C 
ATOM     20  O   UNL     1      43.721 -16.630 -32.409  0.00  0.00    -0.491 OA
ENDBRANCH   1  20
BRANCH  10  21
ATOM     21  O   UNL     1      37.608 -21.271 -32.561  0.00  0.00    -0.388 OA
ATOM     22  H   UNL     1      37.275 -22.112 -32.209  0.00  0.00    +0.000 HD
ENDBRANCH  10  21
BRANCH  16  23
ATOM     23  C   UNL     1      41.831 -21.867 -37.866  0.00  0.00    +0.009 C 
BRANCH  23  24
ATOM     24  C   UNL     1      41.590 -20.973 -39.102  0.00  0.00    +0.032 C 
ATOM     25  C   UNL     1      40.554 -21.583 -40.053  0.00  0.00    -0.054 C 
BRANCH  24  26
ATOM     26  C   UNL     1      42.925 -20.787 -39.829  0.00  0.00    +0.167 C 
ATOM     27  O   UNL     1      43.191 -21.391 -40.868  0.00  0.00    -0.292 OA
BRANCH  26  28
ATOM     28  C   UNL     1      43.971 -19.889 -39.241  0.00  0.00    +0.018 A 
ATOM     29  C   UNL     1      45.276 -20.313 -38.973  0.00  0.00    -0.051 A 
ATOM     30  C   UNL     1      46.215 -19.416 -38.450  0.00  0.00    -0.058 A 
ATOM     31  C   UNL     1      45.867 -18.084 -38.197  0.00  0.00    -0.050 A 
ATOM     32  C   UNL     1      46.867 -17.132 -37.613  0.00  0.00    -0.040 C 
ATOM     33  C   UNL     1      44.554 -17.670 -38.438  0.00  0.00    -0.058 A 
ATOM     34  C   UNL     1      43.614 -18.563 -38.959  0.00  0.00    -0.051 A 
ENDBRANCH  26  28
ENDBRANCH  24  26
ENDBRANCH  23  24
ENDBRANCH  16  23
TORSDOF 6
ENDMDL
MODEL 20
REMARK VINA RESULT:    -6.023     16.349     19.543
REMARK INTER + INTRA:          -9.980
REMARK INTER:                  -8.342
REMARK INTRA:                  -1.638
REMARK UNBOUND:                -2.020
REMARK  Name = cpd128.pdb
REMARK  9 active torsions:
REMARK  status: ('A' for Active; 'I' for Inactive)
REMARK    1  A    between atoms: C_1  and  O_2
REMARK    2  A    between atoms: O_2  and  C_3
REMARK    3  A    between atoms: C_12  and  O_13
REMARK    4  A    between atoms: N_19  and  C_20
REMARK    5  A    between atoms: C_20  and  C_21
REMARK    6  A    between atoms: C_21  and  C_22
REMARK    7  A    between atoms: C_21  and  C_23
REMARK    8  A    between atoms: C_23  and  C_25
REMARK    9  A    between atoms: C_28  and  C_29
REMARK                            x       y       z     vdW  Elec       q    Type
REMARK                         _______ _______ _______ _____ _____    ______ ____
ROOT
ATOM      1  C   UNL     1      39.776 -17.016 -37.647  0.00  0.00    +0.162 A 
ATOM      2  C   UNL     1      38.612 -17.354 -36.952  0.00  0.00    -0.016 A 
ATOM      3  C   UNL     1      38.380 -18.682 -36.532  0.00  0.00    -0.053 A 
ATOM      4  C   UNL     1      39.291 -19.713 -36.816  0.00  0.00    -0.026 A 
ATOM      5  C   UNL     1      40.363 -19.392 -37.634  0.00  0.00    +0.016 A 
ATOM      6  C   UNL     1      40.632 -18.056 -37.970  0.00  0.00    +0.167 A 
ATOM      7  O   UNL     1      41.886 -17.897 -38.550  0.00  0.00    -0.484 OA
ATOM      8  C   UNL     1      42.103 -19.225 -39.042  0.00  0.00    +0.116 C 
ATOM      9  C   UNL     1      43.521 -19.599 -39.431  0.00  0.00    +0.015 C 
ATOM     10  C   UNL     1      43.476 -20.986 -40.109  0.00  0.00    +0.077 C 
ATOM     11  C   UNL     1      42.319 -21.870 -39.694  0.00  0.00    -0.059 C 
ATOM     12  C   UNL     1      41.395 -21.523 -38.772  0.00  0.00    -0.071 C 
ATOM     13  C   UNL     1      41.539 -20.231 -38.006  0.00  0.00    +0.056 C 
ATOM     14  C   UNL     1      42.354 -20.454 -36.706  0.00  0.00    -0.023 C 
ATOM     15  C   UNL     1      41.531 -20.982 -35.498  0.00  0.00    +0.000 C 
ATOM     16  N   UNL     1      40.399 -21.833 -35.898  0.00  0.00    -0.297 N 
ATOM     17  C   UNL     1      39.149 -21.062 -36.144  0.00  0.00    +0.024 C 
ATOM     18  H   UNL     1      40.705 -22.249 -36.777  0.00  0.00    +0.000 HD
ENDROOT
BRANCH   1  20
ATOM     19  C   UNL     1      39.480 -15.214 -39.163  0.00  0.00    +0.079 C 
ATOM     20  O   UNL     1      40.148 -15.764 -38.037  0.00  0.00    -0.491 OA
ENDBRANCH   1  20
BRANCH  10  21
ATOM     21  O   UNL     1      44.679 -21.693 -39.844  0.00  0.00    -0.388 OA
ATOM     22  H   UNL     1      44.953 -21.531 -38.928  0.00  0.00    +0.000 HD
ENDBRANCH  10  21
BRANCH  16  23
ATOM     23  C   UNL     1      40.116 -22.921 -34.944  0.00  0.00    +0.009 C 
BRANCH  23  24
ATOM     24  C   UNL     1      40.169 -22.527 -33.452  0.00  0.00    +0.032 C 
ATOM     25  C   UNL     1      40.772 -23.641 -32.589  0.00  0.00    -0.054 C 
BRANCH  24  26
ATOM     26  C   UNL     1      38.744 -22.215 -32.986  0.00  0.00    +0.167 C 
ATOM     27  O   UNL     1      37.921 -23.104 -32.769  0.00  0.00    -0.292 OA
BRANCH  26  28
ATOM     28  C   UNL     1      38.307 -20.789 -32.839  0.00  0.00    +0.018 A 
ATOM     29  C   UNL     1      39.207 -19.728 -32.696  0.00  0.00    -0.051 A 
ATOM     30  C   UNL     1      38.735 -18.414 -32.592  0.00  0.00    -0.058 A 
ATOM     31  C   UNL     1      37.362 -18.142 -32.639  0.00  0.00    -0.050 A 
ATOM     32  C   UNL     1      36.859 -16.736 -32.502  0.00  0.00    -0.040 C 
ATOM     33  C   UNL     1      36.464 -19.206 -32.752  0.00  0.00    -0.058 A 
ATOM     34  C   UNL     1      36.932 -20.519 -32.854  0.00  0.00    -0.051 A 
ENDBRANCH  26  28
ENDBRANCH  24  26
ENDBRANCH  23  24
ENDBRANCH  16  23
TORSDOF 6
ENDMDL
