@<TRIPOS>MOLECULE
*****
 32 36 0 0 0
SMALL
GASTEIGER

@<TRIPOS>ATOM
      1 C           2.9364   -2.9707    0.0000 C.3     1  UNL1        0.2526
      2 O           3.0202   -2.0343    0.0000 O.3     1  UNL1       -0.4684
      3 C           2.1988   -1.5770    0.0000 C.ar    1  UNL1        0.1721
      4 C           1.3920   -2.0596    0.0000 C.ar    1  UNL1        0.0397
      5 C           0.5701   -1.6020    0.0000 C.ar    1  UNL1        0.0001
      6 C           0.5555   -0.6620    0.0000 C.ar    1  UNL1       -0.0066
      7 C           1.3625   -0.1789    0.0000 C.ar    1  UNL1        0.0187
      8 C           2.1844   -0.6366    0.0000 C.ar    1  UNL1        0.1682
      9 O           2.9911   -0.1540    0.0000 O.3     1  UNL1       -0.4757
     10 C           2.9767    0.7865    0.0000 C.3     1  UNL1        0.1762
     11 C           3.7837    1.2695    0.0000 C.3     1  UNL1        0.0816
     12 C           3.7691    2.2095    0.0000 C.3     1  UNL1        0.1773
     13 O           4.5982    2.7056    0.0000 O.3     1  UNL1       -0.2182
     14 C           2.9472    2.6671    0.0000 C.2     1  UNL1        0.0021
     15 C           2.1404    2.1845    0.0000 C.2     1  UNL1       -0.0211
     16 C           2.1548    1.2441    0.0000 C.3     1  UNL1        0.0780
     17 C           1.4065    1.6762    0.0000 C.3     1  UNL1        0.0290
     18 C           0.5555    1.5261    0.0000 C.3     1  UNL1        0.0732
     19 N           0.0000    0.8641    0.0000 N.3     1  UNL1       -0.2685
     20 C          -0.9268    1.2015    0.0000 C.3     1  UNL1        0.0800
     21 C          -1.0981    2.1728    0.0000 C.3     1  UNL1        0.0779
     22 C          -0.3425    2.8068    0.0000 C.3     1  UNL1        0.0096
     23 C          -2.0249    2.5102    0.0000 C.2     1  UNL1        0.1740
     24 O          -2.1962    3.4815    0.0000 O.2     1  UNL1       -0.2913
     25 C          -2.7805    1.8762    0.0000 C.ar    1  UNL1        0.0347
     26 C          -2.6092    0.9048    0.0000 C.ar    1  UNL1        0.0025
     27 C          -3.3648    0.2708    0.0000 C.ar    1  UNL1       -0.0042
     28 C          -4.2916    0.6082    0.0000 C.ar    1  UNL1       -0.0218
     29 C          -5.0472   -0.0258    0.0000 C.3     1  UNL1        0.0310
     30 C          -4.4629    1.5795    0.0000 C.ar    1  UNL1       -0.0042
     31 C          -3.7073    2.2135    0.0000 C.ar    1  UNL1        0.0025
     32 C           0.0000   -0.0000    0.0000 C.3     1  UNL1        0.0990
@<TRIPOS>BOND
     1     1     2    1
     2     2     3    1
     3     3     4   ar
     4     4     5   ar
     5     5     6   ar
     6     6     7   ar
     7     7     8   ar
     8     3     8   ar
     9     8     9    1
    10     9    10    1
    11    10    11    1
    12    11    12    1
    13    12    13    1
    14    12    14    1
    15    14    15    2
    16    15    16    1
    17     7    16    1
    18    10    16    1
    19    16    17    1
    20    17    18    1
    21    18    19    1
    22    19    20    1
    23    20    21    1
    24    21    22    1
    25    21    23    1
    26    23    24    2
    27    23    25    1
    28    25    26   ar
    29    26    27   ar
    30    27    28   ar
    31    28    29    1
    32    28    30   ar
    33    30    31   ar
    34    25    31   ar
    35    19    32    1
    36     6    32    1
