@<TRIPOS>MOLECULE
*****
 32 35 0 0 0
SMALL
GASTEIGER

@<TRIPOS>ATOM
      1 C           4.5615   -0.6076    0.0000 C.3     1  UNL1        0.0305
      2 C           3.6053   -0.4048    0.0000 C.2     1  UNL1       -0.0255
      3 C           3.3028    0.5247    0.0000 C.2     1  UNL1        0.0289
      4 C           3.9566    1.2514    0.0000 C.3     1  UNL1        0.0355
      5 C           2.3467    0.7275    0.0000 C.2     1  UNL1        0.2608
      6 O           2.0442    1.6570    0.0000 O.2     1  UNL1       -0.2687
      7 N           1.6929    0.0008    0.0000 N.am    1  UNL1       -0.1958
      8 C           0.8462    0.4892    0.0000 C.3     1  UNL1        0.1565
      9 C           0.8459    1.4671    0.0000 C.3     1  UNL1        0.0299
     10 C          -0.0006    1.9559    0.0000 C.3     1  UNL1        0.0064
     11 C          -0.8468    1.4667    0.0000 C.3     1  UNL1        0.0217
     12 C          -0.8471    2.4708    0.0000 C.3     1  UNL1        0.0045
     13 C          -0.8465    0.4887    0.0000 C.2     1  UNL1        0.0094
     14 C          -1.6933   -0.0005    0.0000 C.2     1  UNL1       -0.0272
     15 C          -2.5404    0.4882    0.0000 C.3     1  UNL1        0.0298
     16 C          -2.5407    1.4662    0.0000 C.3     1  UNL1        0.0226
     17 C          -3.3878    1.9549    0.0000 C.2     1  UNL1       -0.0490
     18 C          -5.0805    1.9544    0.0000 C.2     1  UNL1       -0.0346
     19 C          -5.0808    2.9318    0.0000 C.3     1  UNL1        0.0270
     20 C          -4.2351    3.4210    0.0000 C.3     1  UNL1        0.0224
     21 C          -4.2354    4.3979    0.0000 C.3     1  UNL1        0.0582
     22 C          -3.2639    4.5003    0.0000 C.3     1  UNL1        0.0174
     23 N          -4.8099    5.1881    0.0000 N.3     1  UNL1       -0.2716
     24 C          -4.4128    6.0807    0.0000 C.3     1  UNL1        0.0896
     25 C          -5.7814    5.0857    0.0000 C.3     1  UNL1        0.0896
     26 C          -3.3881    2.9322    0.0000 C.3     1  UNL1        0.0164
     27 C          -3.3883    3.9322    0.0000 C.3     1  UNL1        0.0041
     28 C          -2.5412    3.4215    0.0000 C.3     1  UNL1        0.0038
     29 C          -1.6941    2.9327    0.0000 C.3     1  UNL1        0.0010
     30 C          -1.6939    1.9554    0.0000 C.3     1  UNL1        0.0079
     31 C          -0.0000   -0.0000    0.0000 C.2     1  UNL1        0.1884
     32 O           0.0003   -1.0000    0.0000 O.2     1  UNL1       -0.2899
@<TRIPOS>BOND
     1     1     2    1
     2     2     3    2
     3     3     4    1
     4     3     5    1
     5     5     6    2
     6     5     7   am
     7     7     8    1
     8     8     9    1
     9     9    10    1
    10    10    11    1
    11    11    12    1
    12    11    13    1
    13    13    14    2
    14    14    15    1
    15    15    16    1
    16    16    17    1
    17    17    18    2
    18    18    19    1
    19    19    20    1
    20    20    21    1
    21    21    22    1
    22    21    23    1
    23    23    24    1
    24    23    25    1
    25    20    26    1
    26    17    26    1
    27    26    27    1
    28    26    28    1
    29    28    29    1
    30    29    30    1
    31    16    30    1
    32    11    30    1
    33    13    31    1
    34     8    31    1
    35    31    32    2
