MODEL 1
REMARK VINA RESULT:    -8.380      0.000      0.000
REMARK INTER + INTRA:         -11.107
REMARK INTER:                 -10.340
REMARK INTRA:                  -0.768
REMARK UNBOUND:                -0.768
REMARK  Name = cpd191.pdb
REMARK  11 active torsions:
REMARK  status: ('A' for Active; 'I' for Inactive)
REMARK    1  A    between atoms: C_1  and  C_2
REMARK    2  A    between atoms: C_3  and  C_4
REMARK    3  A    between atoms: C_3  and  C_5
REMARK    4  A    between atoms: N_7  and  C_8
REMARK    5  A    between atoms: C_11  and  C_12
REMARK    6  A    between atoms: C_20  and  C_21
REMARK    7  A    between atoms: C_21  and  C_22
REMARK    8  A    between atoms: C_21  and  N_23
REMARK    9  A    between atoms: N_23  and  C_24
REMARK   10  A    between atoms: N_23  and  C_25
REMARK   11  A    between atoms: C_26  and  C_27
REMARK                            x       y       z     vdW  Elec       q    Type
REMARK                         _______ _______ _______ _____ _____    ______ ____
ROOT
ATOM      1  C   UNL     1      35.583 -34.733 -30.591  0.00  0.00    +0.086 C 
ATOM      2  C   UNL     1      35.445 -33.216 -30.437  0.00  0.00    -0.026 C 
ATOM      3  C   UNL     1      34.133 -32.764 -29.765  0.00  0.00    -0.041 C 
ATOM      4  C   UNL     1      32.941 -33.754 -29.872  0.00  0.00    -0.001 C 
ATOM      5  C   UNL     1      32.970 -34.755 -28.682  0.00  0.00    -0.055 C 
ATOM      6  C   UNL     1      33.092 -34.511 -31.185  0.00  0.00    -0.001 C 
ATOM      7  C   UNL     1      32.211 -34.462 -32.197  0.00  0.00    -0.076 C 
ATOM      8  C   UNL     1      30.989 -33.590 -32.183  0.00  0.00    -0.027 C 
ATOM      9  C   UNL     1      31.073 -32.447 -31.146  0.00  0.00    -0.012 C 
ATOM     10  C   UNL     1      29.769 -31.687 -31.038  0.00  0.00    -0.064 C 
ATOM     11  C   UNL     1      29.061 -31.152 -32.042  0.00  0.00    -0.084 C 
ATOM     12  C   UNL     1      27.885 -30.358 -31.569  0.00  0.00    -0.029 C 
ATOM     13  C   UNL     1      28.119 -30.221 -30.050  0.00  0.00    -0.013 C 
ATOM     14  C   UNL     1      29.170 -31.346 -29.692  0.00  0.00    -0.006 C 
ATOM     15  C   UNL     1      28.370 -32.537 -29.105  0.00  0.00    -0.056 C 
ATOM     16  C   UNL     1      30.308 -30.959 -28.742  0.00  0.00    -0.043 C 
ATOM     17  C   UNL     1      31.409 -32.025 -28.609  0.00  0.00    -0.048 C 
ATOM     18  C   UNL     1      31.535 -33.029 -29.788  0.00  0.00    -0.025 C 
ATOM     19  C   UNL     1      34.387 -35.251 -31.400  0.00  0.00    +0.179 C 
ATOM     20  O   UNL     1      34.472 -36.190 -32.190  0.00  0.00    -0.290 OA
ENDROOT
BRANCH   1  23
ATOM     21  C   UNL     1      37.645 -36.054 -30.647  0.00  0.00    +0.240 C 
ATOM     22  O   UNL     1      37.358 -36.644 -29.611  0.00  0.00    -0.271 OA
ATOM     23  N   UNL     1      36.852 -35.085 -31.209  0.00  0.00    -0.302 N 
ATOM     24  H   UNL     1      37.142 -34.628 -32.032  0.00  0.00    +0.000 HD
BRANCH  21  27
ATOM     25  C   UNL     1      41.288 -37.285 -31.236  0.00  0.00    -0.046 C 
ATOM     26  C   UNL     1      39.925 -36.988 -30.697  0.00  0.00    -0.079 C 
ATOM     27  C   UNL     1      38.959 -36.287 -31.321  0.00  0.00    +0.007 C 
ATOM     28  C   UNL     1      39.072 -35.598 -32.649  0.00  0.00    -0.035 C 
ENDBRANCH  21  27
ENDBRANCH   1  23
BRANCH  13  29
ATOM     29  C   UNL     1      28.403 -28.755 -29.577  0.00  0.00    +0.011 C 
ATOM     30  C   UNL     1      28.294 -27.736 -30.732  0.00  0.00    -0.049 C 
BRANCH  29  31
ATOM     31  N   UNL     1      27.517 -28.269 -28.469  0.00  0.00    -0.305 N 
ATOM     32  C   UNL     1      27.898 -26.915 -28.037  0.00  0.00    -0.013 C 
ATOM     33  C   UNL     1      27.495 -29.135 -27.286  0.00  0.00    -0.013 C 
ATOM     34  H   UNL     1      26.581 -28.276 -28.874  0.00  0.00    +0.000 HD
ENDBRANCH  29  31
ENDBRANCH  13  29
TORSDOF 4
ENDMDL
MODEL 2
REMARK VINA RESULT:    -8.005      5.897      7.643
REMARK INTER + INTRA:         -10.644
REMARK INTER:                 -10.396
REMARK INTRA:                  -0.248
REMARK UNBOUND:                -0.768
REMARK  Name = cpd191.pdb
REMARK  11 active torsions:
REMARK  status: ('A' for Active; 'I' for Inactive)
REMARK    1  A    between atoms: C_1  and  C_2
REMARK    2  A    between atoms: C_3  and  C_4
REMARK    3  A    between atoms: C_3  and  C_5
REMARK    4  A    between atoms: N_7  and  C_8
REMARK    5  A    between atoms: C_11  and  C_12
REMARK    6  A    between atoms: C_20  and  C_21
REMARK    7  A    between atoms: C_21  and  C_22
REMARK    8  A    between atoms: C_21  and  N_23
REMARK    9  A    between atoms: N_23  and  C_24
REMARK   10  A    between atoms: N_23  and  C_25
REMARK   11  A    between atoms: C_26  and  C_27
REMARK                            x       y       z     vdW  Elec       q    Type
REMARK                         _______ _______ _______ _____ _____    ______ ____
ROOT
ATOM      1  C   UNL     1      38.671 -37.052 -30.617  0.00  0.00    +0.086 C 
ATOM      2  C   UNL     1      38.722 -37.479 -29.148  0.00  0.00    -0.026 C 
ATOM      3  C   UNL     1      37.443 -38.179 -28.647  0.00  0.00    -0.041 C 
ATOM      4  C   UNL     1      36.141 -37.849 -29.428  0.00  0.00    -0.001 C 
ATOM      5  C   UNL     1      35.970 -38.833 -30.621  0.00  0.00    -0.055 C 
ATOM      6  C   UNL     1      36.269 -36.424 -29.950  0.00  0.00    -0.001 C 
ATOM      7  C   UNL     1      35.463 -35.409 -29.599  0.00  0.00    -0.076 C 
ATOM      8  C   UNL     1      34.366 -35.544 -28.584  0.00  0.00    -0.027 C 
ATOM      9  C   UNL     1      34.536 -36.777 -27.668  0.00  0.00    -0.012 C 
ATOM     10  C   UNL     1      33.338 -36.980 -26.767  0.00  0.00    -0.064 C 
ATOM     11  C   UNL     1      32.765 -36.069 -25.968  0.00  0.00    -0.084 C 
ATOM     12  C   UNL     1      31.677 -36.641 -25.118  0.00  0.00    -0.029 C 
ATOM     13  C   UNL     1      31.836 -38.166 -25.289  0.00  0.00    -0.013 C 
ATOM     14  C   UNL     1      32.709 -38.344 -26.594  0.00  0.00    -0.006 C 
ATOM     15  C   UNL     1      31.729 -38.673 -27.748  0.00  0.00    -0.056 C 
ATOM     16  C   UNL     1      33.830 -39.388 -26.544  0.00  0.00    -0.043 C 
ATOM     17  C   UNL     1      34.774 -39.358 -27.758  0.00  0.00    -0.048 C 
ATOM     18  C   UNL     1      34.838 -38.018 -28.543  0.00  0.00    -0.025 C 
ATOM     19  C   UNL     1      37.469 -36.120 -30.812  0.00  0.00    +0.179 C 
ATOM     20  O   UNL     1      37.477 -35.172 -31.596  0.00  0.00    -0.290 OA
ENDROOT
BRANCH   1  23
ATOM     21  C   UNL     1      41.112 -37.069 -30.824  0.00  0.00    +0.240 C 
ATOM     22  O   UNL     1      41.203 -38.165 -30.284  0.00  0.00    -0.271 OA
ATOM     23  N   UNL     1      39.918 -36.422 -31.025  0.00  0.00    -0.302 N 
ATOM     24  H   UNL     1      39.906 -35.531 -31.445  0.00  0.00    +0.000 HD
BRANCH  21  27
ATOM     25  C   UNL     1      44.815 -35.876 -30.890  0.00  0.00    -0.046 C 
ATOM     26  C   UNL     1      43.516 -36.567 -30.620  0.00  0.00    -0.079 C 
ATOM     27  C   UNL     1      42.336 -36.303 -31.212  0.00  0.00    +0.007 C 
ATOM     28  C   UNL     1      42.062 -35.216 -32.209  0.00  0.00    -0.035 C 
ENDBRANCH  21  27
ENDBRANCH   1  23
BRANCH  13  29
ATOM     29  C   UNL     1      32.280 -38.912 -23.984  0.00  0.00    +0.011 C 
ATOM     30  C   UNL     1      32.304 -37.978 -22.756  0.00  0.00    -0.049 C 
BRANCH  29  31
ATOM     31  N   UNL     1      31.439 -40.101 -23.625  0.00  0.00    -0.305 N 
ATOM     32  C   UNL     1      30.140 -40.062 -24.316  0.00  0.00    -0.013 C 
ATOM     33  C   UNL     1      31.186 -40.254 -22.189  0.00  0.00    -0.013 C 
ATOM     34  H   UNL     1      31.993 -40.902 -23.928  0.00  0.00    +0.000 HD
ENDBRANCH  29  31
ENDBRANCH  13  29
TORSDOF 4
ENDMDL
MODEL 3
REMARK VINA RESULT:    -7.663     16.212     17.713
REMARK INTER + INTRA:         -10.223
REMARK INTER:                  -9.667
REMARK INTRA:                  -0.556
REMARK UNBOUND:                -0.768
REMARK  Name = cpd191.pdb
REMARK  11 active torsions:
REMARK  status: ('A' for Active; 'I' for Inactive)
REMARK    1  A    between atoms: C_1  and  C_2
REMARK    2  A    between atoms: C_3  and  C_4
REMARK    3  A    between atoms: C_3  and  C_5
REMARK    4  A    between atoms: N_7  and  C_8
REMARK    5  A    between atoms: C_11  and  C_12
REMARK    6  A    between atoms: C_20  and  C_21
REMARK    7  A    between atoms: C_21  and  C_22
REMARK    8  A    between atoms: C_21  and  N_23
REMARK    9  A    between atoms: N_23  and  C_24
REMARK   10  A    between atoms: N_23  and  C_25
REMARK   11  A    between atoms: C_26  and  C_27
REMARK                            x       y       z     vdW  Elec       q    Type
REMARK                         _______ _______ _______ _____ _____    ______ ____
ROOT
ATOM      1  C   UNL     1      45.176 -20.306 -39.002  0.00  0.00    +0.086 C 
ATOM      2  C   UNL     1      43.864 -21.094 -39.063  0.00  0.00    -0.026 C 
ATOM      3  C   UNL     1      42.688 -20.426 -38.323  0.00  0.00    -0.041 C 
ATOM      4  C   UNL     1      43.076 -19.440 -37.186  0.00  0.00    -0.001 C 
ATOM      5  C   UNL     1      43.264 -18.008 -37.763  0.00  0.00    -0.055 C 
ATOM      6  C   UNL     1      44.387 -19.929 -36.585  0.00  0.00    -0.001 C 
ATOM      7  C   UNL     1      44.537 -20.330 -35.312  0.00  0.00    -0.076 C 
ATOM      8  C   UNL     1      43.401 -20.410 -34.334  0.00  0.00    -0.027 C 
ATOM      9  C   UNL     1      42.015 -20.440 -35.019  0.00  0.00    -0.012 C 
ATOM     10  C   UNL     1      40.888 -20.355 -34.013  0.00  0.00    -0.064 C 
ATOM     11  C   UNL     1      40.719 -21.117 -32.923  0.00  0.00    -0.084 C 
ATOM     12  C   UNL     1      39.429 -20.849 -32.218  0.00  0.00    -0.029 C 
ATOM     13  C   UNL     1      38.637 -19.975 -33.214  0.00  0.00    -0.013 C 
ATOM     14  C   UNL     1      39.720 -19.418 -34.222  0.00  0.00    -0.006 C 
ATOM     15  C   UNL     1      40.055 -17.975 -33.767  0.00  0.00    -0.056 C 
ATOM     16  C   UNL     1      39.355 -19.427 -35.710  0.00  0.00    -0.043 C 
ATOM     17  C   UNL     1      40.524 -19.080 -36.648  0.00  0.00    -0.048 C 
ATOM     18  C   UNL     1      41.951 -19.313 -36.078  0.00  0.00    -0.025 C 
ATOM     19  C   UNL     1      45.550 -20.096 -37.529  0.00  0.00    +0.179 C 
ATOM     20  O   UNL     1      46.713 -20.087 -37.130  0.00  0.00    -0.290 OA
ENDROOT
BRANCH   1  23
ATOM     21  C   UNL     1      46.189 -21.031 -41.111  0.00  0.00    +0.240 C 
ATOM     22  O   UNL     1      45.279 -20.548 -41.775  0.00  0.00    -0.271 OA
ATOM     23  N   UNL     1      46.231 -20.983 -39.740  0.00  0.00    -0.302 N 
ATOM     24  H   UNL     1      46.976 -21.407 -39.255  0.00  0.00    +0.000 HD
BRANCH  21  27
ATOM     25  C   UNL     1      48.124 -24.037 -42.645  0.00  0.00    -0.046 C 
ATOM     26  C   UNL     1      47.119 -23.126 -42.016  0.00  0.00    -0.079 C 
ATOM     27  C   UNL     1      47.282 -21.812 -41.765  0.00  0.00    +0.007 C 
ATOM     28  C   UNL     1      48.528 -21.009 -41.996  0.00  0.00    -0.035 C 
ENDBRANCH  21  27
ENDBRANCH   1  23
BRANCH  13  29
ATOM     29  C   UNL     1      37.359 -20.669 -33.798  0.00  0.00    +0.011 C 
ATOM     30  C   UNL     1      37.048 -22.008 -33.095  0.00  0.00    -0.049 C 
BRANCH  29  31
ATOM     31  N   UNL     1      36.113 -19.836 -33.744  0.00  0.00    -0.305 N 
ATOM     32  C   UNL     1      35.869 -19.161 -35.029  0.00  0.00    -0.013 C 
ATOM     33  C   UNL     1      36.108 -18.819 -32.687  0.00  0.00    -0.013 C 
ATOM     34  H   UNL     1      35.372 -20.504 -33.533  0.00  0.00    +0.000 HD
ENDBRANCH  29  31
ENDBRANCH  13  29
TORSDOF 4
ENDMDL
MODEL 4
REMARK VINA RESULT:    -7.559      1.807      2.953
REMARK INTER + INTRA:         -10.095
REMARK INTER:                  -9.272
REMARK INTRA:                  -0.823
REMARK UNBOUND:                -0.768
REMARK  Name = cpd191.pdb
REMARK  11 active torsions:
REMARK  status: ('A' for Active; 'I' for Inactive)
REMARK    1  A    between atoms: C_1  and  C_2
REMARK    2  A    between atoms: C_3  and  C_4
REMARK    3  A    between atoms: C_3  and  C_5
REMARK    4  A    between atoms: N_7  and  C_8
REMARK    5  A    between atoms: C_11  and  C_12
REMARK    6  A    between atoms: C_20  and  C_21
REMARK    7  A    between atoms: C_21  and  C_22
REMARK    8  A    between atoms: C_21  and  N_23
REMARK    9  A    between atoms: N_23  and  C_24
REMARK   10  A    between atoms: N_23  and  C_25
REMARK   11  A    between atoms: C_26  and  C_27
REMARK                            x       y       z     vdW  Elec       q    Type
REMARK                         _______ _______ _______ _____ _____    ______ ____
ROOT
ATOM      1  C   UNL     1      35.099 -35.288 -30.140  0.00  0.00    +0.086 C 
ATOM      2  C   UNL     1      34.220 -35.365 -28.889  0.00  0.00    -0.026 C 
ATOM      3  C   UNL     1      32.745 -34.984 -29.126  0.00  0.00    -0.041 C 
ATOM      4  C   UNL     1      32.473 -34.057 -30.343  0.00  0.00    -0.001 C 
ATOM      5  C   UNL     1      32.249 -34.910 -31.624  0.00  0.00    -0.055 C 
ATOM      6  C   UNL     1      33.697 -33.169 -30.523  0.00  0.00    -0.001 C 
ATOM      7  C   UNL     1      33.688 -31.830 -30.414  0.00  0.00    -0.076 C 
ATOM      8  C   UNL     1      32.469 -31.044 -30.028  0.00  0.00    -0.027 C 
ATOM      9  C   UNL     1      31.387 -31.905 -29.337  0.00  0.00    -0.012 C 
ATOM     10  C   UNL     1      30.109 -31.127 -29.109  0.00  0.00    -0.064 C 
ATOM     11  C   UNL     1      29.987 -29.931 -28.516  0.00  0.00    -0.084 C 
ATOM     12  C   UNL     1      28.564 -29.509 -28.341  0.00  0.00    -0.029 C 
ATOM     13  C   UNL     1      27.757 -30.786 -28.659  0.00  0.00    -0.013 C 
ATOM     14  C   UNL     1      28.760 -31.718 -29.449  0.00  0.00    -0.006 C 
ATOM     15  C   UNL     1      28.429 -31.559 -30.955  0.00  0.00    -0.056 C 
ATOM     16  C   UNL     1      28.775 -33.203 -29.069  0.00  0.00    -0.043 C 
ATOM     17  C   UNL     1      29.917 -34.008 -29.715  0.00  0.00    -0.048 C 
ATOM     18  C   UNL     1      31.158 -33.191 -30.169  0.00  0.00    -0.025 C 
ATOM     19  C   UNL     1      35.023 -33.863 -30.702  0.00  0.00    +0.179 C 
ATOM     20  O   UNL     1      35.977 -33.305 -31.241  0.00  0.00    -0.290 OA
ENDROOT
BRANCH   1  23
ATOM     21  C   UNL     1      36.926 -36.918 -30.237  0.00  0.00    +0.240 C 
ATOM     22  O   UNL     1      36.228 -37.745 -30.813  0.00  0.00    -0.271 OA
ATOM     23  N   UNL     1      36.468 -35.684 -29.846  0.00  0.00    -0.302 N 
ATOM     24  H   UNL     1      37.067 -35.067 -29.366  0.00  0.00    +0.000 HD
BRANCH  21  27
ATOM     25  C   UNL     1      40.805 -37.192 -30.332  0.00  0.00    -0.046 C 
ATOM     26  C   UNL     1      39.362 -36.911 -30.606  0.00  0.00    -0.079 C 
ATOM     27  C   UNL     1      38.322 -37.251 -29.821  0.00  0.00    +0.007 C 
ATOM     28  C   UNL     1      38.387 -38.044 -28.549  0.00  0.00    -0.035 C 
ENDBRANCH  21  27
ENDBRANCH   1  23
BRANCH  13  29
ATOM     29  C   UNL     1      26.993 -31.382 -27.428  0.00  0.00    +0.011 C 
ATOM     30  C   UNL     1      27.105 -30.483 -26.179  0.00  0.00    -0.049 C 
BRANCH  29  31
ATOM     31  N   UNL     1      25.535 -31.644 -27.662  0.00  0.00    -0.305 N 
ATOM     32  C   UNL     1      25.216 -33.070 -27.487  0.00  0.00    -0.013 C 
ATOM     33  C   UNL     1      25.047 -31.227 -28.980  0.00  0.00    -0.013 C 
ATOM     34  H   UNL     1      25.061 -31.073 -26.963  0.00  0.00    +0.000 HD
ENDBRANCH  29  31
ENDBRANCH  13  29
TORSDOF 4
ENDMDL
MODEL 5
REMARK VINA RESULT:    -7.401      1.645      1.874
REMARK INTER + INTRA:          -9.900
REMARK INTER:                  -9.119
REMARK INTRA:                  -0.781
REMARK UNBOUND:                -0.768
REMARK  Name = cpd191.pdb
REMARK  11 active torsions:
REMARK  status: ('A' for Active; 'I' for Inactive)
REMARK    1  A    between atoms: C_1  and  C_2
REMARK    2  A    between atoms: C_3  and  C_4
REMARK    3  A    between atoms: C_3  and  C_5
REMARK    4  A    between atoms: N_7  and  C_8
REMARK    5  A    between atoms: C_11  and  C_12
REMARK    6  A    between atoms: C_20  and  C_21
REMARK    7  A    between atoms: C_21  and  C_22
REMARK    8  A    between atoms: C_21  and  N_23
REMARK    9  A    between atoms: N_23  and  C_24
REMARK   10  A    between atoms: N_23  and  C_25
REMARK   11  A    between atoms: C_26  and  C_27
REMARK                            x       y       z     vdW  Elec       q    Type
REMARK                         _______ _______ _______ _____ _____    ______ ____
ROOT
ATOM      1  C   UNL     1      34.612 -35.161 -29.330  0.00  0.00    +0.086 C 
ATOM      2  C   UNL     1      34.651 -33.687 -29.745  0.00  0.00    -0.026 C 
ATOM      3  C   UNL     1      33.345 -32.916 -29.468  0.00  0.00    -0.041 C 
ATOM      4  C   UNL     1      32.055 -33.778 -29.385  0.00  0.00    -0.001 C 
ATOM      5  C   UNL     1      31.836 -34.272 -27.927  0.00  0.00    -0.055 C 
ATOM      6  C   UNL     1      32.244 -34.973 -30.310  0.00  0.00    -0.001 C 
ATOM      7  C   UNL     1      31.484 -35.228 -31.389  0.00  0.00    -0.076 C 
ATOM      8  C   UNL     1      30.387 -34.317 -31.857  0.00  0.00    -0.027 C 
ATOM      9  C   UNL     1      30.508 -32.884 -31.290  0.00  0.00    -0.012 C 
ATOM     10  C   UNL     1      29.306 -32.035 -31.643  0.00  0.00    -0.064 C 
ATOM     11  C   UNL     1      28.778 -31.850 -32.861  0.00  0.00    -0.084 C 
ATOM     12  C   UNL     1      27.669 -30.847 -32.870  0.00  0.00    -0.029 C 
ATOM     13  C   UNL     1      27.761 -30.182 -31.480  0.00  0.00    -0.013 C 
ATOM     14  C   UNL     1      28.619 -31.178 -30.604  0.00  0.00    -0.006 C 
ATOM     15  C   UNL     1      27.620 -32.002 -29.753  0.00  0.00    -0.056 C 
ATOM     16  C   UNL     1      29.694 -30.562 -29.701  0.00  0.00    -0.043 C 
ATOM     17  C   UNL     1      30.632 -31.589 -29.046  0.00  0.00    -0.048 C 
ATOM     18  C   UNL     1      30.750 -32.962 -29.763  0.00  0.00    -0.025 C 
ATOM     19  C   UNL     1      33.451 -35.842 -30.065  0.00  0.00    +0.179 C 
ATOM     20  O   UNL     1      33.497 -37.009 -30.452  0.00  0.00    -0.290 OA
ENDROOT
BRANCH   1  23
ATOM     21  C   UNL     1      36.374 -36.750 -28.720  0.00  0.00    +0.240 C 
ATOM     22  O   UNL     1      35.807 -37.060 -27.679  0.00  0.00    -0.271 OA
ATOM     23  N   UNL     1      35.884 -35.816 -29.598  0.00  0.00    -0.302 N 
ATOM     24  H   UNL     1      36.393 -35.590 -30.410  0.00  0.00    +0.000 HD
BRANCH  21  27
ATOM     25  C   UNL     1      39.690 -38.756 -28.381  0.00  0.00    -0.046 C 
ATOM     26  C   UNL     1      38.342 -38.137 -28.193  0.00  0.00    -0.079 C 
ATOM     27  C   UNL     1      37.720 -37.308 -29.053  0.00  0.00    +0.007 C 
ATOM     28  C   UNL     1      38.279 -36.776 -30.340  0.00  0.00    -0.035 C 
ENDBRANCH  21  27
ENDBRANCH   1  23
BRANCH  13  29
ATOM     29  C   UNL     1      28.178 -28.672 -31.522  0.00  0.00    +0.011 C 
ATOM     30  C   UNL     1      28.226 -28.117 -32.962  0.00  0.00    -0.049 C 
BRANCH  29  31
ATOM     31  N   UNL     1      27.301 -27.757 -30.720  0.00  0.00    -0.305 N 
ATOM     32  C   UNL     1      28.104 -26.821 -29.915  0.00  0.00    -0.013 C 
ATOM     33  C   UNL     1      26.367 -28.444 -29.822  0.00  0.00    -0.013 C 
ATOM     34  H   UNL     1      26.749 -27.260 -31.419  0.00  0.00    +0.000 HD
ENDBRANCH  29  31
ENDBRANCH  13  29
TORSDOF 4
ENDMDL
MODEL 6
REMARK VINA RESULT:    -7.337      3.430      9.866
REMARK INTER + INTRA:          -9.820
REMARK INTER:                  -9.074
REMARK INTRA:                  -0.746
REMARK UNBOUND:                -0.768
REMARK  Name = cpd191.pdb
REMARK  11 active torsions:
REMARK  status: ('A' for Active; 'I' for Inactive)
REMARK    1  A    between atoms: C_1  and  C_2
REMARK    2  A    between atoms: C_3  and  C_4
REMARK    3  A    between atoms: C_3  and  C_5
REMARK    4  A    between atoms: N_7  and  C_8
REMARK    5  A    between atoms: C_11  and  C_12
REMARK    6  A    between atoms: C_20  and  C_21
REMARK    7  A    between atoms: C_21  and  C_22
REMARK    8  A    between atoms: C_21  and  N_23
REMARK    9  A    between atoms: N_23  and  C_24
REMARK   10  A    between atoms: N_23  and  C_25
REMARK   11  A    between atoms: C_26  and  C_27
REMARK                            x       y       z     vdW  Elec       q    Type
REMARK                         _______ _______ _______ _____ _____    ______ ____
ROOT
ATOM      1  C   UNL     1      30.678 -31.726 -30.169  0.00  0.00    +0.086 C 
ATOM      2  C   UNL     1      30.506 -33.077 -30.870  0.00  0.00    -0.026 C 
ATOM      3  C   UNL     1      31.183 -34.257 -30.145  0.00  0.00    -0.041 C 
ATOM      4  C   UNL     1      32.370 -33.888 -29.213  0.00  0.00    -0.001 C 
ATOM      5  C   UNL     1      31.847 -33.572 -27.782  0.00  0.00    -0.055 C 
ATOM      6  C   UNL     1      33.045 -32.656 -29.798  0.00  0.00    -0.001 C 
ATOM      7  C   UNL     1      34.314 -32.619 -30.237  0.00  0.00    -0.076 C 
ATOM      8  C   UNL     1      35.210 -33.824 -30.267  0.00  0.00    -0.027 C 
ATOM      9  C   UNL     1      34.432 -35.158 -30.191  0.00  0.00    -0.012 C 
ATOM     10  C   UNL     1      35.362 -36.344 -30.057  0.00  0.00    -0.064 C 
ATOM     11  C   UNL     1      36.416 -36.636 -30.832  0.00  0.00    -0.084 C 
ATOM     12  C   UNL     1      37.039 -37.953 -30.499  0.00  0.00    -0.029 C 
ATOM     13  C   UNL     1      36.016 -38.617 -29.552  0.00  0.00    -0.013 C 
ATOM     14  C   UNL     1      35.100 -37.435 -29.043  0.00  0.00    -0.006 C 
ATOM     15  C   UNL     1      35.616 -37.042 -27.635  0.00  0.00    -0.056 C 
ATOM     16  C   UNL     1      33.590 -37.695 -28.995  0.00  0.00    -0.043 C 
ATOM     17  C   UNL     1      32.743 -36.444 -28.702  0.00  0.00    -0.048 C 
ATOM     18  C   UNL     1      33.402 -35.078 -29.038  0.00  0.00    -0.025 C 
ATOM     19  C   UNL     1      32.178 -31.443 -30.018  0.00  0.00    +0.179 C 
ATOM     20  O   UNL     1      32.655 -30.311 -30.093  0.00  0.00    -0.290 OA
ENDROOT
BRANCH   1  23
ATOM     21  C   UNL     1      29.195 -29.777 -30.222  0.00  0.00    +0.240 C 
ATOM     22  O   UNL     1      28.990 -29.834 -29.015  0.00  0.00    -0.271 OA
ATOM     23  N   UNL     1      29.994 -30.666 -30.896  0.00  0.00    -0.302 N 
ATOM     24  H   UNL     1      30.106 -30.587 -31.871  0.00  0.00    +0.000 HD
BRANCH  21  27
ATOM     25  C   UNL     1      27.031 -26.701 -31.218  0.00  0.00    -0.046 C 
ATOM     26  C   UNL     1      27.801 -27.763 -30.501  0.00  0.00    -0.079 C 
ATOM     27  C   UNL     1      28.483 -28.775 -31.073  0.00  0.00    +0.007 C 
ATOM     28  C   UNL     1      28.552 -29.087 -32.539  0.00  0.00    -0.035 C 
ENDBRANCH  21  27
ENDBRANCH   1  23
BRANCH  13  29
ATOM     29  C   UNL     1      35.328 -39.892 -30.149  0.00  0.00    +0.011 C 
ATOM     30  C   UNL     1      35.622 -40.065 -31.655  0.00  0.00    -0.049 C 
BRANCH  29  31
ATOM     31  N   UNL     1      35.697 -41.179 -29.472  0.00  0.00    -0.305 N 
ATOM     32  C   UNL     1      34.617 -41.642 -28.585  0.00  0.00    -0.013 C 
ATOM     33  C   UNL     1      36.935 -41.119 -28.688  0.00  0.00    -0.013 C 
ATOM     34  H   UNL     1      35.849 -41.833 -30.239  0.00  0.00    +0.000 HD
ENDBRANCH  29  31
ENDBRANCH  13  29
TORSDOF 4
ENDMDL
MODEL 7
REMARK VINA RESULT:    -6.970     16.797     20.096
REMARK INTER + INTRA:          -9.368
REMARK INTER:                  -8.611
REMARK INTRA:                  -0.757
REMARK UNBOUND:                -0.768
REMARK  Name = cpd191.pdb
REMARK  11 active torsions:
REMARK  status: ('A' for Active; 'I' for Inactive)
REMARK    1  A    between atoms: C_1  and  C_2
REMARK    2  A    between atoms: C_3  and  C_4
REMARK    3  A    between atoms: C_3  and  C_5
REMARK    4  A    between atoms: N_7  and  C_8
REMARK    5  A    between atoms: C_11  and  C_12
REMARK    6  A    between atoms: C_20  and  C_21
REMARK    7  A    between atoms: C_21  and  C_22
REMARK    8  A    between atoms: C_21  and  N_23
REMARK    9  A    between atoms: N_23  and  C_24
REMARK   10  A    between atoms: N_23  and  C_25
REMARK   11  A    between atoms: C_26  and  C_27
REMARK                            x       y       z     vdW  Elec       q    Type
REMARK                         _______ _______ _______ _____ _____    ______ ____
ROOT
ATOM      1  C   UNL     1      39.247 -18.946 -33.499  0.00  0.00    +0.086 C 
ATOM      2  C   UNL     1      39.453 -18.737 -35.002  0.00  0.00    -0.026 C 
ATOM      3  C   UNL     1      40.733 -19.389 -35.562  0.00  0.00    -0.041 C 
ATOM      4  C   UNL     1      41.876 -19.629 -34.537  0.00  0.00    -0.001 C 
ATOM      5  C   UNL     1      41.704 -21.020 -33.862  0.00  0.00    -0.055 C 
ATOM      6  C   UNL     1      41.784 -18.531 -33.485  0.00  0.00    -0.001 C 
ATOM      7  C   UNL     1      42.739 -17.617 -33.254  0.00  0.00    -0.076 C 
ATOM      8  C   UNL     1      44.002 -17.523 -34.062  0.00  0.00    -0.027 C 
ATOM      9  C   UNL     1      43.900 -18.240 -35.428  0.00  0.00    -0.012 C 
ATOM     10  C   UNL     1      45.231 -18.272 -36.147  0.00  0.00    -0.064 C 
ATOM     11  C   UNL     1      46.040 -17.232 -36.395  0.00  0.00    -0.084 C 
ATOM     12  C   UNL     1      47.217 -17.597 -37.241  0.00  0.00    -0.029 C 
ATOM     13  C   UNL     1      46.878 -19.012 -37.756  0.00  0.00    -0.013 C 
ATOM     14  C   UNL     1      45.745 -19.540 -36.790  0.00  0.00    -0.006 C 
ATOM     15  C   UNL     1      46.434 -20.466 -35.755  0.00  0.00    -0.056 C 
ATOM     16  C   UNL     1      44.561 -20.267 -37.437  0.00  0.00    -0.043 C 
ATOM     17  C   UNL     1      43.398 -20.560 -36.473  0.00  0.00    -0.048 C 
ATOM     18  C   UNL     1      43.308 -19.654 -35.214  0.00  0.00    -0.025 C 
ATOM     19  C   UNL     1      40.470 -18.392 -32.758  0.00  0.00    +0.179 C 
ATOM     20  O   UNL     1      40.396 -17.849 -31.657  0.00  0.00    -0.290 OA
ENDROOT
BRANCH   1  23
ATOM     21  C   UNL     1      36.876 -19.082 -32.898  0.00  0.00    +0.240 C 
ATOM     22  O   UNL     1      36.826 -20.280 -33.153  0.00  0.00    -0.271 OA
ATOM     23  N   UNL     1      38.011 -18.325 -33.047  0.00  0.00    -0.302 N 
ATOM     24  H   UNL     1      37.989 -17.361 -32.848  0.00  0.00    +0.000 HD
BRANCH  21  27
ATOM     25  C   UNL     1      33.115 -18.244 -32.360  0.00  0.00    -0.046 C 
ATOM     26  C   UNL     1      34.429 -18.878 -32.690  0.00  0.00    -0.079 C 
ATOM     27  C   UNL     1      35.646 -18.333 -32.499  0.00  0.00    +0.007 C 
ATOM     28  C   UNL     1      35.934 -16.953 -31.985  0.00  0.00    -0.035 C 
ENDBRANCH  21  27
ENDBRANCH   1  23
BRANCH  13  29
ATOM     29  C   UNL     1      46.637 -19.087 -39.303  0.00  0.00    +0.011 C 
ATOM     30  C   UNL     1      46.836 -17.721 -39.993  0.00  0.00    -0.049 C 
BRANCH  29  31
ATOM     31  N   UNL     1      47.497 -20.082 -40.024  0.00  0.00    -0.305 N 
ATOM     32  C   UNL     1      47.345 -19.958 -41.483  0.00  0.00    -0.013 C 
ATOM     33  C   UNL     1      47.246 -21.480 -39.657  0.00  0.00    -0.013 C 
ATOM     34  H   UNL     1      48.446 -19.852 -39.732  0.00  0.00    +0.000 HD
ENDBRANCH  29  31
ENDBRANCH  13  29
TORSDOF 4
ENDMDL
MODEL 8
REMARK VINA RESULT:    -6.895      5.998      8.164
REMARK INTER + INTRA:          -9.276
REMARK INTER:                  -8.446
REMARK INTRA:                  -0.830
REMARK UNBOUND:                -0.768
REMARK  Name = cpd191.pdb
REMARK  11 active torsions:
REMARK  status: ('A' for Active; 'I' for Inactive)
REMARK    1  A    between atoms: C_1  and  C_2
REMARK    2  A    between atoms: C_3  and  C_4
REMARK    3  A    between atoms: C_3  and  C_5
REMARK    4  A    between atoms: N_7  and  C_8
REMARK    5  A    between atoms: C_11  and  C_12
REMARK    6  A    between atoms: C_20  and  C_21
REMARK    7  A    between atoms: C_21  and  C_22
REMARK    8  A    between atoms: C_21  and  N_23
REMARK    9  A    between atoms: N_23  and  C_24
REMARK   10  A    between atoms: N_23  and  C_25
REMARK   11  A    between atoms: C_26  and  C_27
REMARK                            x       y       z     vdW  Elec       q    Type
REMARK                         _______ _______ _______ _____ _____    ______ ____
ROOT
ATOM      1  C   UNL     1      33.393 -38.536 -23.157  0.00  0.00    +0.086 C 
ATOM      2  C   UNL     1      33.787 -37.065 -23.319  0.00  0.00    -0.026 C 
ATOM      3  C   UNL     1      33.079 -36.345 -24.485  0.00  0.00    -0.041 C 
ATOM      4  C   UNL     1      32.570 -37.257 -25.635  0.00  0.00    -0.001 C 
ATOM      5  C   UNL     1      31.127 -37.748 -25.328  0.00  0.00    -0.055 C 
ATOM      6  C   UNL     1      33.512 -38.450 -25.723  0.00  0.00    -0.001 C 
ATOM      7  C   UNL     1      34.272 -38.743 -26.791  0.00  0.00    -0.076 C 
ATOM      8  C   UNL     1      34.335 -37.880 -28.018  0.00  0.00    -0.027 C 
ATOM      9  C   UNL     1      33.833 -36.439 -27.770  0.00  0.00    -0.012 C 
ATOM     10  C   UNL     1      33.753 -35.642 -29.054  0.00  0.00    -0.064 C 
ATOM     11  C   UNL     1      34.719 -35.487 -29.970  0.00  0.00    -0.084 C 
ATOM     12  C   UNL     1      34.346 -34.529 -31.055  0.00  0.00    -0.029 C 
ATOM     13  C   UNL     1      33.065 -33.850 -30.526  0.00  0.00    -0.013 C 
ATOM     14  C   UNL     1      32.538 -34.804 -29.382  0.00  0.00    -0.006 C 
ATOM     15  C   UNL     1      31.403 -35.661 -30.001  0.00  0.00    -0.056 C 
ATOM     16  C   UNL     1      32.048 -34.139 -28.091  0.00  0.00    -0.043 C 
ATOM     17  C   UNL     1      31.755 -35.124 -26.946  0.00  0.00    -0.048 C 
ATOM     18  C   UNL     1      32.479 -36.497 -27.022  0.00  0.00    -0.025 C 
ATOM     19  C   UNL     1      33.695 -39.269 -24.470  0.00  0.00    +0.179 C 
ATOM     20  O   UNL     1      34.083 -40.435 -24.511  0.00  0.00    -0.290 OA
ENDROOT
BRANCH   1  23
ATOM     21  C   UNL     1      33.448 -39.242 -20.812  0.00  0.00    +0.240 C 
ATOM     22  O   UNL     1      32.317 -38.818 -20.603  0.00  0.00    -0.271 OA
ATOM     23  N   UNL     1      34.080 -39.142 -22.026  0.00  0.00    -0.302 N 
ATOM     24  H   UNL     1      34.998 -39.481 -22.132  0.00  0.00    +0.000 HD
BRANCH  21  27
ATOM     25  C   UNL     1      36.560 -40.294 -18.729  0.00  0.00    -0.046 C 
ATOM     26  C   UNL     1      35.613 -39.753 -19.751  0.00  0.00    -0.079 C 
ATOM     27  C   UNL     1      34.268 -39.814 -19.701  0.00  0.00    +0.007 C 
ATOM     28  C   UNL     1      33.445 -40.497 -18.649  0.00  0.00    -0.035 C 
ENDBRANCH  21  27
ENDBRANCH   1  23
BRANCH  13  29
ATOM     29  C   UNL     1      33.236 -32.325 -30.208  0.00  0.00    +0.011 C 
ATOM     30  C   UNL     1      34.535 -31.745 -30.805  0.00  0.00    -0.049 C 
BRANCH  29  31
ATOM     31  N   UNL     1      32.104 -31.458 -30.673  0.00  0.00    -0.305 N 
ATOM     32  C   UNL     1      31.461 -30.771 -29.541  0.00  0.00    -0.013 C 
ATOM     33  C   UNL     1      31.064 -32.167 -31.425  0.00  0.00    -0.013 C 
ATOM     34  H   UNL     1      32.542 -30.790 -31.307  0.00  0.00    +0.000 HD
ENDBRANCH  29  31
ENDBRANCH  13  29
TORSDOF 4
ENDMDL
MODEL 9
REMARK VINA RESULT:    -6.789      1.852      2.422
REMARK INTER + INTRA:          -9.144
REMARK INTER:                  -8.326
REMARK INTRA:                  -0.818
REMARK UNBOUND:                -0.768
REMARK  Name = cpd191.pdb
REMARK  11 active torsions:
REMARK  status: ('A' for Active; 'I' for Inactive)
REMARK    1  A    between atoms: C_1  and  C_2
REMARK    2  A    between atoms: C_3  and  C_4
REMARK    3  A    between atoms: C_3  and  C_5
REMARK    4  A    between atoms: N_7  and  C_8
REMARK    5  A    between atoms: C_11  and  C_12
REMARK    6  A    between atoms: C_20  and  C_21
REMARK    7  A    between atoms: C_21  and  C_22
REMARK    8  A    between atoms: C_21  and  N_23
REMARK    9  A    between atoms: N_23  and  C_24
REMARK   10  A    between atoms: N_23  and  C_25
REMARK   11  A    between atoms: C_26  and  C_27
REMARK                            x       y       z     vdW  Elec       q    Type
REMARK                         _______ _______ _______ _____ _____    ______ ____
ROOT
ATOM      1  C   UNL     1      33.373 -34.998 -29.382  0.00  0.00    +0.086 C 
ATOM      2  C   UNL     1      33.535 -33.613 -28.749  0.00  0.00    -0.026 C 
ATOM      3  C   UNL     1      32.205 -32.897 -28.442  0.00  0.00    -0.041 C 
ATOM      4  C   UNL     1      30.984 -33.343 -29.293  0.00  0.00    -0.001 C 
ATOM      5  C   UNL     1      30.264 -34.540 -28.608  0.00  0.00    -0.055 C 
ATOM      6  C   UNL     1      31.509 -33.771 -30.657  0.00  0.00    -0.001 C 
ATOM      7  C   UNL     1      31.190 -33.173 -31.817  0.00  0.00    -0.076 C 
ATOM      8  C   UNL     1      30.318 -31.954 -31.902  0.00  0.00    -0.027 C 
ATOM      9  C   UNL     1      30.207 -31.195 -30.560  0.00  0.00    -0.012 C 
ATOM     10  C   UNL     1      29.198 -30.070 -30.631  0.00  0.00    -0.064 C 
ATOM     11  C   UNL     1      29.137 -29.097 -31.551  0.00  0.00    -0.084 C 
ATOM     12  C   UNL     1      28.091 -28.073 -31.249  0.00  0.00    -0.029 C 
ATOM     13  C   UNL     1      27.668 -28.391 -29.799  0.00  0.00    -0.013 C 
ATOM     14  C   UNL     1      28.172 -29.866 -29.539  0.00  0.00    -0.006 C 
ATOM     15  C   UNL     1      26.946 -30.798 -29.725  0.00  0.00    -0.056 C 
ATOM     16  C   UNL     1      28.843 -30.146 -28.190  0.00  0.00    -0.043 C 
ATOM     17  C   UNL     1      29.500 -31.533 -28.087  0.00  0.00    -0.048 C 
ATOM     18  C   UNL     1      29.888 -32.207 -29.432  0.00  0.00    -0.025 C 
ATOM     19  C   UNL     1      32.561 -34.850 -30.675  0.00  0.00    +0.179 C 
ATOM     20  O   UNL     1      32.761 -35.542 -31.672  0.00  0.00    -0.290 OA
ENDROOT
BRANCH   1  23
ATOM     21  C   UNL     1      35.234 -36.415 -28.654  0.00  0.00    +0.240 C 
ATOM     22  O   UNL     1      34.721 -36.619 -27.560  0.00  0.00    -0.271 OA
ATOM     23  N   UNL     1      34.666 -35.622 -29.620  0.00  0.00    -0.302 N 
ATOM     24  H   UNL     1      35.133 -35.474 -30.474  0.00  0.00    +0.000 HD
BRANCH  21  27
ATOM     25  C   UNL     1      38.629 -38.267 -28.233  0.00  0.00    -0.046 C 
ATOM     26  C   UNL     1      37.262 -37.685 -28.065  0.00  0.00    -0.079 C 
ATOM     27  C   UNL     1      36.594 -36.947 -28.972  0.00  0.00    +0.007 C 
ATOM     28  C   UNL     1      37.110 -36.493 -30.306  0.00  0.00    -0.035 C 
ENDBRANCH  21  27
ENDBRANCH   1  23
BRANCH  13  29
ATOM     29  C   UNL     1      28.050 -27.278 -28.764  0.00  0.00    +0.011 C 
ATOM     30  C   UNL     1      28.592 -26.005 -29.448  0.00  0.00    -0.049 C 
BRANCH  29  31
ATOM     31  N   UNL     1      26.933 -26.856 -27.856  0.00  0.00    -0.305 N 
ATOM     32  C   UNL     1      27.301 -27.033 -26.442  0.00  0.00    -0.013 C 
ATOM     33  C   UNL     1      25.665 -27.557 -28.088  0.00  0.00    -0.013 C 
ATOM     34  H   UNL     1      26.786 -25.872 -28.078  0.00  0.00    +0.000 HD
ENDBRANCH  29  31
ENDBRANCH  13  29
TORSDOF 4
ENDMDL
MODEL 10
REMARK VINA RESULT:    -6.627     26.719     30.424
REMARK INTER + INTRA:          -8.944
REMARK INTER:                  -8.336
REMARK INTRA:                  -0.608
REMARK UNBOUND:                -0.768
REMARK  Name = cpd191.pdb
REMARK  11 active torsions:
REMARK  status: ('A' for Active; 'I' for Inactive)
REMARK    1  A    between atoms: C_1  and  C_2
REMARK    2  A    between atoms: C_3  and  C_4
REMARK    3  A    between atoms: C_3  and  C_5
REMARK    4  A    between atoms: N_7  and  C_8
REMARK    5  A    between atoms: C_11  and  C_12
REMARK    6  A    between atoms: C_20  and  C_21
REMARK    7  A    between atoms: C_21  and  C_22
REMARK    8  A    between atoms: C_21  and  N_23
REMARK    9  A    between atoms: N_23  and  C_24
REMARK   10  A    between atoms: N_23  and  C_25
REMARK   11  A    between atoms: C_26  and  C_27
REMARK                            x       y       z     vdW  Elec       q    Type
REMARK                         _______ _______ _______ _____ _____    ______ ____
ROOT
ATOM      1  C   UNL     1      47.548 -26.983 -56.715  0.00  0.00    +0.086 C 
ATOM      2  C   UNL     1      47.411 -27.638 -55.337  0.00  0.00    -0.026 C 
ATOM      3  C   UNL     1      47.756 -29.141 -55.313  0.00  0.00    -0.041 C 
ATOM      4  C   UNL     1      47.616 -29.889 -56.668  0.00  0.00    -0.001 C 
ATOM      5  C   UNL     1      48.947 -29.802 -57.467  0.00  0.00    -0.055 C 
ATOM      6  C   UNL     1      46.500 -29.211 -57.451  0.00  0.00    -0.001 C 
ATOM      7  C   UNL     1      45.356 -29.811 -57.820  0.00  0.00    -0.076 C 
ATOM      8  C   UNL     1      45.007 -31.221 -57.441  0.00  0.00    -0.027 C 
ATOM      9  C   UNL     1      45.829 -31.747 -56.243  0.00  0.00    -0.012 C 
ATOM     10  C   UNL     1      45.576 -33.217 -55.987  0.00  0.00    -0.064 C 
ATOM     11  C   UNL     1      44.387 -33.818 -55.843  0.00  0.00    -0.084 C 
ATOM     12  C   UNL     1      44.504 -35.261 -55.474  0.00  0.00    -0.029 C 
ATOM     13  C   UNL     1      45.994 -35.431 -55.109  0.00  0.00    -0.013 C 
ATOM     14  C   UNL     1      46.717 -34.179 -55.746  0.00  0.00    -0.006 C 
ATOM     15  C   UNL     1      47.353 -34.657 -57.076  0.00  0.00    -0.056 C 
ATOM     16  C   UNL     1      47.770 -33.471 -54.886  0.00  0.00    -0.043 C 
ATOM     17  C   UNL     1      48.275 -32.141 -55.474  0.00  0.00    -0.048 C 
ATOM     18  C   UNL     1      47.327 -31.436 -56.483  0.00  0.00    -0.025 C 
ATOM     19  C   UNL     1      46.644 -27.732 -57.702  0.00  0.00    +0.179 C 
ATOM     20  O   UNL     1      46.055 -27.172 -58.625  0.00  0.00    -0.290 OA
ENDROOT
BRANCH   1  23
ATOM     21  C   UNL     1      48.166 -24.669 -56.201  0.00  0.00    +0.240 C 
ATOM     22  O   UNL     1      49.278 -24.998 -55.805  0.00  0.00    -0.271 OA
ATOM     23  N   UNL     1      47.230 -25.564 -56.656  0.00  0.00    -0.302 N 
ATOM     24  H   UNL     1      46.343 -25.246 -56.942  0.00  0.00    +0.000 HD
BRANCH  21  27
ATOM     25  C   UNL     1      47.668 -21.066 -54.822  0.00  0.00    -0.046 C 
ATOM     26  C   UNL     1      48.060 -22.490 -55.055  0.00  0.00    -0.079 C 
ATOM     27  C   UNL     1      47.712 -23.247 -56.113  0.00  0.00    +0.007 C 
ATOM     28  C   UNL     1      46.803 -22.846 -57.237  0.00  0.00    -0.035 C 
ENDBRANCH  21  27
ENDBRANCH   1  23
BRANCH  13  29
ATOM     29  C   UNL     1      46.249 -35.752 -53.596  0.00  0.00    +0.011 C 
ATOM     30  C   UNL     1      45.160 -35.155 -52.680  0.00  0.00    -0.049 C 
BRANCH  29  31
ATOM     31  N   UNL     1      46.351 -37.214 -53.275  0.00  0.00    -0.305 N 
ATOM     32  C   UNL     1      46.739 -37.994 -54.461  0.00  0.00    -0.013 C 
ATOM     33  C   UNL     1      45.125 -37.801 -52.725  0.00  0.00    -0.013 C 
ATOM     34  H   UNL     1      47.068 -37.263 -52.551  0.00  0.00    +0.000 HD
ENDBRANCH  29  31
ENDBRANCH  13  29
TORSDOF 4
ENDMDL
MODEL 11
REMARK VINA RESULT:    -6.517      4.787      6.490
REMARK INTER + INTRA:          -8.808
REMARK INTER:                  -8.929
REMARK INTRA:                   0.121
REMARK UNBOUND:                -0.768
REMARK  Name = cpd191.pdb
REMARK  11 active torsions:
REMARK  status: ('A' for Active; 'I' for Inactive)
REMARK    1  A    between atoms: C_1  and  C_2
REMARK    2  A    between atoms: C_3  and  C_4
REMARK    3  A    between atoms: C_3  and  C_5
REMARK    4  A    between atoms: N_7  and  C_8
REMARK    5  A    between atoms: C_11  and  C_12
REMARK    6  A    between atoms: C_20  and  C_21
REMARK    7  A    between atoms: C_21  and  C_22
REMARK    8  A    between atoms: C_21  and  N_23
REMARK    9  A    between atoms: N_23  and  C_24
REMARK   10  A    between atoms: N_23  and  C_25
REMARK   11  A    between atoms: C_26  and  C_27
REMARK                            x       y       z     vdW  Elec       q    Type
REMARK                         _______ _______ _______ _____ _____    ______ ____
ROOT
ATOM      1  C   UNL     1      38.432 -36.967 -29.985  0.00  0.00    +0.086 C 
ATOM      2  C   UNL     1      37.943 -36.546 -31.374  0.00  0.00    -0.026 C 
ATOM      3  C   UNL     1      36.443 -36.197 -31.440  0.00  0.00    -0.041 C 
ATOM      4  C   UNL     1      35.549 -36.844 -30.346  0.00  0.00    -0.001 C 
ATOM      5  C   UNL     1      35.501 -35.931 -29.087  0.00  0.00    -0.055 C 
ATOM      6  C   UNL     1      36.169 -38.187 -29.984  0.00  0.00    -0.001 C 
ATOM      7  C   UNL     1      35.569 -39.375 -30.162  0.00  0.00    -0.076 C 
ATOM      8  C   UNL     1      34.224 -39.528 -30.811  0.00  0.00    -0.027 C 
ATOM      9  C   UNL     1      33.812 -38.296 -31.648  0.00  0.00    -0.012 C 
ATOM     10  C   UNL     1      32.390 -38.408 -32.154  0.00  0.00    -0.064 C 
ATOM     11  C   UNL     1      31.849 -39.438 -32.820  0.00  0.00    -0.084 C 
ATOM     12  C   UNL     1      30.454 -39.165 -33.282  0.00  0.00    -0.029 C 
ATOM     13  C   UNL     1      30.279 -37.648 -33.056  0.00  0.00    -0.013 C 
ATOM     14  C   UNL     1      31.425 -37.249 -32.044  0.00  0.00    -0.006 C 
ATOM     15  C   UNL     1      30.777 -37.175 -30.638  0.00  0.00    -0.056 C 
ATOM     16  C   UNL     1      32.192 -35.954 -32.337  0.00  0.00    -0.043 C 
ATOM     17  C   UNL     1      33.428 -35.739 -31.447  0.00  0.00    -0.048 C 
ATOM     18  C   UNL     1      34.044 -37.015 -30.810  0.00  0.00    -0.025 C 
ATOM     19  C   UNL     1      37.605 -38.173 -29.523  0.00  0.00    +0.179 C 
ATOM     20  O   UNL     1      38.074 -39.084 -28.843  0.00  0.00    -0.290 OA
ENDROOT
BRANCH   1  23
ATOM     21  C   UNL     1      40.702 -36.527 -30.794  0.00  0.00    +0.240 C 
ATOM     22  O   UNL     1      40.319 -35.636 -31.543  0.00  0.00    -0.271 OA
ATOM     23  N   UNL     1      39.858 -37.257 -29.995  0.00  0.00    -0.302 N 
ATOM     24  H   UNL     1      40.217 -37.978 -29.428  0.00  0.00    +0.000 HD
BRANCH  21  27
ATOM     25  C   UNL     1      44.584 -36.318 -30.918  0.00  0.00    -0.046 C 
ATOM     26  C   UNL     1      43.115 -36.040 -30.896  0.00  0.00    -0.079 C 
ATOM     27  C   UNL     1      42.134 -36.955 -30.783  0.00  0.00    +0.007 C 
ATOM     28  C   UNL     1      42.306 -38.445 -30.729  0.00  0.00    -0.035 C 
ENDBRANCH  21  27
ENDBRANCH   1  23
BRANCH  13  29
ATOM     29  C   UNL     1      30.125 -36.819 -34.377  0.00  0.00    +0.011 C 
ATOM     30  C   UNL     1      30.196 -37.708 -35.637  0.00  0.00    -0.049 C 
BRANCH  29  31
ATOM     31  N   UNL     1      28.862 -36.014 -34.468  0.00  0.00    -0.305 N 
ATOM     32  C   UNL     1      28.893 -34.869 -33.544  0.00  0.00    -0.013 C 
ATOM     33  C   UNL     1      27.637 -36.776 -34.207  0.00  0.00    -0.013 C 
ATOM     34  H   UNL     1      28.832 -35.703 -35.439  0.00  0.00    +0.000 HD
ENDBRANCH  29  31
ENDBRANCH  13  29
TORSDOF 4
ENDMDL
MODEL 12
REMARK VINA RESULT:    -6.452     18.080     19.464
REMARK INTER + INTRA:          -8.729
REMARK INTER:                  -7.874
REMARK INTRA:                  -0.855
REMARK UNBOUND:                -0.768
REMARK  Name = cpd191.pdb
REMARK  11 active torsions:
REMARK  status: ('A' for Active; 'I' for Inactive)
REMARK    1  A    between atoms: C_1  and  C_2
REMARK    2  A    between atoms: C_3  and  C_4
REMARK    3  A    between atoms: C_3  and  C_5
REMARK    4  A    between atoms: N_7  and  C_8
REMARK    5  A    between atoms: C_11  and  C_12
REMARK    6  A    between atoms: C_20  and  C_21
REMARK    7  A    between atoms: C_21  and  C_22
REMARK    8  A    between atoms: C_21  and  N_23
REMARK    9  A    between atoms: N_23  and  C_24
REMARK   10  A    between atoms: N_23  and  C_25
REMARK   11  A    between atoms: C_26  and  C_27
REMARK                            x       y       z     vdW  Elec       q    Type
REMARK                         _______ _______ _______ _____ _____    ______ ____
ROOT
ATOM      1  C   UNL     1      45.026 -17.389 -39.374  0.00  0.00    +0.086 C 
ATOM      2  C   UNL     1      44.995 -17.613 -37.859  0.00  0.00    -0.026 C 
ATOM      3  C   UNL     1      44.171 -18.838 -37.417  0.00  0.00    -0.041 C 
ATOM      4  C   UNL     1      43.062 -19.300 -38.403  0.00  0.00    -0.001 C 
ATOM      5  C   UNL     1      43.646 -20.316 -39.426  0.00  0.00    -0.055 C 
ATOM      6  C   UNL     1      42.557 -18.064 -39.135  0.00  0.00    -0.001 C 
ATOM      7  C   UNL     1      41.300 -17.598 -39.064  0.00  0.00    -0.076 C 
ATOM      8  C   UNL     1      40.243 -18.209 -38.190  0.00  0.00    -0.027 C 
ATOM      9  C   UNL     1      40.827 -19.096 -37.066  0.00  0.00    -0.012 C 
ATOM     10  C   UNL     1      39.742 -19.827 -36.305  0.00  0.00    -0.064 C 
ATOM     11  C   UNL     1      38.645 -19.293 -35.750  0.00  0.00    -0.084 C 
ATOM     12  C   UNL     1      37.849 -20.283 -34.963  0.00  0.00    -0.029 C 
ATOM     13  C   UNL     1      38.783 -21.507 -34.855  0.00  0.00    -0.013 C 
ATOM     14  C   UNL     1      39.864 -21.300 -35.988  0.00  0.00    -0.006 C 
ATOM     15  C   UNL     1      39.430 -22.181 -37.188  0.00  0.00    -0.056 C 
ATOM     16  C   UNL     1      41.323 -21.595 -35.622  0.00  0.00    -0.043 C 
ATOM     17  C   UNL     1      42.341 -21.168 -36.693  0.00  0.00    -0.048 C 
ATOM     18  C   UNL     1      41.876 -20.058 -37.675  0.00  0.00    -0.025 C 
ATOM     19  C   UNL     1      43.583 -17.243 -39.874  0.00  0.00    +0.179 C 
ATOM     20  O   UNL     1      43.269 -16.494 -40.798  0.00  0.00    -0.290 OA
ENDROOT
BRANCH   1  23
ATOM     21  C   UNL     1      46.957 -16.387 -40.500  0.00  0.00    +0.240 C 
ATOM     22  O   UNL     1      47.342 -17.473 -40.921  0.00  0.00    -0.271 OA
ATOM     23  N   UNL     1      45.840 -16.233 -39.718  0.00  0.00    -0.302 N 
ATOM     24  H   UNL     1      45.589 -15.339 -39.389  0.00  0.00    +0.000 HD
BRANCH  21  27
ATOM     25  C   UNL     1      49.256 -13.795 -42.269  0.00  0.00    -0.046 C 
ATOM     26  C   UNL     1      48.405 -14.968 -41.902  0.00  0.00    -0.079 C 
ATOM     27  C   UNL     1      47.761 -15.148 -40.732  0.00  0.00    +0.007 C 
ATOM     28  C   UNL     1      47.822 -14.249 -39.533  0.00  0.00    -0.035 C 
ENDBRANCH  21  27
ENDBRANCH   1  23
BRANCH  13  29
ATOM     29  C   UNL     1      39.276 -21.808 -33.398  0.00  0.00    +0.011 C 
ATOM     30  C   UNL     1      38.538 -20.955 -32.343  0.00  0.00    -0.049 C 
BRANCH  29  31
ATOM     31  N   UNL     1      39.152 -23.243 -32.978  0.00  0.00    -0.305 N 
ATOM     32  C   UNL     1      40.475 -23.843 -32.741  0.00  0.00    -0.013 C 
ATOM     33  C   UNL     1      38.430 -24.094 -33.929  0.00  0.00    -0.013 C 
ATOM     34  H   UNL     1      38.605 -23.207 -32.118  0.00  0.00    +0.000 HD
ENDBRANCH  29  31
ENDBRANCH  13  29
TORSDOF 4
ENDMDL
MODEL 13
REMARK VINA RESULT:    -6.408     12.206     14.499
REMARK INTER + INTRA:          -8.674
REMARK INTER:                  -7.887
REMARK INTRA:                  -0.788
REMARK UNBOUND:                -0.768
REMARK  Name = cpd191.pdb
REMARK  11 active torsions:
REMARK  status: ('A' for Active; 'I' for Inactive)
REMARK    1  A    between atoms: C_1  and  C_2
REMARK    2  A    between atoms: C_3  and  C_4
REMARK    3  A    between atoms: C_3  and  C_5
REMARK    4  A    between atoms: N_7  and  C_8
REMARK    5  A    between atoms: C_11  and  C_12
REMARK    6  A    between atoms: C_20  and  C_21
REMARK    7  A    between atoms: C_21  and  C_22
REMARK    8  A    between atoms: C_21  and  N_23
REMARK    9  A    between atoms: N_23  and  C_24
REMARK   10  A    between atoms: N_23  and  C_25
REMARK   11  A    between atoms: C_26  and  C_27
REMARK                            x       y       z     vdW  Elec       q    Type
REMARK                         _______ _______ _______ _____ _____    ______ ____
ROOT
ATOM      1  C   UNL     1      38.235 -41.979 -17.059  0.00  0.00    +0.086 C 
ATOM      2  C   UNL     1      38.439 -40.831 -18.052  0.00  0.00    -0.026 C 
ATOM      3  C   UNL     1      37.131 -40.242 -18.618  0.00  0.00    -0.041 C 
ATOM      4  C   UNL     1      35.900 -41.189 -18.601  0.00  0.00    -0.001 C 
ATOM      5  C   UNL     1      35.140 -41.053 -17.250  0.00  0.00    -0.055 C 
ATOM      6  C   UNL     1      36.416 -42.613 -18.761  0.00  0.00    -0.001 C 
ATOM      7  C   UNL     1      36.120 -43.418 -19.794  0.00  0.00    -0.076 C 
ATOM      8  C   UNL     1      35.288 -42.982 -20.965  0.00  0.00    -0.027 C 
ATOM      9  C   UNL     1      35.196 -41.445 -21.104  0.00  0.00    -0.012 C 
ATOM     10  C   UNL     1      34.224 -41.034 -22.188  0.00  0.00    -0.064 C 
ATOM     11  C   UNL     1      34.198 -41.468 -23.456  0.00  0.00    -0.084 C 
ATOM     12  C   UNL     1      33.184 -40.759 -24.294  0.00  0.00    -0.029 C 
ATOM     13  C   UNL     1      32.747 -39.566 -23.417  0.00  0.00    -0.013 C 
ATOM     14  C   UNL     1      33.202 -39.946 -21.952  0.00  0.00    -0.006 C 
ATOM     15  C   UNL     1      31.948 -40.488 -21.219  0.00  0.00    -0.056 C 
ATOM     16  C   UNL     1      33.858 -38.840 -21.119  0.00  0.00    -0.043 C 
ATOM     17  C   UNL     1      34.471 -39.327 -19.794  0.00  0.00    -0.048 C 
ATOM     18  C   UNL     1      34.842 -40.834 -19.726  0.00  0.00    -0.025 C 
ATOM     19  C   UNL     1      37.433 -43.086 -17.754  0.00  0.00    +0.179 C 
ATOM     20  O   UNL     1      37.614 -44.282 -17.531  0.00  0.00    -0.290 OA
ENDROOT
BRANCH   1  23
ATOM     21  C   UNL     1      39.752 -42.471 -15.200  0.00  0.00    +0.240 C 
ATOM     22  O   UNL     1      38.954 -42.054 -14.369  0.00  0.00    -0.271 OA
ATOM     23  N   UNL     1      39.508 -42.467 -16.551  0.00  0.00    -0.302 N 
ATOM     24  H   UNL     1      40.195 -42.794 -17.176  0.00  0.00    +0.000 HD
BRANCH  21  27
ATOM     25  C   UNL     1      43.530 -43.373 -15.428  0.00  0.00    -0.046 C 
ATOM     26  C   UNL     1      42.124 -42.932 -15.685  0.00  0.00    -0.079 C 
ATOM     27  C   UNL     1      41.117 -42.924 -14.791  0.00  0.00    +0.007 C 
ATOM     28  C   UNL     1      41.176 -43.420 -13.376  0.00  0.00    -0.035 C 
ENDBRANCH  21  27
ENDBRANCH   1  23
BRANCH  13  29
ATOM     29  C   UNL     1      33.160 -38.168 -23.990  0.00  0.00    +0.011 C 
ATOM     30  C   UNL     1      33.893 -38.283 -25.343  0.00  0.00    -0.049 C 
BRANCH  29  31
ATOM     31  N   UNL     1      32.024 -37.206 -24.178  0.00  0.00    -0.305 N 
ATOM     32  C   UNL     1      32.509 -35.889 -24.621  0.00  0.00    -0.013 C 
ATOM     33  C   UNL     1      31.193 -37.008 -22.986  0.00  0.00    -0.013 C 
ATOM     34  H   UNL     1      31.441 -37.642 -24.892  0.00  0.00    +0.000 HD
ENDBRANCH  29  31
ENDBRANCH  13  29
TORSDOF 4
ENDMDL
MODEL 14
REMARK VINA RESULT:    -6.332     14.342     19.133
REMARK INTER + INTRA:          -8.580
REMARK INTER:                  -7.855
REMARK INTRA:                  -0.725
REMARK UNBOUND:                -0.768
REMARK  Name = cpd191.pdb
REMARK  11 active torsions:
REMARK  status: ('A' for Active; 'I' for Inactive)
REMARK    1  A    between atoms: C_1  and  C_2
REMARK    2  A    between atoms: C_3  and  C_4
REMARK    3  A    between atoms: C_3  and  C_5
REMARK    4  A    between atoms: N_7  and  C_8
REMARK    5  A    between atoms: C_11  and  C_12
REMARK    6  A    between atoms: C_20  and  C_21
REMARK    7  A    between atoms: C_21  and  C_22
REMARK    8  A    between atoms: C_21  and  N_23
REMARK    9  A    between atoms: N_23  and  C_24
REMARK   10  A    between atoms: N_23  and  C_25
REMARK   11  A    between atoms: C_26  and  C_27
REMARK                            x       y       z     vdW  Elec       q    Type
REMARK                         _______ _______ _______ _____ _____    ______ ____
ROOT
ATOM      1  C   UNL     1      35.323 -41.508 -19.799  0.00  0.00    +0.086 C 
ATOM      2  C   UNL     1      36.787 -41.488 -20.247  0.00  0.00    -0.026 C 
ATOM      3  C   UNL     1      37.649 -42.616 -19.645  0.00  0.00    -0.041 C 
ATOM      4  C   UNL     1      37.142 -43.211 -18.302  0.00  0.00    -0.001 C 
ATOM      5  C   UNL     1      36.158 -44.384 -18.575  0.00  0.00    -0.055 C 
ATOM      6  C   UNL     1      36.422 -42.099 -17.552  0.00  0.00    -0.001 C 
ATOM      7  C   UNL     1      36.808 -41.609 -16.363  0.00  0.00    -0.076 C 
ATOM      8  C   UNL     1      38.052 -42.058 -15.652  0.00  0.00    -0.027 C 
ATOM      9  C   UNL     1      39.060 -42.764 -16.586  0.00  0.00    -0.012 C 
ATOM     10  C   UNL     1      40.225 -43.350 -15.817  0.00  0.00    -0.064 C 
ATOM     11  C   UNL     1      41.005 -42.718 -14.929  0.00  0.00    -0.084 C 
ATOM     12  C   UNL     1      42.145 -43.559 -14.452  0.00  0.00    -0.029 C 
ATOM     13  C   UNL     1      42.145 -44.764 -15.416  0.00  0.00    -0.013 C 
ATOM     14  C   UNL     1      40.713 -44.756 -16.084  0.00  0.00    -0.006 C 
ATOM     15  C   UNL     1      39.860 -45.809 -15.330  0.00  0.00    -0.056 C 
ATOM     16  C   UNL     1      40.647 -45.011 -17.594  0.00  0.00    -0.043 C 
ATOM     17  C   UNL     1      39.259 -44.774 -18.214  0.00  0.00    -0.048 C 
ATOM     18  C   UNL     1      38.312 -43.827 -17.427  0.00  0.00    -0.025 C 
ATOM     19  C   UNL     1      35.281 -41.421 -18.268  0.00  0.00    +0.179 C 
ATOM     20  O   UNL     1      34.397 -40.823 -17.656  0.00  0.00    -0.290 OA
ENDROOT
BRANCH   1  23
ATOM     21  C   UNL     1      34.084 -40.585 -21.700  0.00  0.00    +0.240 C 
ATOM     22  O   UNL     1      34.274 -41.588 -22.379  0.00  0.00    -0.271 OA
ATOM     23  N   UNL     1      34.567 -40.433 -20.425  0.00  0.00    -0.302 N 
ATOM     24  H   UNL     1      34.403 -39.596 -19.933  0.00  0.00    +0.000 HD
BRANCH  21  27
ATOM     25  C   UNL     1      32.103 -38.358 -24.200  0.00  0.00    -0.046 C 
ATOM     26  C   UNL     1      32.816 -39.465 -23.493  0.00  0.00    -0.079 C 
ATOM     27  C   UNL     1      33.385 -39.395 -22.274  0.00  0.00    +0.007 C 
ATOM     28  C   UNL     1      33.486 -38.175 -21.406  0.00  0.00    -0.035 C 
ENDBRANCH  21  27
ENDBRANCH   1  23
BRANCH  13  29
ATOM     29  C   UNL     1      43.404 -44.838 -16.346  0.00  0.00    +0.011 C 
ATOM     30  C   UNL     1      44.400 -43.691 -16.074  0.00  0.00    -0.049 C 
BRANCH  29  31
ATOM     31  N   UNL     1      44.170 -46.125 -16.264  0.00  0.00    -0.305 N 
ATOM     32  C   UNL     1      44.302 -46.751 -17.590  0.00  0.00    -0.013 C 
ATOM     33  C   UNL     1      43.596 -47.115 -15.348  0.00  0.00    -0.013 C 
ATOM     34  H   UNL     1      45.080 -45.853 -15.894  0.00  0.00    +0.000 HD
ENDBRANCH  29  31
ENDBRANCH  13  29
TORSDOF 4
ENDMDL
MODEL 15
REMARK VINA RESULT:    -6.283     17.349     20.588
REMARK INTER + INTRA:          -8.520
REMARK INTER:                  -7.798
REMARK INTRA:                  -0.722
REMARK UNBOUND:                -0.768
REMARK  Name = cpd191.pdb
REMARK  11 active torsions:
REMARK  status: ('A' for Active; 'I' for Inactive)
REMARK    1  A    between atoms: C_1  and  C_2
REMARK    2  A    between atoms: C_3  and  C_4
REMARK    3  A    between atoms: C_3  and  C_5
REMARK    4  A    between atoms: N_7  and  C_8
REMARK    5  A    between atoms: C_11  and  C_12
REMARK    6  A    between atoms: C_20  and  C_21
REMARK    7  A    between atoms: C_21  and  C_22
REMARK    8  A    between atoms: C_21  and  N_23
REMARK    9  A    between atoms: N_23  and  C_24
REMARK   10  A    between atoms: N_23  and  C_25
REMARK   11  A    between atoms: C_26  and  C_27
REMARK                            x       y       z     vdW  Elec       q    Type
REMARK                         _______ _______ _______ _____ _____    ______ ____
ROOT
ATOM      1  C   UNL     1      39.543 -18.495 -34.787  0.00  0.00    +0.086 C 
ATOM      2  C   UNL     1      39.429 -19.170 -36.157  0.00  0.00    -0.026 C 
ATOM      3  C   UNL     1      40.748 -19.775 -36.677  0.00  0.00    -0.041 C 
ATOM      4  C   UNL     1      42.051 -19.152 -36.103  0.00  0.00    -0.001 C 
ATOM      5  C   UNL     1      42.463 -19.889 -34.796  0.00  0.00    -0.055 C 
ATOM      6  C   UNL     1      41.763 -17.688 -35.800  0.00  0.00    -0.001 C 
ATOM      7  C   UNL     1      42.382 -16.653 -36.391  0.00  0.00    -0.076 C 
ATOM      8  C   UNL     1      43.396 -16.816 -37.486  0.00  0.00    -0.027 C 
ATOM      9  C   UNL     1      43.328 -18.199 -38.173  0.00  0.00    -0.012 C 
ATOM     10  C   UNL     1      44.462 -18.397 -39.155  0.00  0.00    -0.064 C 
ATOM     11  C   UNL     1      44.826 -17.570 -40.144  0.00  0.00    -0.084 C 
ATOM     12  C   UNL     1      45.909 -18.134 -41.007  0.00  0.00    -0.029 C 
ATOM     13  C   UNL     1      45.987 -19.616 -40.582  0.00  0.00    -0.013 C 
ATOM     14  C   UNL     1      45.263 -19.679 -39.179  0.00  0.00    -0.006 C 
ATOM     15  C   UNL     1      46.376 -19.678 -38.099  0.00  0.00    -0.056 C 
ATOM     16  C   UNL     1      44.304 -20.851 -38.942  0.00  0.00    -0.043 C 
ATOM     17  C   UNL     1      43.473 -20.736 -37.653  0.00  0.00    -0.048 C 
ATOM     18  C   UNL     1      43.284 -19.302 -37.087  0.00  0.00    -0.025 C 
ATOM     19  C   UNL     1      40.611 -17.397 -34.872  0.00  0.00    +0.179 C 
ATOM     20  O   UNL     1      40.533 -16.339 -34.250  0.00  0.00    -0.290 OA
ENDROOT
BRANCH   1  23
ATOM     21  C   UNL     1      37.687 -18.429 -33.190  0.00  0.00    +0.240 C 
ATOM     22  O   UNL     1      38.190 -19.297 -32.487  0.00  0.00    -0.271 OA
ATOM     23  N   UNL     1      38.257 -17.970 -34.351  0.00  0.00    -0.302 N 
ATOM     24  H   UNL     1      37.797 -17.286 -34.889  0.00  0.00    +0.000 HD
BRANCH  21  27
ATOM     25  C   UNL     1      34.906 -16.316 -31.475  0.00  0.00    -0.046 C 
ATOM     26  C   UNL     1      36.191 -16.944 -31.913  0.00  0.00    -0.079 C 
ATOM     27  C   UNL     1      36.334 -17.877 -32.873  0.00  0.00    +0.007 C 
ATOM     28  C   UNL     1      35.231 -18.532 -33.651  0.00  0.00    -0.035 C 
ENDBRANCH  21  27
ENDBRANCH   1  23
BRANCH  13  29
ATOM     29  C   UNL     1      45.545 -20.624 -41.697  0.00  0.00    +0.011 C 
ATOM     30  C   UNL     1      44.726 -19.940 -42.813  0.00  0.00    -0.049 C 
BRANCH  29  31
ATOM     31  N   UNL     1      46.672 -21.360 -42.359  0.00  0.00    -0.305 N 
ATOM     32  C   UNL     1      46.408 -22.808 -42.402  0.00  0.00    -0.013 C 
ATOM     33  C   UNL     1      47.982 -21.155 -41.733  0.00  0.00    -0.013 C 
ATOM     34  H   UNL     1      46.714 -20.966 -43.298  0.00  0.00    +0.000 HD
ENDBRANCH  29  31
ENDBRANCH  13  29
TORSDOF 4
ENDMDL
MODEL 16
REMARK VINA RESULT:    -6.276      3.096      9.864
REMARK INTER + INTRA:          -8.511
REMARK INTER:                  -7.793
REMARK INTRA:                  -0.718
REMARK UNBOUND:                -0.768
REMARK  Name = cpd191.pdb
REMARK  11 active torsions:
REMARK  status: ('A' for Active; 'I' for Inactive)
REMARK    1  A    between atoms: C_1  and  C_2
REMARK    2  A    between atoms: C_3  and  C_4
REMARK    3  A    between atoms: C_3  and  C_5
REMARK    4  A    between atoms: N_7  and  C_8
REMARK    5  A    between atoms: C_11  and  C_12
REMARK    6  A    between atoms: C_20  and  C_21
REMARK    7  A    between atoms: C_21  and  C_22
REMARK    8  A    between atoms: C_21  and  N_23
REMARK    9  A    between atoms: N_23  and  C_24
REMARK   10  A    between atoms: N_23  and  C_25
REMARK   11  A    between atoms: C_26  and  C_27
REMARK                            x       y       z     vdW  Elec       q    Type
REMARK                         _______ _______ _______ _____ _____    ______ ____
ROOT
ATOM      1  C   UNL     1      29.709 -31.261 -29.557  0.00  0.00    +0.086 C 
ATOM      2  C   UNL     1      29.995 -32.391 -28.564  0.00  0.00    -0.026 C 
ATOM      3  C   UNL     1      31.397 -33.018 -28.704  0.00  0.00    -0.041 C 
ATOM      4  C   UNL     1      32.066 -32.875 -30.099  0.00  0.00    -0.001 C 
ATOM      5  C   UNL     1      32.874 -31.547 -30.169  0.00  0.00    -0.055 C 
ATOM      6  C   UNL     1      30.955 -32.857 -31.140  0.00  0.00    -0.001 C 
ATOM      7  C   UNL     1      30.802 -33.779 -32.104  0.00  0.00    -0.076 C 
ATOM      8  C   UNL     1      31.679 -34.991 -32.231  0.00  0.00    -0.027 C 
ATOM      9  C   UNL     1      32.448 -35.320 -30.932  0.00  0.00    -0.012 C 
ATOM     10  C   UNL     1      33.444 -36.441 -31.135  0.00  0.00    -0.064 C 
ATOM     11  C   UNL     1      33.206 -37.645 -31.676  0.00  0.00    -0.084 C 
ATOM     12  C   UNL     1      34.387 -38.559 -31.608  0.00  0.00    -0.029 C 
ATOM     13  C   UNL     1      35.360 -37.836 -30.652  0.00  0.00    -0.013 C 
ATOM     14  C   UNL     1      34.859 -36.338 -30.612  0.00  0.00    -0.006 C 
ATOM     15  C   UNL     1      35.768 -35.535 -31.577  0.00  0.00    -0.056 C 
ATOM     16  C   UNL     1      34.816 -35.654 -29.241  0.00  0.00    -0.043 C 
ATOM     17  C   UNL     1      34.119 -34.283 -29.241  0.00  0.00    -0.048 C 
ATOM     18  C   UNL     1      33.111 -34.028 -30.396  0.00  0.00    -0.025 C 
ATOM     19  C   UNL     1      29.887 -31.806 -30.980  0.00  0.00    +0.179 C 
ATOM     20  O   UNL     1      29.197 -31.435 -31.928  0.00  0.00    -0.290 OA
ENDROOT
BRANCH   1  23
ATOM     21  C   UNL     1      28.238 -29.397 -28.955  0.00  0.00    +0.240 C 
ATOM     22  O   UNL     1      29.186 -28.652 -28.732  0.00  0.00    -0.271 OA
ATOM     23  N   UNL     1      28.381 -30.703 -29.350  0.00  0.00    -0.302 N 
ATOM     24  H   UNL     1      27.584 -31.264 -29.495  0.00  0.00    +0.000 HD
BRANCH  21  27
ATOM     25  C   UNL     1      25.027 -28.333 -27.033  0.00  0.00    -0.046 C 
ATOM     26  C   UNL     1      26.401 -28.761 -27.440  0.00  0.00    -0.079 C 
ATOM     27  C   UNL     1      26.835 -28.947 -28.702  0.00  0.00    +0.007 C 
ATOM     28  C   UNL     1      26.015 -28.835 -29.953  0.00  0.00    -0.035 C 
ENDBRANCH  21  27
ENDBRANCH   1  23
BRANCH  13  29
ATOM     29  C   UNL     1      35.595 -38.582 -29.295  0.00  0.00    +0.011 C 
ATOM     30  C   UNL     1      35.015 -40.013 -29.306  0.00  0.00    -0.049 C 
BRANCH  29  31
ATOM     31  N   UNL     1      37.031 -38.686 -28.876  0.00  0.00    -0.305 N 
ATOM     32  C   UNL     1      37.416 -40.087 -28.638  0.00  0.00    -0.013 C 
ATOM     33  C   UNL     1      37.373 -37.911 -27.680  0.00  0.00    -0.013 C 
ATOM     34  H   UNL     1      37.551 -38.291 -29.659  0.00  0.00    +0.000 HD
ENDBRANCH  29  31
ENDBRANCH  13  29
TORSDOF 4
ENDMDL
MODEL 17
REMARK VINA RESULT:    -6.244     20.462     21.817
REMARK INTER + INTRA:          -8.472
REMARK INTER:                  -7.764
REMARK INTRA:                  -0.708
REMARK UNBOUND:                -0.768
REMARK  Name = cpd191.pdb
REMARK  11 active torsions:
REMARK  status: ('A' for Active; 'I' for Inactive)
REMARK    1  A    between atoms: C_1  and  C_2
REMARK    2  A    between atoms: C_3  and  C_4
REMARK    3  A    between atoms: C_3  and  C_5
REMARK    4  A    between atoms: N_7  and  C_8
REMARK    5  A    between atoms: C_11  and  C_12
REMARK    6  A    between atoms: C_20  and  C_21
REMARK    7  A    between atoms: C_21  and  C_22
REMARK    8  A    between atoms: C_21  and  N_23
REMARK    9  A    between atoms: N_23  and  C_24
REMARK   10  A    between atoms: N_23  and  C_25
REMARK   11  A    between atoms: C_26  and  C_27
REMARK                            x       y       z     vdW  Elec       q    Type
REMARK                         _______ _______ _______ _____ _____    ______ ____
ROOT
ATOM      1  C   UNL     1      45.419 -18.706 -37.196  0.00  0.00    +0.086 C 
ATOM      2  C   UNL     1      46.417 -18.165 -36.167  0.00  0.00    -0.026 C 
ATOM      3  C   UNL     1      45.764 -17.541 -34.918  0.00  0.00    -0.041 C 
ATOM      4  C   UNL     1      44.313 -17.017 -35.103  0.00  0.00    -0.001 C 
ATOM      5  C   UNL     1      43.293 -18.157 -34.819  0.00  0.00    -0.055 C 
ATOM      6  C   UNL     1      44.175 -16.552 -36.546  0.00  0.00    -0.001 C 
ATOM      7  C   UNL     1      43.914 -15.288 -36.917  0.00  0.00    -0.076 C 
ATOM      8  C   UNL     1      43.792 -14.153 -35.942  0.00  0.00    -0.027 C 
ATOM      9  C   UNL     1      44.431 -14.463 -34.569  0.00  0.00    -0.012 C 
ATOM     10  C   UNL     1      44.151 -13.373 -33.558  0.00  0.00    -0.064 C 
ATOM     11  C   UNL     1      44.355 -12.057 -33.712  0.00  0.00    -0.084 C 
ATOM     12  C   UNL     1      44.090 -11.276 -32.465  0.00  0.00    -0.029 C 
ATOM     13  C   UNL     1      43.957 -12.357 -31.372  0.00  0.00    -0.013 C 
ATOM     14  C   UNL     1      43.693 -13.704 -32.155  0.00  0.00    -0.006 C 
ATOM     15  C   UNL     1      42.165 -13.962 -32.099  0.00  0.00    -0.056 C 
ATOM     16  C   UNL     1      44.453 -14.947 -31.680  0.00  0.00    -0.043 C 
ATOM     17  C   UNL     1      44.319 -16.163 -32.613  0.00  0.00    -0.048 C 
ATOM     18  C   UNL     1      43.949 -15.854 -34.090  0.00  0.00    -0.025 C 
ATOM     19  C   UNL     1      44.491 -17.561 -37.621  0.00  0.00    +0.179 C 
ATOM     20  O   UNL     1      44.047 -17.450 -38.763  0.00  0.00    -0.290 OA
ENDROOT
BRANCH   1  23
ATOM     21  C   UNL     1      45.579 -20.404 -38.954  0.00  0.00    +0.240 C 
ATOM     22  O   UNL     1      44.548 -20.957 -38.586  0.00  0.00    -0.271 OA
ATOM     23  N   UNL     1      46.106 -19.300 -38.333  0.00  0.00    -0.302 N 
ATOM     24  H   UNL     1      46.950 -18.909 -38.657  0.00  0.00    +0.000 HD
BRANCH  21  27
ATOM     25  C   UNL     1      48.163 -22.637 -40.816  0.00  0.00    -0.046 C 
ATOM     26  C   UNL     1      47.266 -21.979 -39.817  0.00  0.00    -0.079 C 
ATOM     27  C   UNL     1      46.401 -20.977 -40.063  0.00  0.00    +0.007 C 
ATOM     28  C   UNL     1      46.209 -20.265 -41.370  0.00  0.00    -0.035 C 
ENDBRANCH  21  27
ENDBRANCH   1  23
BRANCH  13  29
ATOM     29  C   UNL     1      45.102 -12.327 -30.302  0.00  0.00    +0.011 C 
ATOM     30  C   UNL     1      46.298 -11.460 -30.750  0.00  0.00    -0.049 C 
BRANCH  29  31
ATOM     31  N   UNL     1      44.681 -11.841 -28.947  0.00  0.00    -0.305 N 
ATOM     32  C   UNL     1      43.227 -11.975 -28.762  0.00  0.00    -0.013 C 
ATOM     33  C   UNL     1      45.050 -10.452 -28.658  0.00  0.00    -0.013 C 
ATOM     34  H   UNL     1      45.191 -12.437 -28.296  0.00  0.00    +0.000 HD
ENDBRANCH  29  31
ENDBRANCH  13  29
TORSDOF 4
ENDMDL
MODEL 18
REMARK VINA RESULT:    -6.017     15.636     16.940
REMARK INTER + INTRA:          -8.191
REMARK INTER:                  -7.378
REMARK INTRA:                  -0.813
REMARK UNBOUND:                -0.768
REMARK  Name = cpd191.pdb
REMARK  11 active torsions:
REMARK  status: ('A' for Active; 'I' for Inactive)
REMARK    1  A    between atoms: C_1  and  C_2
REMARK    2  A    between atoms: C_3  and  C_4
REMARK    3  A    between atoms: C_3  and  C_5
REMARK    4  A    between atoms: N_7  and  C_8
REMARK    5  A    between atoms: C_11  and  C_12
REMARK    6  A    between atoms: C_20  and  C_21
REMARK    7  A    between atoms: C_21  and  C_22
REMARK    8  A    between atoms: C_21  and  N_23
REMARK    9  A    between atoms: N_23  and  C_24
REMARK   10  A    between atoms: N_23  and  C_25
REMARK   11  A    between atoms: C_26  and  C_27
REMARK                            x       y       z     vdW  Elec       q    Type
REMARK                         _______ _______ _______ _____ _____    ______ ____
ROOT
ATOM      1  C   UNL     1      43.142 -20.781 -38.065  0.00  0.00    +0.086 C 
ATOM      2  C   UNL     1      42.799 -19.294 -37.935  0.00  0.00    -0.026 C 
ATOM      3  C   UNL     1      42.082 -18.921 -36.622  0.00  0.00    -0.041 C 
ATOM      4  C   UNL     1      41.306 -20.072 -35.924  0.00  0.00    -0.001 C 
ATOM      5  C   UNL     1      42.249 -20.841 -34.955  0.00  0.00    -0.055 C 
ATOM      6  C   UNL     1      40.808 -21.014 -37.013  0.00  0.00    -0.001 C 
ATOM      7  C   UNL     1      39.514 -21.262 -37.271  0.00  0.00    -0.076 C 
ATOM      8  C   UNL     1      38.386 -20.580 -36.552  0.00  0.00    -0.027 C 
ATOM      9  C   UNL     1      38.819 -19.276 -35.845  0.00  0.00    -0.012 C 
ATOM     10  C   UNL     1      37.707 -18.698 -34.997  0.00  0.00    -0.064 C 
ATOM     11  C   UNL     1      36.447 -18.447 -35.379  0.00  0.00    -0.084 C 
ATOM     12  C   UNL     1      35.645 -17.757 -34.324  0.00  0.00    -0.029 C 
ATOM     13  C   UNL     1      36.696 -17.330 -33.278  0.00  0.00    -0.013 C 
ATOM     14  C   UNL     1      37.966 -18.219 -33.586  0.00  0.00    -0.006 C 
ATOM     15  C   UNL     1      37.949 -19.392 -32.572  0.00  0.00    -0.056 C 
ATOM     16  C   UNL     1      39.330 -17.520 -33.557  0.00  0.00    -0.043 C 
ATOM     17  C   UNL     1      40.492 -18.383 -34.076  0.00  0.00    -0.048 C 
ATOM     18  C   UNL     1      40.108 -19.547 -35.030  0.00  0.00    -0.025 C 
ATOM     19  C   UNL     1      41.846 -21.592 -37.941  0.00  0.00    +0.179 C 
ATOM     20  O   UNL     1      41.645 -22.630 -38.568  0.00  0.00    -0.290 OA
ENDROOT
BRANCH   1  23
ATOM     21  C   UNL     1      45.174 -21.360 -39.303  0.00  0.00    +0.240 C 
ATOM     22  O   UNL     1      45.850 -21.396 -38.282  0.00  0.00    -0.271 OA
ATOM     23  N   UNL     1      43.837 -21.053 -39.314  0.00  0.00    -0.302 N 
ATOM     24  H   UNL     1      43.347 -21.016 -40.167  0.00  0.00    +0.000 HD
BRANCH  21  27
ATOM     25  C   UNL     1      47.143 -23.020 -42.219  0.00  0.00    -0.046 C 
ATOM     26  C   UNL     1      46.452 -22.696 -40.934  0.00  0.00    -0.079 C 
ATOM     27  C   UNL     1      45.805 -21.550 -40.645  0.00  0.00    +0.007 C 
ATOM     28  C   UNL     1      45.705 -20.337 -41.523  0.00  0.00    -0.035 C 
ENDBRANCH  21  27
ENDBRANCH   1  23
BRANCH  13  29
ATOM     29  C   UNL     1      36.882 -15.779 -33.154  0.00  0.00    +0.011 C 
ATOM     30  C   UNL     1      35.970 -15.002 -34.128  0.00  0.00    -0.049 C 
BRANCH  29  31
ATOM     31  N   UNL     1      36.642 -15.226 -31.781  0.00  0.00    -0.305 N 
ATOM     32  C   UNL     1      37.908 -15.054 -31.049  0.00  0.00    -0.013 C 
ATOM     33  C   UNL     1      35.743 -16.033 -30.950  0.00  0.00    -0.013 C 
ATOM     34  H   UNL     1      36.188 -14.329 -31.946  0.00  0.00    +0.000 HD
ENDBRANCH  29  31
ENDBRANCH  13  29
TORSDOF 4
ENDMDL
MODEL 19
REMARK VINA RESULT:    -5.912     27.652     32.767
REMARK INTER + INTRA:          -8.062
REMARK INTER:                  -7.340
REMARK INTRA:                  -0.722
REMARK UNBOUND:                -0.768
REMARK  Name = cpd191.pdb
REMARK  11 active torsions:
REMARK  status: ('A' for Active; 'I' for Inactive)
REMARK    1  A    between atoms: C_1  and  C_2
REMARK    2  A    between atoms: C_3  and  C_4
REMARK    3  A    between atoms: C_3  and  C_5
REMARK    4  A    between atoms: N_7  and  C_8
REMARK    5  A    between atoms: C_11  and  C_12
REMARK    6  A    between atoms: C_20  and  C_21
REMARK    7  A    between atoms: C_21  and  C_22
REMARK    8  A    between atoms: C_21  and  N_23
REMARK    9  A    between atoms: N_23  and  C_24
REMARK   10  A    between atoms: N_23  and  C_25
REMARK   11  A    between atoms: C_26  and  C_27
REMARK                            x       y       z     vdW  Elec       q    Type
REMARK                         _______ _______ _______ _____ _____    ______ ____
ROOT
ATOM      1  C   UNL     1      51.360 -46.802 -47.963  0.00  0.00    +0.086 C 
ATOM      2  C   UNL     1      52.393 -47.527 -48.831  0.00  0.00    -0.026 C 
ATOM      3  C   UNL     1      53.269 -48.537 -48.064  0.00  0.00    -0.041 C 
ATOM      4  C   UNL     1      53.418 -48.282 -46.538  0.00  0.00    -0.001 C 
ATOM      5  C   UNL     1      52.272 -48.994 -45.764  0.00  0.00    -0.055 C 
ATOM      6  C   UNL     1      53.333 -46.778 -46.316  0.00  0.00    -0.001 C 
ATOM      7  C   UNL     1      54.325 -46.027 -45.811  0.00  0.00    -0.076 C 
ATOM      8  C   UNL     1      55.679 -46.575 -45.464  0.00  0.00    -0.027 C 
ATOM      9  C   UNL     1      55.976 -47.929 -46.148  0.00  0.00    -0.012 C 
ATOM     10  C   UNL     1      57.271 -48.537 -45.654  0.00  0.00    -0.064 C 
ATOM     11  C   UNL     1      58.471 -47.942 -45.595  0.00  0.00    -0.084 C 
ATOM     12  C   UNL     1      59.563 -48.872 -45.176  0.00  0.00    -0.029 C 
ATOM     13  C   UNL     1      58.911 -50.269 -45.257  0.00  0.00    -0.013 C 
ATOM     14  C   UNL     1      57.355 -49.996 -45.266  0.00  0.00    -0.006 C 
ATOM     15  C   UNL     1      56.849 -50.232 -43.820  0.00  0.00    -0.056 C 
ATOM     16  C   UNL     1      56.512 -50.807 -46.256  0.00  0.00    -0.043 C 
ATOM     17  C   UNL     1      55.050 -50.342 -46.368  0.00  0.00    -0.048 C 
ATOM     18  C   UNL     1      54.765 -48.873 -45.949  0.00  0.00    -0.025 C 
ATOM     19  C   UNL     1      52.098 -46.081 -46.828  0.00  0.00    +0.179 C 
ATOM     20  O   UNL     1      51.732 -44.999 -46.375  0.00  0.00    -0.290 OA
ENDROOT
BRANCH   1  23
ATOM     21  C   UNL     1      49.228 -45.706 -48.465  0.00  0.00    +0.240 C 
ATOM     22  O   UNL     1      48.648 -46.305 -47.566  0.00  0.00    -0.271 OA
ATOM     23  N   UNL     1      50.557 -45.885 -48.758  0.00  0.00    -0.302 N 
ATOM     24  H   UNL     1      50.966 -45.394 -49.506  0.00  0.00    +0.000 HD
BRANCH  21  27
ATOM     25  C   UNL     1      46.400 -44.354 -50.769  0.00  0.00    -0.046 C 
ATOM     26  C   UNL     1      47.257 -45.146 -49.834  0.00  0.00    -0.079 C 
ATOM     27  C   UNL     1      48.479 -44.799 -49.387  0.00  0.00    +0.007 C 
ATOM     28  C   UNL     1      49.263 -43.585 -49.788  0.00  0.00    -0.035 C 
ENDBRANCH  21  27
ENDBRANCH   1  23
BRANCH  13  29
ATOM     29  C   UNL     1      59.515 -51.192 -46.370  0.00  0.00    +0.011 C 
ATOM     30  C   UNL     1      60.405 -50.410 -47.359  0.00  0.00    -0.049 C 
BRANCH  29  31
ATOM     31  N   UNL     1      60.326 -52.345 -45.856  0.00  0.00    -0.305 N 
ATOM     32  C   UNL     1      60.098 -52.556 -44.417  0.00  0.00    -0.013 C 
ATOM     33  C   UNL     1      61.770 -52.217 -46.075  0.00  0.00    -0.013 C 
ATOM     34  H   UNL     1      60.001 -53.144 -46.401  0.00  0.00    +0.000 HD
ENDBRANCH  29  31
ENDBRANCH  13  29
TORSDOF 4
ENDMDL
MODEL 20
REMARK VINA RESULT:    -5.905     27.786     31.278
REMARK INTER + INTRA:          -8.054
REMARK INTER:                  -7.268
REMARK INTRA:                  -0.786
REMARK UNBOUND:                -0.768
REMARK  Name = cpd191.pdb
REMARK  11 active torsions:
REMARK  status: ('A' for Active; 'I' for Inactive)
REMARK    1  A    between atoms: C_1  and  C_2
REMARK    2  A    between atoms: C_3  and  C_4
REMARK    3  A    between atoms: C_3  and  C_5
REMARK    4  A    between atoms: N_7  and  C_8
REMARK    5  A    between atoms: C_11  and  C_12
REMARK    6  A    between atoms: C_20  and  C_21
REMARK    7  A    between atoms: C_21  and  C_22
REMARK    8  A    between atoms: C_21  and  N_23
REMARK    9  A    between atoms: N_23  and  C_24
REMARK   10  A    between atoms: N_23  and  C_25
REMARK   11  A    between atoms: C_26  and  C_27
REMARK                            x       y       z     vdW  Elec       q    Type
REMARK                         _______ _______ _______ _____ _____    ______ ____
ROOT
ATOM      1  C   UNL     1      57.071 -48.362 -46.760  0.00  0.00    +0.086 C 
ATOM      2  C   UNL     1      56.418 -48.458 -48.143  0.00  0.00    -0.026 C 
ATOM      3  C   UNL     1      55.101 -47.669 -48.278  0.00  0.00    -0.041 C 
ATOM      4  C   UNL     1      54.333 -47.402 -46.954  0.00  0.00    -0.001 C 
ATOM      5  C   UNL     1      54.827 -46.075 -46.309  0.00  0.00    -0.055 C 
ATOM      6  C   UNL     1      54.619 -48.567 -46.016  0.00  0.00    -0.001 C 
ATOM      7  C   UNL     1      53.687 -49.413 -45.548  0.00  0.00    -0.076 C 
ATOM      8  C   UNL     1      52.242 -49.351 -45.951  0.00  0.00    -0.027 C 
ATOM      9  C   UNL     1      52.012 -48.561 -47.259  0.00  0.00    -0.012 C 
ATOM     10  C   UNL     1      50.540 -48.375 -47.554  0.00  0.00    -0.064 C 
ATOM     11  C   UNL     1      49.597 -49.327 -47.590  0.00  0.00    -0.084 C 
ATOM     12  C   UNL     1      48.267 -48.814 -48.039  0.00  0.00    -0.029 C 
ATOM     13  C   UNL     1      48.578 -47.402 -48.580  0.00  0.00    -0.013 C 
ATOM     14  C   UNL     1      49.988 -47.031 -47.971  0.00  0.00    -0.006 C 
ATOM     15  C   UNL     1      49.721 -46.118 -46.746  0.00  0.00    -0.056 C 
ATOM     16  C   UNL     1      50.998 -46.365 -48.911  0.00  0.00    -0.043 C 
ATOM     17  C   UNL     1      52.413 -46.229 -48.322  0.00  0.00    -0.048 C 
ATOM     18  C   UNL     1      52.775 -47.216 -47.178  0.00  0.00    -0.025 C 
ATOM     19  C   UNL     1      56.066 -48.859 -45.713  0.00  0.00    +0.179 C 
ATOM     20  O   UNL     1      56.404 -49.474 -44.703  0.00  0.00    -0.290 OA
ENDROOT
BRANCH   1  23
ATOM     21  C   UNL     1      59.495 -48.465 -46.423  0.00  0.00    +0.240 C 
ATOM     22  O   UNL     1      59.571 -47.259 -46.218  0.00  0.00    -0.271 OA
ATOM     23  N   UNL     1      58.318 -49.110 -46.715  0.00  0.00    -0.302 N 
ATOM     24  H   UNL     1      58.319 -50.078 -46.893  0.00  0.00    +0.000 HD
BRANCH  21  27
ATOM     25  C   UNL     1      63.254 -49.449 -46.604  0.00  0.00    -0.046 C 
ATOM     26  C   UNL     1      61.942 -48.736 -46.531  0.00  0.00    -0.079 C 
ATOM     27  C   UNL     1      60.726 -49.312 -46.474  0.00  0.00    +0.007 C 
ATOM     28  C   UNL     1      60.431 -50.781 -46.545  0.00  0.00    -0.035 C 
ENDBRANCH  21  27
ENDBRANCH   1  23
BRANCH  13  29
ATOM     29  C   UNL     1      48.367 -47.250 -50.125  0.00  0.00    +0.011 C 
ATOM     30  C   UNL     1      48.003 -48.589 -50.801  0.00  0.00    -0.049 C 
BRANCH  29  31
ATOM     31  N   UNL     1      47.319 -46.251 -50.519  0.00  0.00    -0.305 N 
ATOM     32  C   UNL     1      47.465 -45.857 -51.930  0.00  0.00    -0.013 C 
ATOM     33  C   UNL     1      47.305 -45.032 -49.705  0.00  0.00    -0.013 C 
ATOM     34  H   UNL     1      46.436 -46.737 -50.363  0.00  0.00    +0.000 HD
ENDBRANCH  29  31
ENDBRANCH  13  29
TORSDOF 4
ENDMDL
