REMARK  Name = cpd191.pdb
REMARK  11 active torsions:
REMARK  status: ('A' for Active; 'I' for Inactive)
REMARK    1  A    between atoms: C_1  and  C_2
REMARK    2  A    between atoms: C_3  and  C_4
REMARK    3  A    between atoms: C_3  and  C_5
REMARK    4  A    between atoms: N_7  and  C_8
REMARK    5  A    between atoms: C_11  and  C_12
REMARK    6  A    between atoms: C_20  and  C_21
REMARK    7  A    between atoms: C_21  and  C_22
REMARK    8  A    between atoms: C_21  and  N_23
REMARK    9  A    between atoms: N_23  and  C_24
REMARK   10  A    between atoms: N_23  and  C_25
REMARK   11  A    between atoms: C_26  and  C_27
REMARK                            x       y       z     vdW  Elec       q    Type
REMARK                         _______ _______ _______ _____ _____    ______ ____
ROOT
ATOM      1  C   UNL     1       1.983   0.244   0.523  0.00  0.00    +0.086 C 
ATOM      2  C   UNL     1       1.735   1.607  -0.130  0.00  0.00    -0.026 C 
ATOM      3  C   UNL     1       0.495   2.350   0.406  0.00  0.00    -0.041 C 
ATOM      4  C   UNL     1      -0.609   1.457   1.037  0.00  0.00    -0.001 C 
ATOM      5  C   UNL     1      -0.327   1.251   2.553  0.00  0.00    -0.055 C 
ATOM      6  C   UNL     1      -0.576   0.114   0.320  0.00  0.00    -0.001 C 
ATOM      7  C   UNL     1      -1.590  -0.387  -0.404  0.00  0.00    -0.076 C 
ATOM      8  C   UNL     1      -2.870   0.357  -0.653  0.00  0.00    -0.027 C 
ATOM      9  C   UNL     1      -2.743   1.878  -0.409  0.00  0.00    -0.012 C 
ATOM     10  C   UNL     1      -4.081   2.578  -0.507  0.00  0.00    -0.064 C 
ATOM     11  C   UNL     1      -4.966   2.491  -1.510  0.00  0.00    -0.084 C 
ATOM     12  C   UNL     1      -6.129   3.415  -1.343  0.00  0.00    -0.029 C 
ATOM     13  C   UNL     1      -5.700   4.346  -0.189  0.00  0.00    -0.013 C 
ATOM     14  C   UNL     1      -4.515   3.588   0.531  0.00  0.00    -0.006 C 
ATOM     15  C   UNL     1      -5.118   2.899   1.782  0.00  0.00    -0.056 C 
ATOM     16  C   UNL     1      -3.294   4.424   0.930  0.00  0.00    -0.043 C 
ATOM     17  C   UNL     1      -2.096   3.595   1.424  0.00  0.00    -0.048 C 
ATOM     18  C   UNL     1      -2.048   2.115   0.954  0.00  0.00    -0.025 C 
ATOM     19  C   UNL     1       0.737  -0.627   0.320  0.00  0.00    +0.179 C 
ATOM     20  O   UNL     1       0.793  -1.843   0.145  0.00  0.00    -0.290 OA
ENDROOT
BRANCH   1  23
ATOM     21  C   UNL     1       4.420   0.023   0.409  0.00  0.00    +0.240 C 
ATOM     22  O   UNL     1       4.593   0.930   1.215  0.00  0.00    -0.271 OA
ATOM     23  N   UNL     1       3.180  -0.386  -0.014  0.00  0.00    -0.302 N 
ATOM     24  H   UNL     1       3.100  -1.106  -0.681  0.00  0.00    +0.000 HD
BRANCH  21  27
ATOM     25  C   UNL     1       6.693  -2.776  -1.052  0.00  0.00    -0.046 C 
ATOM     26  C   UNL     1       5.598  -1.976  -0.422  0.00  0.00    -0.079 C 
ATOM     27  C   UNL     1       5.582  -0.639  -0.259  0.00  0.00    +0.007 C 
ATOM     28  C   UNL     1       6.686   0.315  -0.608  0.00  0.00    -0.035 C 
ENDBRANCH  21  27
ENDBRANCH   1  23
BRANCH  13  29
ATOM     29  C   UNL     1      -5.482   5.837  -0.619  0.00  0.00    +0.011 C 
ATOM     30  C   UNL     1      -4.532   5.964  -1.829  0.00  0.00    -0.049 C 
BRANCH  29  31
ATOM     31  N   UNL     1      -6.739   6.582  -0.958  0.00  0.00    -0.305 N 
ATOM     32  C   UNL     1      -6.505   8.035  -0.985  0.00  0.00    -0.013 C 
ATOM     33  C   UNL     1      -7.863   6.319  -0.054  0.00  0.00    -0.013 C 
ATOM     34  H   UNL     1      -6.997   6.234  -1.881  0.00  0.00    +0.000 HD
ENDBRANCH  29  31
ENDBRANCH  13  29
TORSDOF 4
