@<TRIPOS>MOLECULE
*****
 28 31 0 0 0
SMALL
GASTEIGER

@<TRIPOS>ATOM
      1 C          -6.1067   -0.0363    0.0000 C.3     1  UNL1        0.0051
      2 C          -5.7105    0.8539    0.0000 C.3     1  UNL1        0.0277
      3 C          -6.2834    1.6420    0.0000 C.ar    1  UNL1       -0.0067
      4 C          -7.2523    1.5400    0.0000 C.ar    1  UNL1       -0.0030
      5 C          -7.8252    2.3282    0.0000 C.ar    1  UNL1       -0.0002
      6 C          -7.4290    3.2184    0.0000 C.ar    1  UNL1        0.0013
      7 C          -6.4600    3.3204    0.0000 C.ar    1  UNL1        0.0164
      8 C          -5.8872    2.5322    0.0000 C.ar    1  UNL1        0.0727
      9 N          -4.9182    2.6342    0.0000 N.am    1  UNL1       -0.1424
     10 C          -4.3454    1.8461    0.0000 C.2     1  UNL1        0.4300
     11 O          -4.7415    0.9559    0.0000 O.2     1  UNL1       -0.2238
     12 O          -3.3764    1.9481    0.0000 O.3     1  UNL1       -0.4089
     13 C          -2.5325    1.4610    0.0000 C.ar    1  UNL1        0.1499
     14 C          -1.6883    1.9487    0.0000 C.ar    1  UNL1        0.0389
     15 C          -0.8443    1.4617    0.0000 C.ar    1  UNL1        0.0174
     16 C          -0.8439    0.4870    0.0000 C.ar    1  UNL1        0.0458
     17 C          -1.6882   -0.0007    0.0000 C.ar    1  UNL1       -0.0023
     18 C          -2.5324    0.4867    0.0000 C.ar    1  UNL1        0.0347
     19 C          -0.8438   -1.4624    0.0000 C.3     1  UNL1        0.0664
     20 C          -1.7098   -1.9626    0.0000 C.3     1  UNL1        0.0087
     21 C          -0.8435   -2.4372    0.0000 C.3     1  UNL1        0.0280
     22 C           0.0005   -2.9242    0.0000 C.3     1  UNL1        0.1016
     23 N           0.8447   -2.4365    0.0000 N.3     1  UNL1       -0.1626
     24 C           1.7108   -2.9364    0.0000 C.3     1  UNL1        0.1208
     25 O           0.8446   -1.4622    0.0000 O.3     1  UNL1       -0.2639
     26 C           0.0004   -0.9748    0.0000 C.3     1  UNL1        0.2170
     27 N           0.0000   -0.0000    0.0000 N.pl3   1  UNL1       -0.2829
     28 C           0.8659    0.5003    0.0000 C.3     1  UNL1        0.1144
@<TRIPOS>BOND
     1     1     2    1
     2     2     3    1
     3     3     4   ar
     4     4     5   ar
     5     5     6   ar
     6     6     7   ar
     7     7     8   ar
     8     3     8   ar
     9     8     9    1
    10     9    10   am
    11    10    11    2
    12    10    12    1
    13    12    13    1
    14    13    14   ar
    15    14    15   ar
    16    15    16   ar
    17    16    17   ar
    18    17    18   ar
    19    13    18   ar
    20    17    19    1
    21    19    20    1
    22    19    21    1
    23    21    22    1
    24    22    23    1
    25    23    24    1
    26    23    25    1
    27    25    26    1
    28    19    26    1
    29    26    27    1
    30    16    27    1
    31    27    28    1
