REMARK  Name = cpd206.pdb
REMARK  8 active torsions:
REMARK  status: ('A' for Active; 'I' for Inactive)
REMARK    1  A    between atoms: C_1  and  C_2
REMARK    2  A    between atoms: C_2  and  C_3
REMARK    3  A    between atoms: C_8  and  N_9
REMARK    4  A    between atoms: C_10  and  O_12
REMARK    5  A    between atoms: O_12  and  C_13
REMARK    6  A    between atoms: C_19  and  C_20
REMARK    7  A    between atoms: N_23  and  C_24
REMARK    8  A    between atoms: N_27  and  C_28
REMARK                            x       y       z     vdW  Elec       q    Type
REMARK                         _______ _______ _______ _____ _____    ______ ____
ROOT
ATOM      1  C   UNL A   1      -2.123   1.884  -0.377  0.00  0.00    +0.134 A 
ATOM      2  C   UNL A   1      -1.034   2.734  -0.144  0.00  0.00    -0.017 A 
ATOM      3  C   UNL A   1       0.188   2.204   0.282  0.00  0.00    -0.037 A 
ATOM      4  C   UNL A   1       0.311   0.831   0.445  0.00  0.00    +0.035 A 
ATOM      5  C   UNL A   1      -0.790  -0.001   0.195  0.00  0.00    -0.013 A 
ATOM      6  C   UNL A   1      -2.012   0.503  -0.229  0.00  0.00    -0.014 A 
ATOM      7  C   UNL A   1      -0.410  -1.429   0.488  0.00  0.00    +0.041 C 
ATOM      8  C   UNL A   1      -0.974  -1.829   1.862  0.00  0.00    -0.051 C 
ATOM      9  C   UNL A   1      -0.837  -2.422  -0.600  0.00  0.00    -0.025 C 
ATOM     10  C   UNL A   1       0.208  -3.527  -0.694  0.00  0.00    +0.025 C 
ATOM     11  N   UNL A   1       1.468  -2.983  -1.202  0.00  0.00    -0.189 NA
ATOM     12  C   UNL A   1       2.625  -3.804  -0.876  0.00  0.00    +0.013 C 
ATOM     13  O   UNL A   1       1.747  -1.629  -0.719  0.00  0.00    -0.274 OA
ATOM     14  C   UNL A   1       1.143  -1.295   0.550  0.00  0.00    +0.155 C 
ATOM     15  N   UNL A   1       1.434   0.116   0.897  0.00  0.00    -0.305 N 
ATOM     16  C   UNL A   1       2.750   0.642   0.590  0.00  0.00    +0.003 C 
ENDROOT
BRANCH   1  17
ATOM     17  O   UNL A   1      -3.306   2.476  -0.849  0.00  0.00    -0.411 OA
BRANCH  17  19
ATOM     18  N   UNL A   1      -5.522   2.775  -0.851  0.00  0.00    -0.251 N 
ATOM     19  C   UNL A   1      -4.489   2.175  -0.177  0.00  0.00    +0.410 C 
ATOM     20  O   UNL A   1      -4.553   1.533   0.862  0.00  0.00    -0.226 OA
ATOM     21  H   UNL A   1      -5.274   3.278  -1.660  0.00  0.00    +0.000 HD
BRANCH  18  27
ATOM     22  C   UNL A   1      -7.603   1.679   0.033  0.00  0.00    -0.026 A 
ATOM     23  C   UNL A   1      -8.952   1.886   0.392  0.00  0.00    -0.057 A 
ATOM     24  C   UNL A   1      -9.608   3.087   0.119  0.00  0.00    -0.061 A 
ATOM     25  C   UNL A   1      -8.929   4.111  -0.522  0.00  0.00    -0.060 A 
ATOM     26  C   UNL A   1      -7.584   3.947  -0.847  0.00  0.00    -0.040 A 
ATOM     27  C   UNL A   1      -6.894   2.762  -0.530  0.00  0.00    +0.040 A 
BRANCH  22  29
ATOM     28  C   UNL A   1      -7.933  -0.877  -0.065  0.00  0.00    -0.061 C 
ATOM     29  C   UNL A   1      -7.002   0.299   0.228  0.00  0.00    -0.029 C 
ENDBRANCH  22  29
ENDBRANCH  18  27
ENDBRANCH  17  19
ENDBRANCH   1  17
TORSDOF 4
