MODEL 1
REMARK VINA RESULT:    -9.107      0.000      0.000
REMARK INTER + INTRA:         -11.498
REMARK INTER:                 -11.236
REMARK INTRA:                  -0.262
REMARK UNBOUND:                -0.262
REMARK  Name = cpd206.pdb
REMARK  8 active torsions:
REMARK  status: ('A' for Active; 'I' for Inactive)
REMARK    1  A    between atoms: C_1  and  C_2
REMARK    2  A    between atoms: C_2  and  C_3
REMARK    3  A    between atoms: C_8  and  N_9
REMARK    4  A    between atoms: C_10  and  O_12
REMARK    5  A    between atoms: O_12  and  C_13
REMARK    6  A    between atoms: C_19  and  C_20
REMARK    7  A    between atoms: N_23  and  C_24
REMARK    8  A    between atoms: N_27  and  C_28
REMARK                            x       y       z     vdW  Elec       q    Type
REMARK                         _______ _______ _______ _____ _____    ______ ____
ROOT
ATOM      1  C   UNL A   1      37.141 -34.578 -31.175  0.00  0.00    +0.134 A 
ATOM      2  C   UNL A   1      37.122 -35.780 -30.456  0.00  0.00    -0.017 A 
ATOM      3  C   UNL A   1      35.968 -36.161 -29.763  0.00  0.00    -0.037 A 
ATOM      4  C   UNL A   1      34.844 -35.349 -29.819  0.00  0.00    +0.035 A 
ATOM      5  C   UNL A   1      34.884 -34.156 -30.556  0.00  0.00    -0.013 A 
ATOM      6  C   UNL A   1      36.018 -33.758 -31.251  0.00  0.00    -0.014 A 
ATOM      7  C   UNL A   1      33.564 -33.443 -30.419  0.00  0.00    +0.041 C 
ATOM      8  C   UNL A   1      33.709 -32.305 -29.395  0.00  0.00    -0.051 C 
ATOM      9  C   UNL A   1      32.994 -32.929 -31.747  0.00  0.00    -0.025 C 
ATOM     10  C   UNL A   1      31.474 -33.022 -31.698  0.00  0.00    +0.025 C 
ATOM     11  N   UNL A   1      31.059 -34.425 -31.667  0.00  0.00    -0.189 NA
ATOM     12  C   UNL A   1      29.716 -34.619 -31.141  0.00  0.00    +0.013 C 
ATOM     13  O   UNL A   1      31.958 -35.275 -30.884  0.00  0.00    -0.274 OA
ATOM     14  C   UNL A   1      32.687 -34.595 -29.838  0.00  0.00    +0.155 C 
ATOM     15  N   UNL A   1      33.613 -35.538 -29.168  0.00  0.00    -0.305 N 
ATOM     16  C   UNL A   1      33.162 -36.896 -28.935  0.00  0.00    +0.003 C 
ENDROOT
BRANCH   1  17
ATOM     17  O   UNL A   1      38.315 -34.279 -31.887  0.00  0.00    -0.411 OA
BRANCH  17  19
ATOM     18  N   UNL A   1      39.958 -35.555 -31.068  0.00  0.00    -0.251 N 
ATOM     19  C   UNL A   1      39.179 -35.333 -32.175  0.00  0.00    +0.410 C 
ATOM     20  O   UNL A   1      39.246 -35.901 -33.256  0.00  0.00    -0.226 OA
ATOM     21  H   UNL A   1      39.777 -34.977 -30.291  0.00  0.00    +0.000 HD
BRANCH  18  27
ATOM     22  C   UNL A   1      40.925 -37.652 -30.078  0.00  0.00    -0.026 A 
ATOM     23  C   UNL A   1      42.009 -38.555 -30.124  0.00  0.00    -0.057 A 
ATOM     24  C   UNL A   1      43.151 -38.293 -30.881  0.00  0.00    -0.061 A 
ATOM     25  C   UNL A   1      43.238 -37.119 -31.611  0.00  0.00    -0.060 A 
ATOM     26  C   UNL A   1      42.163 -36.232 -31.617  0.00  0.00    -0.040 A 
ATOM     27  C   UNL A   1      40.983 -36.507 -30.902  0.00  0.00    +0.040 A 
BRANCH  22  29
ATOM     28  C   UNL A   1      40.101 -38.895 -27.974  0.00  0.00    -0.061 C 
ATOM     29  C   UNL A   1      39.783 -37.934 -29.119  0.00  0.00    -0.029 C 
ENDBRANCH  22  29
ENDBRANCH  18  27
ENDBRANCH  17  19
ENDBRANCH   1  17
TORSDOF 4
ENDMDL
MODEL 2
REMARK VINA RESULT:    -8.909     16.488     18.180
REMARK INTER + INTRA:         -11.254
REMARK INTER:                 -10.236
REMARK INTRA:                  -1.019
REMARK UNBOUND:                -0.262
REMARK  Name = cpd206.pdb
REMARK  8 active torsions:
REMARK  status: ('A' for Active; 'I' for Inactive)
REMARK    1  A    between atoms: C_1  and  C_2
REMARK    2  A    between atoms: C_2  and  C_3
REMARK    3  A    between atoms: C_8  and  N_9
REMARK    4  A    between atoms: C_10  and  O_12
REMARK    5  A    between atoms: O_12  and  C_13
REMARK    6  A    between atoms: C_19  and  C_20
REMARK    7  A    between atoms: N_23  and  C_24
REMARK    8  A    between atoms: N_27  and  C_28
REMARK                            x       y       z     vdW  Elec       q    Type
REMARK                         _______ _______ _______ _____ _____    ______ ____
ROOT
ATOM      1  C   UNL A   1      45.739 -19.840 -36.542  0.00  0.00    +0.134 A 
ATOM      2  C   UNL A   1      45.722 -19.618 -35.159  0.00  0.00    -0.017 A 
ATOM      3  C   UNL A   1      44.514 -19.673 -34.457  0.00  0.00    -0.037 A 
ATOM      4  C   UNL A   1      43.345 -19.973 -35.143  0.00  0.00    +0.035 A 
ATOM      5  C   UNL A   1      43.389 -20.202 -36.526  0.00  0.00    -0.013 A 
ATOM      6  C   UNL A   1      44.576 -20.154 -37.243  0.00  0.00    -0.014 A 
ATOM      7  C   UNL A   1      41.993 -20.459 -37.031  0.00  0.00    +0.041 C 
ATOM      8  C   UNL A   1      41.456 -19.183 -37.701  0.00  0.00    -0.051 C 
ATOM      9  C   UNL A   1      41.883 -21.668 -37.968  0.00  0.00    -0.025 C 
ATOM     10  C   UNL A   1      40.532 -22.338 -37.750  0.00  0.00    +0.025 C 
ATOM     11  N   UNL A   1      40.478 -22.934 -36.414  0.00  0.00    -0.189 NA
ATOM     12  C   UNL A   1      39.122 -23.155 -35.934  0.00  0.00    +0.013 C 
ATOM     13  O   UNL A   1      41.173 -22.137 -35.400  0.00  0.00    -0.274 OA
ATOM     14  C   UNL A   1      41.254 -20.723 -35.683  0.00  0.00    +0.155 C 
ATOM     15  N   UNL A   1      42.038 -20.037 -34.628  0.00  0.00    -0.305 N 
ATOM     16  C   UNL A   1      41.864 -20.466 -33.254  0.00  0.00    +0.003 C 
ENDROOT
BRANCH   1  17
ATOM     17  O   UNL A   1      46.992 -19.818 -37.177  0.00  0.00    -0.411 OA
BRANCH  17  19
ATOM     18  N   UNL A   1      47.058 -21.345 -38.809  0.00  0.00    -0.251 N 
ATOM     19  C   UNL A   1      47.016 -19.997 -38.559  0.00  0.00    +0.410 C 
ATOM     20  O   UNL A   1      47.052 -19.088 -39.376  0.00  0.00    -0.226 OA
ATOM     21  H   UNL A   1      47.050 -21.931 -38.018  0.00  0.00    +0.000 HD
BRANCH  18  27
ATOM     22  C   UNL A   1      46.056 -22.093 -40.988  0.00  0.00    -0.026 A 
ATOM     23  C   UNL A   1      46.328 -22.689 -42.239  0.00  0.00    -0.057 A 
ATOM     24  C   UNL A   1      47.570 -23.255 -42.527  0.00  0.00    -0.061 A 
ATOM     25  C   UNL A   1      48.572 -23.240 -41.570  0.00  0.00    -0.060 A 
ATOM     26  C   UNL A   1      48.342 -22.619 -40.344  0.00  0.00    -0.040 A 
ATOM     27  C   UNL A   1      47.113 -21.996 -40.058  0.00  0.00    +0.040 A 
BRANCH  22  29
ATOM     28  C   UNL A   1      44.292 -20.220 -41.165  0.00  0.00    -0.061 C 
ATOM     29  C   UNL A   1      44.640 -21.632 -40.695  0.00  0.00    -0.029 C 
ENDBRANCH  22  29
ENDBRANCH  18  27
ENDBRANCH  17  19
ENDBRANCH   1  17
TORSDOF 4
ENDMDL
MODEL 3
REMARK VINA RESULT:    -8.144     16.310     18.012
REMARK INTER + INTRA:         -10.310
REMARK INTER:                  -9.465
REMARK INTRA:                  -0.845
REMARK UNBOUND:                -0.262
REMARK  Name = cpd206.pdb
REMARK  8 active torsions:
REMARK  status: ('A' for Active; 'I' for Inactive)
REMARK    1  A    between atoms: C_1  and  C_2
REMARK    2  A    between atoms: C_2  and  C_3
REMARK    3  A    between atoms: C_8  and  N_9
REMARK    4  A    between atoms: C_10  and  O_12
REMARK    5  A    between atoms: O_12  and  C_13
REMARK    6  A    between atoms: C_19  and  C_20
REMARK    7  A    between atoms: N_23  and  C_24
REMARK    8  A    between atoms: N_27  and  C_28
REMARK                            x       y       z     vdW  Elec       q    Type
REMARK                         _______ _______ _______ _____ _____    ______ ____
ROOT
ATOM      1  C   UNL A   1      45.229 -19.609 -36.349  0.00  0.00    +0.134 A 
ATOM      2  C   UNL A   1      45.243 -18.868 -35.160  0.00  0.00    -0.017 A 
ATOM      3  C   UNL A   1      44.082 -18.766 -34.387  0.00  0.00    -0.037 A 
ATOM      4  C   UNL A   1      42.933 -19.425 -34.800  0.00  0.00    +0.035 A 
ATOM      5  C   UNL A   1      42.946 -20.169 -35.989  0.00  0.00    -0.013 A 
ATOM      6  C   UNL A   1      44.087 -20.285 -36.771  0.00  0.00    -0.014 A 
ATOM      7  C   UNL A   1      41.574 -20.741 -36.232  0.00  0.00    +0.041 C 
ATOM      8  C   UNL A   1      40.852 -19.887 -37.289  0.00  0.00    -0.051 C 
ATOM      9  C   UNL A   1      41.578 -22.224 -36.623  0.00  0.00    -0.025 C 
ATOM     10  C   UNL A   1      40.333 -22.887 -36.047  0.00  0.00    +0.025 C 
ATOM     11  N   UNL A   1      40.412 -22.917 -34.586  0.00  0.00    -0.189 NA
ATOM     12  C   UNL A   1      39.116 -23.069 -33.940  0.00  0.00    +0.013 C 
ATOM     13  O   UNL A   1      41.043 -21.724 -34.018  0.00  0.00    -0.274 OA
ATOM     14  C   UNL A   1      40.933 -20.531 -34.826  0.00  0.00    +0.155 C 
ATOM     15  N   UNL A   1      41.668 -19.414 -34.187  0.00  0.00    -0.305 N 
ATOM     16  C   UNL A   1      41.608 -19.288 -32.743  0.00  0.00    +0.003 C 
ENDROOT
BRANCH   1  17
ATOM     17  O   UNL A   1      46.441 -19.711 -37.052  0.00  0.00    -0.411 OA
BRANCH  17  19
ATOM     18  N   UNL A   1      46.254 -21.113 -38.784  0.00  0.00    -0.251 N 
ATOM     19  C   UNL A   1      46.374 -19.790 -38.442  0.00  0.00    +0.410 C 
ATOM     20  O   UNL A   1      46.467 -18.833 -39.197  0.00  0.00    -0.226 OA
ATOM     21  H   UNL A   1      46.222 -21.751 -38.035  0.00  0.00    +0.000 HD
BRANCH  18  27
ATOM     22  C   UNL A   1      45.141 -21.447 -41.012  0.00  0.00    -0.026 A 
ATOM     23  C   UNL A   1      45.283 -22.007 -42.299  0.00  0.00    -0.057 A 
ATOM     24  C   UNL A   1      46.355 -22.840 -42.624  0.00  0.00    -0.061 A 
ATOM     25  C   UNL A   1      47.312 -23.134 -41.665  0.00  0.00    -0.060 A 
ATOM     26  C   UNL A   1      47.217 -22.558 -40.399  0.00  0.00    -0.040 A 
ATOM     27  C   UNL A   1      46.172 -21.674 -40.074  0.00  0.00    +0.040 A 
BRANCH  22  29
ATOM     28  C   UNL A   1      42.729 -21.495 -40.101  0.00  0.00    -0.061 C 
ATOM     29  C   UNL A   1      43.875 -20.674 -40.690  0.00  0.00    -0.029 C 
ENDBRANCH  22  29
ENDBRANCH  18  27
ENDBRANCH  17  19
ENDBRANCH   1  17
TORSDOF 4
ENDMDL
MODEL 4
REMARK VINA RESULT:    -8.025      2.288      3.956
REMARK INTER + INTRA:         -10.163
REMARK INTER:                  -9.796
REMARK INTRA:                  -0.367
REMARK UNBOUND:                -0.262
REMARK  Name = cpd206.pdb
REMARK  8 active torsions:
REMARK  status: ('A' for Active; 'I' for Inactive)
REMARK    1  A    between atoms: C_1  and  C_2
REMARK    2  A    between atoms: C_2  and  C_3
REMARK    3  A    between atoms: C_8  and  N_9
REMARK    4  A    between atoms: C_10  and  O_12
REMARK    5  A    between atoms: O_12  and  C_13
REMARK    6  A    between atoms: C_19  and  C_20
REMARK    7  A    between atoms: N_23  and  C_24
REMARK    8  A    between atoms: N_27  and  C_28
REMARK                            x       y       z     vdW  Elec       q    Type
REMARK                         _______ _______ _______ _____ _____    ______ ____
ROOT
ATOM      1  C   UNL A   1      33.772 -34.588 -31.612  0.00  0.00    +0.134 A 
ATOM      2  C   UNL A   1      34.278 -33.281 -31.596  0.00  0.00    -0.017 A 
ATOM      3  C   UNL A   1      33.409 -32.197 -31.439  0.00  0.00    -0.037 A 
ATOM      4  C   UNL A   1      32.052 -32.435 -31.274  0.00  0.00    +0.035 A 
ATOM      5  C   UNL A   1      31.570 -33.752 -31.282  0.00  0.00    -0.013 A 
ATOM      6  C   UNL A   1      32.414 -34.843 -31.437  0.00  0.00    -0.014 A 
ATOM      7  C   UNL A   1      30.071 -33.733 -31.132  0.00  0.00    +0.041 C 
ATOM      8  C   UNL A   1      29.424 -33.952 -32.510  0.00  0.00    -0.051 C 
ATOM      9  C   UNL A   1      29.537 -34.735 -30.101  0.00  0.00    -0.025 C 
ATOM     10  C   UNL A   1      28.313 -34.134 -29.421  0.00  0.00    +0.025 C 
ATOM     11  N   UNL A   1      28.707 -32.982 -28.608  0.00  0.00    -0.189 NA
ATOM     12  C   UNL A   1      27.607 -32.071 -28.326  0.00  0.00    +0.013 C 
ATOM     13  O   UNL A   1      29.781 -32.191 -29.212  0.00  0.00    -0.274 OA
ATOM     14  C   UNL A   1      29.859 -32.264 -30.653  0.00  0.00    +0.155 C 
ATOM     15  N   UNL A   1      31.023 -31.486 -31.140  0.00  0.00    -0.305 N 
ATOM     16  C   UNL A   1      31.331 -30.229 -30.487  0.00  0.00    +0.003 C 
ENDROOT
BRANCH   1  17
ATOM     17  O   UNL A   1      34.704 -35.632 -31.726  0.00  0.00    -0.411 OA
BRANCH  17  19
ATOM     18  N   UNL A   1      36.907 -36.012 -31.653  0.00  0.00    -0.251 N 
ATOM     19  C   UNL A   1      35.836 -35.577 -30.914  0.00  0.00    +0.410 C 
ATOM     20  O   UNL A   1      35.830 -35.247 -29.737  0.00  0.00    -0.226 OA
ATOM     21  H   UNL A   1      36.714 -36.264 -32.585  0.00  0.00    +0.000 HD
BRANCH  18  27
ATOM     22  C   UNL A   1      38.750 -37.116 -30.350  0.00  0.00    -0.026 A 
ATOM     23  C   UNL A   1      40.145 -37.168 -30.143  0.00  0.00    -0.057 A 
ATOM     24  C   UNL A   1      41.007 -36.236 -30.722  0.00  0.00    -0.061 A 
ATOM     25  C   UNL A   1      40.494 -35.228 -31.522  0.00  0.00    -0.060 A 
ATOM     26  C   UNL A   1      39.125 -35.182 -31.777  0.00  0.00    -0.040 A 
ATOM     27  C   UNL A   1      38.248 -36.146 -31.244  0.00  0.00    +0.040 A 
BRANCH  22  29
ATOM     28  C   UNL A   1      38.032 -38.041 -28.052  0.00  0.00    -0.061 C 
ATOM     29  C   UNL A   1      37.863 -38.070 -29.571  0.00  0.00    -0.029 C 
ENDBRANCH  22  29
ENDBRANCH  18  27
ENDBRANCH  17  19
ENDBRANCH   1  17
TORSDOF 4
ENDMDL
MODEL 5
REMARK VINA RESULT:    -7.932      2.523      4.107
REMARK INTER + INTRA:         -10.049
REMARK INTER:                  -9.095
REMARK INTRA:                  -0.953
REMARK UNBOUND:                -0.262
REMARK  Name = cpd206.pdb
REMARK  8 active torsions:
REMARK  status: ('A' for Active; 'I' for Inactive)
REMARK    1  A    between atoms: C_1  and  C_2
REMARK    2  A    between atoms: C_2  and  C_3
REMARK    3  A    between atoms: C_8  and  N_9
REMARK    4  A    between atoms: C_10  and  O_12
REMARK    5  A    between atoms: O_12  and  C_13
REMARK    6  A    between atoms: C_19  and  C_20
REMARK    7  A    between atoms: N_23  and  C_24
REMARK    8  A    between atoms: N_27  and  C_28
REMARK                            x       y       z     vdW  Elec       q    Type
REMARK                         _______ _______ _______ _____ _____    ______ ____
ROOT
ATOM      1  C   UNL A   1      34.295 -38.665 -28.456  0.00  0.00    +0.134 A 
ATOM      2  C   UNL A   1      33.466 -39.304 -29.387  0.00  0.00    -0.017 A 
ATOM      3  C   UNL A   1      32.480 -38.576 -30.061  0.00  0.00    -0.037 A 
ATOM      4  C   UNL A   1      32.354 -37.216 -29.813  0.00  0.00    +0.035 A 
ATOM      5  C   UNL A   1      33.204 -36.596 -28.885  0.00  0.00    -0.013 A 
ATOM      6  C   UNL A   1      34.189 -37.298 -28.205  0.00  0.00    -0.014 A 
ATOM      7  C   UNL A   1      32.833 -35.140 -28.768  0.00  0.00    +0.041 C 
ATOM      8  C   UNL A   1      32.004 -34.932 -27.490  0.00  0.00    -0.051 C 
ATOM      9  C   UNL A   1      34.034 -34.187 -28.814  0.00  0.00    -0.025 C 
ATOM     10  C   UNL A   1      33.614 -32.900 -29.513  0.00  0.00    +0.025 C 
ATOM     11  N   UNL A   1      33.333 -33.165 -30.924  0.00  0.00    -0.189 NA
ATOM     12  C   UNL A   1      32.483 -32.159 -31.543  0.00  0.00    +0.013 C 
ATOM     13  O   UNL A   1      32.700 -34.466 -31.151  0.00  0.00    -0.274 OA
ATOM     14  C   UNL A   1      31.939 -34.979 -30.036  0.00  0.00    +0.155 C 
ATOM     15  N   UNL A   1      31.410 -36.326 -30.356  0.00  0.00    -0.305 N 
ATOM     16  C   UNL A   1      30.931 -36.575 -31.702  0.00  0.00    +0.003 C 
ENDROOT
BRANCH   1  17
ATOM     17  O   UNL A   1      35.295 -39.444 -27.851  0.00  0.00    -0.411 OA
BRANCH  17  19
ATOM     18  N   UNL A   1      37.212 -38.447 -28.428  0.00  0.00    -0.251 N 
ATOM     19  C   UNL A   1      36.492 -39.609 -28.546  0.00  0.00    +0.410 C 
ATOM     20  O   UNL A   1      36.790 -40.607 -29.186  0.00  0.00    -0.226 OA
ATOM     21  H   UNL A   1      36.796 -37.735 -27.891  0.00  0.00    +0.000 HD
BRANCH  18  27
ATOM     22  C   UNL A   1      38.708 -37.359 -30.128  0.00  0.00    -0.026 A 
ATOM     23  C   UNL A   1      40.046 -37.070 -30.470  0.00  0.00    -0.057 A 
ATOM     24  C   UNL A   1      41.118 -37.616 -29.763  0.00  0.00    -0.061 A 
ATOM     25  C   UNL A   1      40.876 -38.466 -28.696  0.00  0.00    -0.060 A 
ATOM     26  C   UNL A   1      39.564 -38.731 -28.311  0.00  0.00    -0.040 A 
ATOM     27  C   UNL A   1      38.473 -38.146 -28.980  0.00  0.00    +0.040 A 
BRANCH  22  29
ATOM     28  C   UNL A   1      36.928 -35.549 -30.588  0.00  0.00    -0.061 C 
ATOM     29  C   UNL A   1      37.600 -36.849 -31.032  0.00  0.00    -0.029 C 
ENDBRANCH  22  29
ENDBRANCH  18  27
ENDBRANCH  17  19
ENDBRANCH   1  17
TORSDOF 4
ENDMDL
MODEL 6
REMARK VINA RESULT:    -7.854      2.843      4.937
REMARK INTER + INTRA:          -9.953
REMARK INTER:                  -9.456
REMARK INTRA:                  -0.497
REMARK UNBOUND:                -0.262
REMARK  Name = cpd206.pdb
REMARK  8 active torsions:
REMARK  status: ('A' for Active; 'I' for Inactive)
REMARK    1  A    between atoms: C_1  and  C_2
REMARK    2  A    between atoms: C_2  and  C_3
REMARK    3  A    between atoms: C_8  and  N_9
REMARK    4  A    between atoms: C_10  and  O_12
REMARK    5  A    between atoms: O_12  and  C_13
REMARK    6  A    between atoms: C_19  and  C_20
REMARK    7  A    between atoms: N_23  and  C_24
REMARK    8  A    between atoms: N_27  and  C_28
REMARK                            x       y       z     vdW  Elec       q    Type
REMARK                         _______ _______ _______ _____ _____    ______ ____
ROOT
ATOM      1  C   UNL A   1      33.076 -33.346 -31.831  0.00  0.00    +0.134 A 
ATOM      2  C   UNL A   1      32.317 -34.481 -32.142  0.00  0.00    -0.017 A 
ATOM      3  C   UNL A   1      30.945 -34.501 -31.869  0.00  0.00    -0.037 A 
ATOM      4  C   UNL A   1      30.349 -33.378 -31.313  0.00  0.00    +0.035 A 
ATOM      5  C   UNL A   1      31.128 -32.249 -31.020  0.00  0.00    -0.013 A 
ATOM      6  C   UNL A   1      32.491 -32.207 -31.283  0.00  0.00    -0.014 A 
ATOM      7  C   UNL A   1      30.258 -31.195 -30.387  0.00  0.00    +0.041 C 
ATOM      8  C   UNL A   1      30.482 -31.203 -28.865  0.00  0.00    -0.051 C 
ATOM      9  C   UNL A   1      30.456 -29.791 -30.972  0.00  0.00    -0.025 C 
ATOM     10  C   UNL A   1      29.120 -29.058 -30.953  0.00  0.00    +0.025 C 
ATOM     11  N   UNL A   1      28.188 -29.690 -31.888  0.00  0.00    -0.189 NA
ATOM     12  C   UNL A   1      26.792 -29.397 -31.599  0.00  0.00    +0.013 C 
ATOM     13  O   UNL A   1      28.324 -31.147 -31.939  0.00  0.00    -0.274 OA
ATOM     14  C   UNL A   1      28.845 -31.756 -30.737  0.00  0.00    +0.155 C 
ATOM     15  N   UNL A   1      29.005 -33.216 -30.934  0.00  0.00    -0.305 N 
ATOM     16  C   UNL A   1      27.990 -33.923 -31.692  0.00  0.00    +0.003 C 
ENDROOT
BRANCH   1  17
ATOM     17  O   UNL A   1      34.438 -33.374 -32.175  0.00  0.00    -0.411 OA
BRANCH  17  19
ATOM     18  N   UNL A   1      35.875 -34.991 -31.609  0.00  0.00    -0.251 N 
ATOM     19  C   UNL A   1      35.340 -33.796 -31.200  0.00  0.00    +0.410 C 
ATOM     20  O   UNL A   1      35.550 -33.208 -30.149  0.00  0.00    -0.226 OA
ATOM     21  H   UNL A   1      35.563 -35.328 -32.480  0.00  0.00    +0.000 HD
BRANCH  18  27
ATOM     22  C   UNL A   1      38.148 -36.028 -31.340  0.00  0.00    -0.026 A 
ATOM     23  C   UNL A   1      38.979 -36.777 -30.480  0.00  0.00    -0.057 A 
ATOM     24  C   UNL A   1      38.490 -37.361 -29.311  0.00  0.00    -0.061 A 
ATOM     25  C   UNL A   1      37.154 -37.210 -28.974  0.00  0.00    -0.060 A 
ATOM     26  C   UNL A   1      36.323 -36.438 -29.784  0.00  0.00    -0.040 A 
ATOM     27  C   UNL A   1      36.814 -35.799 -30.937  0.00  0.00    +0.040 A 
BRANCH  22  29
ATOM     28  C   UNL A   1      40.178 -35.900 -32.925  0.00  0.00    -0.061 C 
ATOM     29  C   UNL A   1      38.714 -35.549 -32.664  0.00  0.00    -0.029 C 
ENDBRANCH  22  29
ENDBRANCH  18  27
ENDBRANCH  17  19
ENDBRANCH   1  17
TORSDOF 4
ENDMDL
MODEL 7
REMARK VINA RESULT:    -7.769     24.859     27.380
REMARK INTER + INTRA:          -9.847
REMARK INTER:                  -8.758
REMARK INTRA:                  -1.088
REMARK UNBOUND:                -0.262
REMARK  Name = cpd206.pdb
REMARK  8 active torsions:
REMARK  status: ('A' for Active; 'I' for Inactive)
REMARK    1  A    between atoms: C_1  and  C_2
REMARK    2  A    between atoms: C_2  and  C_3
REMARK    3  A    between atoms: C_8  and  N_9
REMARK    4  A    between atoms: C_10  and  O_12
REMARK    5  A    between atoms: O_12  and  C_13
REMARK    6  A    between atoms: C_19  and  C_20
REMARK    7  A    between atoms: N_23  and  C_24
REMARK    8  A    between atoms: N_27  and  C_28
REMARK                            x       y       z     vdW  Elec       q    Type
REMARK                         _______ _______ _______ _____ _____    ______ ____
ROOT
ATOM      1  C   UNL A   1      47.646 -31.493 -54.073  0.00  0.00    +0.134 A 
ATOM      2  C   UNL A   1      48.292 -30.305 -53.705  0.00  0.00    -0.017 A 
ATOM      3  C   UNL A   1      48.244 -29.192 -54.550  0.00  0.00    -0.037 A 
ATOM      4  C   UNL A   1      47.532 -29.275 -55.739  0.00  0.00    +0.035 A 
ATOM      5  C   UNL A   1      46.884 -30.471 -56.081  0.00  0.00    -0.013 A 
ATOM      6  C   UNL A   1      46.918 -31.587 -55.257  0.00  0.00    -0.014 A 
ATOM      7  C   UNL A   1      46.229 -30.313 -57.428  0.00  0.00    +0.041 C 
ATOM      8  C   UNL A   1      47.103 -30.990 -58.497  0.00  0.00    -0.051 C 
ATOM      9  C   UNL A   1      44.785 -30.827 -57.481  0.00  0.00    -0.025 C 
ATOM     10  C   UNL A   1      43.985 -29.948 -58.434  0.00  0.00    +0.025 C 
ATOM     11  N   UNL A   1      43.848 -28.601 -57.878  0.00  0.00    -0.189 NA
ATOM     12  C   UNL A   1      43.548 -27.589 -58.880  0.00  0.00    +0.013 C 
ATOM     13  O   UNL A   1      45.040 -28.154 -57.154  0.00  0.00    -0.274 OA
ATOM     14  C   UNL A   1      46.279 -28.761 -57.580  0.00  0.00    +0.155 C 
ATOM     15  N   UNL A   1      47.397 -28.287 -56.730  0.00  0.00    -0.305 N 
ATOM     16  C   UNL A   1      47.406 -26.897 -56.318  0.00  0.00    +0.003 C 
ENDROOT
BRANCH   1  17
ATOM     17  O   UNL A   1      47.693 -32.556 -53.157  0.00  0.00    -0.411 OA
BRANCH  17  19
ATOM     18  N   UNL A   1      46.158 -34.171 -53.349  0.00  0.00    -0.251 N 
ATOM     19  C   UNL A   1      47.455 -33.839 -53.647  0.00  0.00    +0.410 C 
ATOM     20  O   UNL A   1      48.296 -34.541 -54.191  0.00  0.00    -0.226 OA
ATOM     21  H   UNL A   1      45.634 -33.482 -52.879  0.00  0.00    +0.000 HD
BRANCH  18  27
ATOM     22  C   UNL A   1      44.665 -35.621 -54.758  0.00  0.00    -0.026 A 
ATOM     23  C   UNL A   1      44.157 -36.925 -54.933  0.00  0.00    -0.057 A 
ATOM     24  C   UNL A   1      44.365 -37.928 -53.985  0.00  0.00    -0.061 A 
ATOM     25  C   UNL A   1      45.087 -37.647 -52.835  0.00  0.00    -0.060 A 
ATOM     26  C   UNL A   1      45.636 -36.379 -52.660  0.00  0.00    -0.040 A 
ATOM     27  C   UNL A   1      45.481 -35.374 -53.632  0.00  0.00    +0.040 A 
BRANCH  22  29
ATOM     28  C   UNL A   1      45.161 -34.442 -56.997  0.00  0.00    -0.061 C 
ATOM     29  C   UNL A   1      44.274 -34.547 -55.757  0.00  0.00    -0.029 C 
ENDBRANCH  22  29
ENDBRANCH  18  27
ENDBRANCH  17  19
ENDBRANCH   1  17
TORSDOF 4
ENDMDL
MODEL 8
REMARK VINA RESULT:    -7.766     16.587     18.221
REMARK INTER + INTRA:          -9.844
REMARK INTER:                  -8.907
REMARK INTRA:                  -0.937
REMARK UNBOUND:                -0.262
REMARK  Name = cpd206.pdb
REMARK  8 active torsions:
REMARK  status: ('A' for Active; 'I' for Inactive)
REMARK    1  A    between atoms: C_1  and  C_2
REMARK    2  A    between atoms: C_2  and  C_3
REMARK    3  A    between atoms: C_8  and  N_9
REMARK    4  A    between atoms: C_10  and  O_12
REMARK    5  A    between atoms: O_12  and  C_13
REMARK    6  A    between atoms: C_19  and  C_20
REMARK    7  A    between atoms: N_23  and  C_24
REMARK    8  A    between atoms: N_27  and  C_28
REMARK                            x       y       z     vdW  Elec       q    Type
REMARK                         _______ _______ _______ _____ _____    ______ ____
ROOT
ATOM      1  C   UNL A   1      42.372 -20.579 -39.497  0.00  0.00    +0.134 A 
ATOM      2  C   UNL A   1      41.477 -21.656 -39.456  0.00  0.00    -0.017 A 
ATOM      3  C   UNL A   1      40.999 -22.121 -38.227  0.00  0.00    -0.037 A 
ATOM      4  C   UNL A   1      41.402 -21.487 -37.059  0.00  0.00    +0.035 A 
ATOM      5  C   UNL A   1      42.290 -20.404 -37.127  0.00  0.00    -0.013 A 
ATOM      6  C   UNL A   1      42.777 -19.925 -38.335  0.00  0.00    -0.014 A 
ATOM      7  C   UNL A   1      42.601 -19.929 -35.731  0.00  0.00    +0.041 C 
ATOM      8  C   UNL A   1      43.979 -20.469 -35.311  0.00  0.00    -0.051 C 
ATOM      9  C   UNL A   1      42.523 -18.407 -35.559  0.00  0.00    -0.025 C 
ATOM     10  C   UNL A   1      42.016 -18.097 -34.157  0.00  0.00    +0.025 C 
ATOM     11  N   UNL A   1      40.625 -18.529 -34.019  0.00  0.00    -0.189 NA
ATOM     12  C   UNL A   1      40.215 -18.727 -32.637  0.00  0.00    +0.013 C 
ATOM     13  O   UNL A   1      40.333 -19.769 -34.741  0.00  0.00    -0.274 OA
ATOM     14  C   UNL A   1      41.466 -20.645 -34.936  0.00  0.00    +0.155 C 
ATOM     15  N   UNL A   1      41.065 -21.825 -35.737  0.00  0.00    -0.305 N 
ATOM     16  C   UNL A   1      39.762 -22.413 -35.491  0.00  0.00    +0.003 C 
ENDROOT
BRANCH   1  17
ATOM     17  O   UNL A   1      42.776 -20.132 -40.766  0.00  0.00    -0.411 OA
BRANCH  17  19
ATOM     18  N   UNL A   1      44.553 -21.485 -40.873  0.00  0.00    -0.251 N 
ATOM     19  C   UNL A   1      44.135 -20.193 -41.068  0.00  0.00    +0.410 C 
ATOM     20  O   UNL A   1      44.818 -19.232 -41.391  0.00  0.00    -0.226 OA
ATOM     21  H   UNL A   1      43.861 -22.123 -40.584  0.00  0.00    +0.000 HD
BRANCH  18  27
ATOM     22  C   UNL A   1      46.875 -22.006 -40.065  0.00  0.00    -0.026 A 
ATOM     23  C   UNL A   1      48.076 -22.683 -40.366  0.00  0.00    -0.057 A 
ATOM     24  C   UNL A   1      48.297 -23.266 -41.615  0.00  0.00    -0.061 A 
ATOM     25  C   UNL A   1      47.320 -23.184 -42.594  0.00  0.00    -0.060 A 
ATOM     26  C   UNL A   1      46.108 -22.559 -42.307  0.00  0.00    -0.040 A 
ATOM     27  C   UNL A   1      45.849 -22.014 -41.036  0.00  0.00    +0.040 A 
BRANCH  22  29
ATOM     28  C   UNL A   1      47.084 -19.778 -38.784  0.00  0.00    -0.061 C 
ATOM     29  C   UNL A   1      46.766 -21.272 -38.741  0.00  0.00    -0.029 C 
ENDBRANCH  22  29
ENDBRANCH  18  27
ENDBRANCH  17  19
ENDBRANCH   1  17
TORSDOF 4
ENDMDL
MODEL 9
REMARK VINA RESULT:    -7.753     16.843     18.518
REMARK INTER + INTRA:          -9.828
REMARK INTER:                  -8.941
REMARK INTRA:                  -0.887
REMARK UNBOUND:                -0.262
REMARK  Name = cpd206.pdb
REMARK  8 active torsions:
REMARK  status: ('A' for Active; 'I' for Inactive)
REMARK    1  A    between atoms: C_1  and  C_2
REMARK    2  A    between atoms: C_2  and  C_3
REMARK    3  A    between atoms: C_8  and  N_9
REMARK    4  A    between atoms: C_10  and  O_12
REMARK    5  A    between atoms: O_12  and  C_13
REMARK    6  A    between atoms: C_19  and  C_20
REMARK    7  A    between atoms: N_23  and  C_24
REMARK    8  A    between atoms: N_27  and  C_28
REMARK                            x       y       z     vdW  Elec       q    Type
REMARK                         _______ _______ _______ _____ _____    ______ ____
ROOT
ATOM      1  C   UNL A   1      43.943 -19.290 -38.084  0.00  0.00    +0.134 A 
ATOM      2  C   UNL A   1      43.091 -18.617 -38.970  0.00  0.00    -0.017 A 
ATOM      3  C   UNL A   1      41.704 -18.717 -38.818  0.00  0.00    -0.037 A 
ATOM      4  C   UNL A   1      41.190 -19.466 -37.768  0.00  0.00    +0.035 A 
ATOM      5  C   UNL A   1      42.063 -20.121 -36.887  0.00  0.00    -0.013 A 
ATOM      6  C   UNL A   1      43.443 -20.036 -37.019  0.00  0.00    -0.014 A 
ATOM      7  C   UNL A   1      41.259 -20.895 -35.875  0.00  0.00    +0.041 C 
ATOM      8  C   UNL A   1      41.244 -22.381 -36.273  0.00  0.00    -0.051 C 
ATOM      9  C   UNL A   1      41.736 -20.709 -34.429  0.00  0.00    -0.025 C 
ATOM     10  C   UNL A   1      40.527 -20.759 -33.503  0.00  0.00    +0.025 C 
ATOM     11  N   UNL A   1      39.672 -19.594 -33.734  0.00  0.00    -0.189 NA
ATOM     12  C   UNL A   1      38.302 -19.784 -33.281  0.00  0.00    +0.013 C 
ATOM     13  O   UNL A   1      39.612 -19.193 -35.141  0.00  0.00    -0.274 OA
ATOM     14  C   UNL A   1      39.853 -20.254 -36.091  0.00  0.00    +0.155 C 
ATOM     15  N   UNL A   1      39.839 -19.716 -37.471  0.00  0.00    -0.305 N 
ATOM     16  C   UNL A   1      38.865 -18.693 -37.800  0.00  0.00    +0.003 C 
ENDROOT
BRANCH   1  17
ATOM     17  O   UNL A   1      45.324 -19.109 -38.265  0.00  0.00    -0.411 OA
BRANCH  17  19
ATOM     18  N   UNL A   1      45.673 -20.890 -39.571  0.00  0.00    -0.251 N 
ATOM     19  C   UNL A   1      45.877 -19.538 -39.470  0.00  0.00    +0.410 C 
ATOM     20  O   UNL A   1      46.483 -18.817 -40.251  0.00  0.00    -0.226 OA
ATOM     21  H   UNL A   1      45.184 -21.309 -38.826  0.00  0.00    +0.000 HD
BRANCH  18  27
ATOM     22  C   UNL A   1      45.440 -21.901 -41.859  0.00  0.00    -0.026 A 
ATOM     23  C   UNL A   1      46.051 -22.736 -42.819  0.00  0.00    -0.057 A 
ATOM     24  C   UNL A   1      47.196 -23.477 -42.524  0.00  0.00    -0.061 A 
ATOM     25  C   UNL A   1      47.757 -23.402 -41.259  0.00  0.00    -0.060 A 
ATOM     26  C   UNL A   1      47.198 -22.551 -40.308  0.00  0.00    -0.040 A 
ATOM     27  C   UNL A   1      46.075 -21.756 -40.607  0.00  0.00    +0.040 A 
BRANCH  22  29
ATOM     28  C   UNL A   1      44.215 -19.895 -42.921  0.00  0.00    -0.061 C 
ATOM     29  C   UNL A   1      44.118 -21.242 -42.206  0.00  0.00    -0.029 C 
ENDBRANCH  22  29
ENDBRANCH  18  27
ENDBRANCH  17  19
ENDBRANCH   1  17
TORSDOF 4
ENDMDL
MODEL 10
REMARK VINA RESULT:    -7.740     16.350     19.098
REMARK INTER + INTRA:          -9.812
REMARK INTER:                  -8.669
REMARK INTRA:                  -1.143
REMARK UNBOUND:                -0.262
REMARK  Name = cpd206.pdb
REMARK  8 active torsions:
REMARK  status: ('A' for Active; 'I' for Inactive)
REMARK    1  A    between atoms: C_1  and  C_2
REMARK    2  A    between atoms: C_2  and  C_3
REMARK    3  A    between atoms: C_8  and  N_9
REMARK    4  A    between atoms: C_10  and  O_12
REMARK    5  A    between atoms: O_12  and  C_13
REMARK    6  A    between atoms: C_19  and  C_20
REMARK    7  A    between atoms: N_23  and  C_24
REMARK    8  A    between atoms: N_27  and  C_28
REMARK                            x       y       z     vdW  Elec       q    Type
REMARK                         _______ _______ _______ _____ _____    ______ ____
ROOT
ATOM      1  C   UNL A   1      41.473 -21.565 -39.504  0.00  0.00    +0.134 A 
ATOM      2  C   UNL A   1      41.275 -21.982 -40.827  0.00  0.00    -0.017 A 
ATOM      3  C   UNL A   1      42.315 -21.878 -41.755  0.00  0.00    -0.037 A 
ATOM      4  C   UNL A   1      43.545 -21.383 -41.343  0.00  0.00    +0.035 A 
ATOM      5  C   UNL A   1      43.722 -20.983 -40.011  0.00  0.00    -0.013 A 
ATOM      6  C   UNL A   1      42.704 -21.077 -39.072  0.00  0.00    -0.014 A 
ATOM      7  C   UNL A   1      45.119 -20.446 -39.836  0.00  0.00    +0.041 C 
ATOM      8  C   UNL A   1      45.072 -18.908 -39.834  0.00  0.00    -0.051 C 
ATOM      9  C   UNL A   1      45.840 -20.983 -38.593  0.00  0.00    -0.025 C 
ATOM     10  C   UNL A   1      47.325 -21.116 -38.907  0.00  0.00    +0.025 C 
ATOM     11  N   UNL A   1      47.534 -22.167 -39.904  0.00  0.00    -0.189 NA
ATOM     12  C   UNL A   1      48.799 -22.046 -40.614  0.00  0.00    +0.013 C 
ATOM     13  O   UNL A   1      46.474 -22.221 -40.914  0.00  0.00    -0.274 OA
ATOM     14  C   UNL A   1      45.784 -20.973 -41.144  0.00  0.00    +0.155 C 
ATOM     15  N   UNL A   1      44.692 -21.169 -42.127  0.00  0.00    -0.305 N 
ATOM     16  C   UNL A   1      44.929 -22.055 -43.250  0.00  0.00    +0.003 C 
ENDROOT
BRANCH   1  17
ATOM     17  O   UNL A   1      40.402 -21.741 -38.612  0.00  0.00    -0.411 OA
BRANCH  17  19
ATOM     18  N   UNL A   1      40.614 -20.840 -36.576  0.00  0.00    -0.251 N 
ATOM     19  C   UNL A   1      40.712 -22.013 -37.281  0.00  0.00    +0.410 C 
ATOM     20  O   UNL A   1      41.061 -23.107 -36.859  0.00  0.00    -0.226 OA
ATOM     21  H   UNL A   1      40.343 -20.048 -37.093  0.00  0.00    +0.000 HD
BRANCH  18  27
ATOM     22  C   UNL A   1      42.099 -20.307 -34.620  0.00  0.00    -0.026 A 
ATOM     23  C   UNL A   1      42.128 -20.018 -33.239  0.00  0.00    -0.057 A 
ATOM     24  C   UNL A   1      40.989 -20.134 -32.441  0.00  0.00    -0.061 A 
ATOM     25  C   UNL A   1      39.792 -20.543 -33.007  0.00  0.00    -0.060 A 
ATOM     26  C   UNL A   1      39.728 -20.791 -34.376  0.00  0.00    -0.040 A 
ATOM     27  C   UNL A   1      40.854 -20.627 -35.204  0.00  0.00    +0.040 A 
BRANCH  22  29
ATOM     28  C   UNL A   1      43.742 -19.000 -36.118  0.00  0.00    -0.061 C 
ATOM     29  C   UNL A   1      43.406 -20.302 -35.392  0.00  0.00    -0.029 C 
ENDBRANCH  22  29
ENDBRANCH  18  27
ENDBRANCH  17  19
ENDBRANCH   1  17
TORSDOF 4
ENDMDL
MODEL 11
REMARK VINA RESULT:    -7.716      2.359      4.320
REMARK INTER + INTRA:          -9.782
REMARK INTER:                  -9.483
REMARK INTRA:                  -0.299
REMARK UNBOUND:                -0.262
REMARK  Name = cpd206.pdb
REMARK  8 active torsions:
REMARK  status: ('A' for Active; 'I' for Inactive)
REMARK    1  A    between atoms: C_1  and  C_2
REMARK    2  A    between atoms: C_2  and  C_3
REMARK    3  A    between atoms: C_8  and  N_9
REMARK    4  A    between atoms: C_10  and  O_12
REMARK    5  A    between atoms: O_12  and  C_13
REMARK    6  A    between atoms: C_19  and  C_20
REMARK    7  A    between atoms: N_23  and  C_24
REMARK    8  A    between atoms: N_27  and  C_28
REMARK                            x       y       z     vdW  Elec       q    Type
REMARK                         _______ _______ _______ _____ _____    ______ ____
ROOT
ATOM      1  C   UNL A   1      33.974 -33.864 -31.539  0.00  0.00    +0.134 A 
ATOM      2  C   UNL A   1      34.367 -32.555 -31.233  0.00  0.00    -0.017 A 
ATOM      3  C   UNL A   1      33.410 -31.607 -30.857  0.00  0.00    -0.037 A 
ATOM      4  C   UNL A   1      32.078 -31.988 -30.768  0.00  0.00    +0.035 A 
ATOM      5  C   UNL A   1      31.710 -33.307 -31.068  0.00  0.00    -0.013 A 
ATOM      6  C   UNL A   1      32.643 -34.265 -31.443  0.00  0.00    -0.014 A 
ATOM      7  C   UNL A   1      30.215 -33.447 -30.940  0.00  0.00    +0.041 C 
ATOM      8  C   UNL A   1      29.584 -33.414 -32.342  0.00  0.00    -0.051 C 
ATOM      9  C   UNL A   1      29.771 -34.689 -30.158  0.00  0.00    -0.025 C 
ATOM     10  C   UNL A   1      28.504 -34.354 -29.382  0.00  0.00    +0.025 C 
ATOM     11  N   UNL A   1      28.801 -33.378 -28.334  0.00  0.00    -0.189 NA
ATOM     12  C   UNL A   1      27.629 -32.645 -27.877  0.00  0.00    +0.013 C 
ATOM     13  O   UNL A   1      29.802 -32.388 -28.736  0.00  0.00    -0.274 OA
ATOM     14  C   UNL A   1      29.881 -32.140 -30.157  0.00  0.00    +0.155 C 
ATOM     15  N   UNL A   1      30.973 -31.180 -30.447  0.00  0.00    -0.305 N 
ATOM     16  C   UNL A   1      31.176 -30.073 -29.533  0.00  0.00    +0.003 C 
ENDROOT
BRANCH   1  17
ATOM     17  O   UNL A   1      34.990 -34.778 -31.862  0.00  0.00    -0.411 OA
BRANCH  17  19
ATOM     18  N   UNL A   1      36.823 -35.960 -31.365  0.00  0.00    -0.251 N 
ATOM     19  C   UNL A   1      35.774 -35.265 -30.818  0.00  0.00    +0.410 C 
ATOM     20  O   UNL A   1      35.512 -35.129 -29.631  0.00  0.00    -0.226 OA
ATOM     21  H   UNL A   1      36.856 -35.985 -32.349  0.00  0.00    +0.000 HD
BRANCH  18  27
ATOM     22  C   UNL A   1      39.241 -36.405 -30.851  0.00  0.00    -0.026 A 
ATOM     23  C   UNL A   1      40.131 -37.109 -30.012  0.00  0.00    -0.057 A 
ATOM     24  C   UNL A   1      39.683 -38.082 -29.119  0.00  0.00    -0.061 A 
ATOM     25  C   UNL A   1      38.330 -38.376 -29.043  0.00  0.00    -0.060 A 
ATOM     26  C   UNL A   1      37.427 -37.663 -29.829  0.00  0.00    -0.040 A 
ATOM     27  C   UNL A   1      37.858 -36.641 -30.696  0.00  0.00    +0.040 A 
BRANCH  22  29
ATOM     28  C   UNL A   1      40.551 -36.143 -33.057  0.00  0.00    -0.061 C 
ATOM     29  C   UNL A   1      39.816 -35.469 -31.899  0.00  0.00    -0.029 C 
ENDBRANCH  22  29
ENDBRANCH  18  27
ENDBRANCH  17  19
ENDBRANCH   1  17
TORSDOF 4
ENDMDL
MODEL 12
REMARK VINA RESULT:    -7.690     18.014     19.690
REMARK INTER + INTRA:          -9.750
REMARK INTER:                  -9.299
REMARK INTRA:                  -0.451
REMARK UNBOUND:                -0.262
REMARK  Name = cpd206.pdb
REMARK  8 active torsions:
REMARK  status: ('A' for Active; 'I' for Inactive)
REMARK    1  A    between atoms: C_1  and  C_2
REMARK    2  A    between atoms: C_2  and  C_3
REMARK    3  A    between atoms: C_8  and  N_9
REMARK    4  A    between atoms: C_10  and  O_12
REMARK    5  A    between atoms: O_12  and  C_13
REMARK    6  A    between atoms: C_19  and  C_20
REMARK    7  A    between atoms: N_23  and  C_24
REMARK    8  A    between atoms: N_27  and  C_28
REMARK                            x       y       z     vdW  Elec       q    Type
REMARK                         _______ _______ _______ _____ _____    ______ ____
ROOT
ATOM      1  C   UNL A   1      46.517 -19.126 -35.495  0.00  0.00    +0.134 A 
ATOM      2  C   UNL A   1      45.789 -20.306 -35.293  0.00  0.00    -0.017 A 
ATOM      3  C   UNL A   1      44.708 -20.317 -34.406  0.00  0.00    -0.037 A 
ATOM      4  C   UNL A   1      44.356 -19.144 -33.752  0.00  0.00    +0.035 A 
ATOM      5  C   UNL A   1      45.092 -17.973 -33.979  0.00  0.00    -0.013 A 
ATOM      6  C   UNL A   1      46.168 -17.938 -34.856  0.00  0.00    -0.014 A 
ATOM      7  C   UNL A   1      44.538 -16.864 -33.122  0.00  0.00    +0.041 C 
ATOM      8  C   UNL A   1      45.445 -16.675 -31.894  0.00  0.00    -0.051 C 
ATOM      9  C   UNL A   1      44.333 -15.542 -33.872  0.00  0.00    -0.025 C 
ATOM     10  C   UNL A   1      43.108 -14.839 -33.301  0.00  0.00    +0.025 C 
ATOM     11  N   UNL A   1      41.900 -15.602 -33.616  0.00  0.00    -0.189 NA
ATOM     12  C   UNL A   1      40.781 -15.301 -32.735  0.00  0.00    +0.013 C 
ATOM     13  O   UNL A   1      42.107 -17.051 -33.575  0.00  0.00    -0.274 OA
ATOM     14  C   UNL A   1      43.173 -17.493 -32.705  0.00  0.00    +0.155 C 
ATOM     15  N   UNL A   1      43.334 -18.963 -32.804  0.00  0.00    -0.305 N 
ATOM     16  C   UNL A   1      42.141 -19.779 -32.916  0.00  0.00    +0.003 C 
ENDROOT
BRANCH   1  17
ATOM     17  O   UNL A   1      47.559 -19.171 -36.435  0.00  0.00    -0.411 OA
BRANCH  17  19
ATOM     18  N   UNL A   1      46.924 -20.610 -38.025  0.00  0.00    -0.251 N 
ATOM     19  C   UNL A   1      47.210 -19.291 -37.779  0.00  0.00    +0.410 C 
ATOM     20  O   UNL A   1      47.222 -18.371 -38.584  0.00  0.00    -0.226 OA
ATOM     21  H   UNL A   1      46.994 -21.217 -37.253  0.00  0.00    +0.000 HD
BRANCH  18  27
ATOM     22  C   UNL A   1      45.320 -21.000 -39.919  0.00  0.00    -0.026 A 
ATOM     23  C   UNL A   1      45.158 -21.594 -41.189  0.00  0.00    -0.057 A 
ATOM     24  C   UNL A   1      46.126 -22.439 -41.733  0.00  0.00    -0.061 A 
ATOM     25  C   UNL A   1      47.282 -22.710 -41.018  0.00  0.00    -0.060 A 
ATOM     26  C   UNL A   1      47.485 -22.101 -39.782  0.00  0.00    -0.040 A 
ATOM     27  C   UNL A   1      46.543 -21.205 -39.244  0.00  0.00    +0.040 A 
BRANCH  22  29
ATOM     28  C   UNL A   1      43.170 -21.022 -38.495  0.00  0.00    -0.061 C 
ATOM     29  C   UNL A   1      44.163 -20.214 -39.330  0.00  0.00    -0.029 C 
ENDBRANCH  22  29
ENDBRANCH  18  27
ENDBRANCH  17  19
ENDBRANCH   1  17
TORSDOF 4
ENDMDL
MODEL 13
REMARK VINA RESULT:    -7.526     16.483     18.124
REMARK INTER + INTRA:          -9.548
REMARK INTER:                  -8.557
REMARK INTRA:                  -0.991
REMARK UNBOUND:                -0.262
REMARK  Name = cpd206.pdb
REMARK  8 active torsions:
REMARK  status: ('A' for Active; 'I' for Inactive)
REMARK    1  A    between atoms: C_1  and  C_2
REMARK    2  A    between atoms: C_2  and  C_3
REMARK    3  A    between atoms: C_8  and  N_9
REMARK    4  A    between atoms: C_10  and  O_12
REMARK    5  A    between atoms: O_12  and  C_13
REMARK    6  A    between atoms: C_19  and  C_20
REMARK    7  A    between atoms: N_23  and  C_24
REMARK    8  A    between atoms: N_27  and  C_28
REMARK                            x       y       z     vdW  Elec       q    Type
REMARK                         _______ _______ _______ _____ _____    ______ ____
ROOT
ATOM      1  C   UNL A   1      42.219 -18.587 -38.429  0.00  0.00    +0.134 A 
ATOM      2  C   UNL A   1      43.103 -18.072 -37.473  0.00  0.00    -0.017 A 
ATOM      3  C   UNL A   1      42.895 -18.332 -36.115  0.00  0.00    -0.037 A 
ATOM      4  C   UNL A   1      41.820 -19.124 -35.734  0.00  0.00    +0.035 A 
ATOM      5  C   UNL A   1      40.954 -19.639 -36.710  0.00  0.00    -0.013 A 
ATOM      6  C   UNL A   1      41.142 -19.393 -38.063  0.00  0.00    -0.014 A 
ATOM      7  C   UNL A   1      39.855 -20.419 -36.037  0.00  0.00    +0.041 C 
ATOM      8  C   UNL A   1      38.583 -19.557 -35.988  0.00  0.00    -0.051 C 
ATOM      9  C   UNL A   1      39.579 -21.784 -36.680  0.00  0.00    -0.025 C 
ATOM     10  C   UNL A   1      39.173 -22.767 -35.589  0.00  0.00    +0.025 C 
ATOM     11  N   UNL A   1      40.308 -23.029 -34.703  0.00  0.00    -0.189 NA
ATOM     12  C   UNL A   1      39.916 -23.540 -33.397  0.00  0.00    +0.013 C 
ATOM     13  O   UNL A   1      41.144 -21.849 -34.474  0.00  0.00    -0.274 OA
ATOM     14  C   UNL A   1      40.465 -20.581 -34.611  0.00  0.00    +0.155 C 
ATOM     15  N   UNL A   1      41.424 -19.467 -34.429  0.00  0.00    -0.305 N 
ATOM     16  C   UNL A   1      42.452 -19.603 -33.415  0.00  0.00    +0.003 C 
ENDROOT
BRANCH   1  17
ATOM     17  O   UNL A   1      42.513 -18.328 -39.777  0.00  0.00    -0.411 OA
BRANCH  17  19
ATOM     18  N   UNL A   1      43.682 -20.142 -40.362  0.00  0.00    -0.251 N 
ATOM     19  C   UNL A   1      43.739 -18.775 -40.266  0.00  0.00    +0.410 C 
ATOM     20  O   UNL A   1      44.697 -18.053 -40.504  0.00  0.00    -0.226 OA
ATOM     21  H   UNL A   1      42.829 -20.557 -40.099  0.00  0.00    +0.000 HD
BRANCH  18  27
ATOM     22  C   UNL A   1      45.736 -21.541 -39.990  0.00  0.00    -0.026 A 
ATOM     23  C   UNL A   1      46.593 -22.506 -40.561  0.00  0.00    -0.057 A 
ATOM     24  C   UNL A   1      46.486 -22.882 -41.900  0.00  0.00    -0.061 A 
ATOM     25  C   UNL A   1      45.518 -22.299 -42.703  0.00  0.00    -0.060 A 
ATOM     26  C   UNL A   1      44.631 -21.376 -42.151  0.00  0.00    -0.040 A 
ATOM     27  C   UNL A   1      44.692 -21.027 -40.789  0.00  0.00    +0.040 A 
BRANCH  22  29
ATOM     28  C   UNL A   1      46.942 -19.876 -38.433  0.00  0.00    -0.061 C 
ATOM     29  C   UNL A   1      46.007 -21.076 -38.571  0.00  0.00    -0.029 C 
ENDBRANCH  22  29
ENDBRANCH  18  27
ENDBRANCH  17  19
ENDBRANCH   1  17
TORSDOF 4
ENDMDL
MODEL 14
REMARK VINA RESULT:    -7.417     16.987     19.505
REMARK INTER + INTRA:          -9.413
REMARK INTER:                  -8.519
REMARK INTRA:                  -0.894
REMARK UNBOUND:                -0.262
REMARK  Name = cpd206.pdb
REMARK  8 active torsions:
REMARK  status: ('A' for Active; 'I' for Inactive)
REMARK    1  A    between atoms: C_1  and  C_2
REMARK    2  A    between atoms: C_2  and  C_3
REMARK    3  A    between atoms: C_8  and  N_9
REMARK    4  A    between atoms: C_10  and  O_12
REMARK    5  A    between atoms: O_12  and  C_13
REMARK    6  A    between atoms: C_19  and  C_20
REMARK    7  A    between atoms: N_23  and  C_24
REMARK    8  A    between atoms: N_27  and  C_28
REMARK                            x       y       z     vdW  Elec       q    Type
REMARK                         _______ _______ _______ _____ _____    ______ ____
ROOT
ATOM      1  C   UNL A   1      45.499 -19.227 -35.260  0.00  0.00    +0.134 A 
ATOM      2  C   UNL A   1      46.000 -17.930 -35.432  0.00  0.00    -0.017 A 
ATOM      3  C   UNL A   1      46.399 -17.497 -36.700  0.00  0.00    -0.037 A 
ATOM      4  C   UNL A   1      46.269 -18.357 -37.781  0.00  0.00    +0.035 A 
ATOM      5  C   UNL A   1      45.755 -19.647 -37.587  0.00  0.00    -0.013 A 
ATOM      6  C   UNL A   1      45.352 -20.098 -36.337  0.00  0.00    -0.014 A 
ATOM      7  C   UNL A   1      45.761 -20.387 -38.899  0.00  0.00    +0.041 C 
ATOM      8  C   UNL A   1      46.964 -21.345 -38.932  0.00  0.00    -0.051 C 
ATOM      9  C   UNL A   1      44.451 -21.126 -39.202  0.00  0.00    -0.025 C 
ATOM     10  C   UNL A   1      44.205 -21.094 -40.705  0.00  0.00    +0.025 C 
ATOM     11  N   UNL A   1      43.933 -19.723 -41.139  0.00  0.00    -0.189 NA
ATOM     12  C   UNL A   1      44.166 -19.510 -42.560  0.00  0.00    +0.013 C 
ATOM     13  O   UNL A   1      44.720 -18.723 -40.415  0.00  0.00    -0.274 OA
ATOM     14  C   UNL A   1      45.977 -19.199 -39.886  0.00  0.00    +0.155 C 
ATOM     15  N   UNL A   1      46.646 -18.123 -39.116  0.00  0.00    -0.305 N 
ATOM     16  C   UNL A   1      46.569 -16.767 -39.622  0.00  0.00    +0.003 C 
ENDROOT
BRANCH   1  17
ATOM     17  O   UNL A   1      45.072 -19.581 -33.969  0.00  0.00    -0.411 OA
BRANCH  17  19
ATOM     18  N   UNL A   1      43.151 -20.724 -33.921  0.00  0.00    -0.251 N 
ATOM     19  C   UNL A   1      43.709 -19.491 -33.696  0.00  0.00    +0.410 C 
ATOM     20  O   UNL A   1      43.132 -18.463 -33.369  0.00  0.00    -0.226 OA
ATOM     21  H   UNL A   1      43.772 -21.432 -34.207  0.00  0.00    +0.000 HD
BRANCH  18  27
ATOM     22  C   UNL A   1      40.906 -21.357 -34.856  0.00  0.00    -0.026 A 
ATOM     23  C   UNL A   1      39.618 -21.837 -34.538  0.00  0.00    -0.057 A 
ATOM     24  C   UNL A   1      39.191 -21.973 -33.216  0.00  0.00    -0.061 A 
ATOM     25  C   UNL A   1      40.045 -21.630 -32.180  0.00  0.00    -0.060 A 
ATOM     26  C   UNL A   1      41.337 -21.195 -32.467  0.00  0.00    -0.040 A 
ATOM     27  C   UNL A   1      41.800 -21.104 -33.793  0.00  0.00    +0.040 A 
BRANCH  22  29
ATOM     28  C   UNL A   1      41.378 -22.336 -37.195  0.00  0.00    -0.061 C 
ATOM     29  C   UNL A   1      41.246 -21.096 -36.312  0.00  0.00    -0.029 C 
ENDBRANCH  22  29
ENDBRANCH  18  27
ENDBRANCH  17  19
ENDBRANCH   1  17
TORSDOF 4
ENDMDL
MODEL 15
REMARK VINA RESULT:    -7.406      2.266      3.722
REMARK INTER + INTRA:          -9.400
REMARK INTER:                  -9.017
REMARK INTRA:                  -0.383
REMARK UNBOUND:                -0.262
REMARK  Name = cpd206.pdb
REMARK  8 active torsions:
REMARK  status: ('A' for Active; 'I' for Inactive)
REMARK    1  A    between atoms: C_1  and  C_2
REMARK    2  A    between atoms: C_2  and  C_3
REMARK    3  A    between atoms: C_8  and  N_9
REMARK    4  A    between atoms: C_10  and  O_12
REMARK    5  A    between atoms: O_12  and  C_13
REMARK    6  A    between atoms: C_19  and  C_20
REMARK    7  A    between atoms: N_23  and  C_24
REMARK    8  A    between atoms: N_27  and  C_28
REMARK                            x       y       z     vdW  Elec       q    Type
REMARK                         _______ _______ _______ _____ _____    ______ ____
ROOT
ATOM      1  C   UNL A   1      33.682 -34.906 -30.837  0.00  0.00    +0.134 A 
ATOM      2  C   UNL A   1      33.333 -35.757 -29.780  0.00  0.00    -0.017 A 
ATOM      3  C   UNL A   1      32.240 -35.447 -28.965  0.00  0.00    -0.037 A 
ATOM      4  C   UNL A   1      31.497 -34.306 -29.233  0.00  0.00    +0.035 A 
ATOM      5  C   UNL A   1      31.859 -33.476 -30.304  0.00  0.00    -0.013 A 
ATOM      6  C   UNL A   1      32.940 -33.764 -31.126  0.00  0.00    -0.014 A 
ATOM      7  C   UNL A   1      30.928 -32.292 -30.350  0.00  0.00    +0.041 C 
ATOM      8  C   UNL A   1      31.634 -31.071 -29.735  0.00  0.00    -0.051 C 
ATOM      9  C   UNL A   1      30.392 -31.977 -31.753  0.00  0.00    -0.025 C 
ATOM     10  C   UNL A   1      28.970 -31.445 -31.627  0.00  0.00    +0.025 C 
ATOM     11  N   UNL A   1      28.079 -32.504 -31.149  0.00  0.00    -0.189 NA
ATOM     12  C   UNL A   1      26.855 -32.000 -30.544  0.00  0.00    +0.013 C 
ATOM     13  O   UNL A   1      28.713 -33.392 -30.171  0.00  0.00    -0.274 OA
ATOM     14  C   UNL A   1      29.789 -32.798 -29.412  0.00  0.00    +0.155 C 
ATOM     15  N   UNL A   1      30.396 -33.808 -28.514  0.00  0.00    -0.305 N 
ATOM     16  C   UNL A   1      29.520 -34.759 -27.857  0.00  0.00    +0.003 C 
ENDROOT
BRANCH   1  17
ATOM     17  O   UNL A   1      34.761 -35.301 -31.645  0.00  0.00    -0.411 OA
BRANCH  17  19
ATOM     18  N   UNL A   1      36.464 -36.555 -30.917  0.00  0.00    -0.251 N 
ATOM     19  C   UNL A   1      36.035 -35.262 -31.082  0.00  0.00    +0.410 C 
ATOM     20  O   UNL A   1      36.617 -34.238 -30.753  0.00  0.00    -0.226 OA
ATOM     21  H   UNL A   1      35.843 -37.256 -31.220  0.00  0.00    +0.000 HD
BRANCH  18  27
ATOM     22  C   UNL A   1      38.971 -36.696 -30.851  0.00  0.00    -0.026 A 
ATOM     23  C   UNL A   1      40.082 -37.145 -30.105  0.00  0.00    -0.057 A 
ATOM     24  C   UNL A   1      39.930 -37.950 -28.976  0.00  0.00    -0.061 A 
ATOM     25  C   UNL A   1      38.661 -38.327 -28.566  0.00  0.00    -0.060 A 
ATOM     26  C   UNL A   1      37.547 -37.860 -29.260  0.00  0.00    -0.040 A 
ATOM     27  C   UNL A   1      37.681 -37.004 -30.369  0.00  0.00    +0.040 A 
BRANCH  22  29
ATOM     28  C   UNL A   1      40.673 -35.909 -32.622  0.00  0.00    -0.061 C 
ATOM     29  C   UNL A   1      39.221 -35.949 -32.149  0.00  0.00    -0.029 C 
ENDBRANCH  22  29
ENDBRANCH  18  27
ENDBRANCH  17  19
ENDBRANCH   1  17
TORSDOF 4
ENDMDL
MODEL 16
REMARK VINA RESULT:    -7.305     15.935     17.652
REMARK INTER + INTRA:          -9.275
REMARK INTER:                  -8.179
REMARK INTRA:                  -1.097
REMARK UNBOUND:                -0.262
REMARK  Name = cpd206.pdb
REMARK  8 active torsions:
REMARK  status: ('A' for Active; 'I' for Inactive)
REMARK    1  A    between atoms: C_1  and  C_2
REMARK    2  A    between atoms: C_2  and  C_3
REMARK    3  A    between atoms: C_8  and  N_9
REMARK    4  A    between atoms: C_10  and  O_12
REMARK    5  A    between atoms: O_12  and  C_13
REMARK    6  A    between atoms: C_19  and  C_20
REMARK    7  A    between atoms: N_23  and  C_24
REMARK    8  A    between atoms: N_27  and  C_28
REMARK                            x       y       z     vdW  Elec       q    Type
REMARK                         _______ _______ _______ _____ _____    ______ ____
ROOT
ATOM      1  C   UNL A   1      40.656 -22.373 -36.698  0.00  0.00    +0.134 A 
ATOM      2  C   UNL A   1      39.562 -23.098 -36.208  0.00  0.00    -0.017 A 
ATOM      3  C   UNL A   1      38.923 -22.691 -35.033  0.00  0.00    -0.037 A 
ATOM      4  C   UNL A   1      39.371 -21.552 -34.378  0.00  0.00    +0.035 A 
ATOM      5  C   UNL A   1      40.462 -20.836 -34.893  0.00  0.00    -0.013 A 
ATOM      6  C   UNL A   1      41.110 -21.222 -36.058  0.00  0.00    -0.014 A 
ATOM      7  C   UNL A   1      40.773 -19.680 -33.978  0.00  0.00    +0.041 C 
ATOM      8  C   UNL A   1      41.985 -20.043 -33.102  0.00  0.00    -0.051 C 
ATOM      9  C   UNL A   1      40.993 -18.351 -34.710  0.00  0.00    -0.025 C 
ATOM     10  C   UNL A   1      40.472 -17.217 -33.835  0.00  0.00    +0.025 C 
ATOM     11  N   UNL A   1      39.016 -17.305 -33.716  0.00  0.00    -0.189 NA
ATOM     12  C   UNL A   1      38.488 -16.604 -32.554  0.00  0.00    +0.013 C 
ATOM     13  O   UNL A   1      38.527 -18.684 -33.650  0.00  0.00    -0.274 OA
ATOM     14  C   UNL A   1      39.469 -19.644 -33.124  0.00  0.00    +0.155 C 
ATOM     15  N   UNL A   1      38.890 -21.007 -33.174  0.00  0.00    -0.305 N 
ATOM     16  C   UNL A   1      37.482 -21.168 -32.864  0.00  0.00    +0.003 C 
ENDROOT
BRANCH   1  17
ATOM     17  O   UNL A   1      41.221 -22.808 -37.908  0.00  0.00    -0.411 OA
BRANCH  17  19
ATOM     18  N   UNL A   1      42.612 -21.669 -39.238  0.00  0.00    -0.251 N 
ATOM     19  C   UNL A   1      41.288 -21.890 -38.954  0.00  0.00    +0.410 C 
ATOM     20  O   UNL A   1      40.318 -21.351 -39.468  0.00  0.00    -0.226 OA
ATOM     21  H   UNL A   1      43.259 -22.177 -38.697  0.00  0.00    +0.000 HD
BRANCH  18  27
ATOM     22  C   UNL A   1      43.488 -19.446 -40.013  0.00  0.00    -0.026 A 
ATOM     23  C   UNL A   1      44.136 -18.765 -41.066  0.00  0.00    -0.057 A 
ATOM     24  C   UNL A   1      44.368 -19.374 -42.300  0.00  0.00    -0.061 A 
ATOM     25  C   UNL A   1      43.956 -20.680 -42.511  0.00  0.00    -0.060 A 
ATOM     26  C   UNL A   1      43.354 -21.387 -41.473  0.00  0.00    -0.040 A 
ATOM     27  C   UNL A   1      43.161 -20.805 -40.206  0.00  0.00    +0.040 A 
BRANCH  22  29
ATOM     28  C   UNL A   1      41.696 -18.177 -38.660  0.00  0.00    -0.061 C 
ATOM     29  C   UNL A   1      43.139 -18.673 -38.754  0.00  0.00    -0.029 C 
ENDBRANCH  22  29
ENDBRANCH  18  27
ENDBRANCH  17  19
ENDBRANCH   1  17
TORSDOF 4
ENDMDL
MODEL 17
REMARK VINA RESULT:    -7.250     16.623     19.546
REMARK INTER + INTRA:          -9.207
REMARK INTER:                  -8.350
REMARK INTRA:                  -0.858
REMARK UNBOUND:                -0.262
REMARK  Name = cpd206.pdb
REMARK  8 active torsions:
REMARK  status: ('A' for Active; 'I' for Inactive)
REMARK    1  A    between atoms: C_1  and  C_2
REMARK    2  A    between atoms: C_2  and  C_3
REMARK    3  A    between atoms: C_8  and  N_9
REMARK    4  A    between atoms: C_10  and  O_12
REMARK    5  A    between atoms: O_12  and  C_13
REMARK    6  A    between atoms: C_19  and  C_20
REMARK    7  A    between atoms: N_23  and  C_24
REMARK    8  A    between atoms: N_27  and  C_28
REMARK                            x       y       z     vdW  Elec       q    Type
REMARK                         _______ _______ _______ _____ _____    ______ ____
ROOT
ATOM      1  C   UNL A   1      43.734 -19.552 -38.188  0.00  0.00    +0.134 A 
ATOM      2  C   UNL A   1      42.644 -19.900 -38.996  0.00  0.00    -0.017 A 
ATOM      3  C   UNL A   1      42.860 -20.431 -40.271  0.00  0.00    -0.037 A 
ATOM      4  C   UNL A   1      44.161 -20.630 -40.711  0.00  0.00    +0.035 A 
ATOM      5  C   UNL A   1      45.237 -20.285 -39.880  0.00  0.00    -0.013 A 
ATOM      6  C   UNL A   1      45.046 -19.757 -38.610  0.00  0.00    -0.014 A 
ATOM      7  C   UNL A   1      46.530 -20.555 -40.604  0.00  0.00    +0.041 C 
ATOM      8  C   UNL A   1      47.091 -19.229 -41.145  0.00  0.00    -0.051 C 
ATOM      9  C   UNL A   1      47.573 -21.297 -39.758  0.00  0.00    -0.025 C 
ATOM     10  C   UNL A   1      48.378 -22.217 -40.668  0.00  0.00    +0.025 C 
ATOM     11  N   UNL A   1      47.523 -23.290 -41.177  0.00  0.00    -0.189 NA
ATOM     12  C   UNL A   1      48.035 -23.910 -42.391  0.00  0.00    +0.013 C 
ATOM     13  O   UNL A   1      46.154 -22.853 -41.457  0.00  0.00    -0.274 OA
ATOM     14  C   UNL A   1      46.012 -21.450 -41.772  0.00  0.00    +0.155 C 
ATOM     15  N   UNL A   1      44.582 -21.113 -41.962  0.00  0.00    -0.305 N 
ATOM     16  C   UNL A   1      43.735 -22.071 -42.647  0.00  0.00    +0.003 C 
ENDROOT
BRANCH   1  17
ATOM     17  O   UNL A   1      43.447 -19.069 -36.901  0.00  0.00    -0.411 OA
BRANCH  17  19
ATOM     18  N   UNL A   1      41.593 -19.403 -35.696  0.00  0.00    -0.251 N 
ATOM     19  C   UNL A   1      42.816 -19.938 -36.013  0.00  0.00    +0.410 C 
ATOM     20  O   UNL A   1      43.316 -20.963 -35.570  0.00  0.00    -0.226 OA
ATOM     21  H   UNL A   1      41.370 -18.550 -36.133  0.00  0.00    +0.000 HD
BRANCH  18  27
ATOM     22  C   UNL A   1      39.556 -20.780 -35.180  0.00  0.00    -0.026 A 
ATOM     23  C   UNL A   1      38.740 -21.290 -34.147  0.00  0.00    -0.057 A 
ATOM     24  C   UNL A   1      38.902 -20.892 -32.820  0.00  0.00    -0.061 A 
ATOM     25  C   UNL A   1      39.886 -19.973 -32.492  0.00  0.00    -0.060 A 
ATOM     26  C   UNL A   1      40.734 -19.489 -33.487  0.00  0.00    -0.040 A 
ATOM     27  C   UNL A   1      40.617 -19.921 -34.821  0.00  0.00    +0.040 A 
BRANCH  22  29
ATOM     28  C   UNL A   1      40.046 -22.285 -37.216  0.00  0.00    -0.061 C 
ATOM     29  C   UNL A   1      39.225 -21.144 -36.615  0.00  0.00    -0.029 C 
ENDBRANCH  22  29
ENDBRANCH  18  27
ENDBRANCH  17  19
ENDBRANCH   1  17
TORSDOF 4
ENDMDL
MODEL 18
REMARK VINA RESULT:    -7.178     16.027     17.664
REMARK INTER + INTRA:          -9.119
REMARK INTER:                  -8.504
REMARK INTRA:                  -0.615
REMARK UNBOUND:                -0.262
REMARK  Name = cpd206.pdb
REMARK  8 active torsions:
REMARK  status: ('A' for Active; 'I' for Inactive)
REMARK    1  A    between atoms: C_1  and  C_2
REMARK    2  A    between atoms: C_2  and  C_3
REMARK    3  A    between atoms: C_8  and  N_9
REMARK    4  A    between atoms: C_10  and  O_12
REMARK    5  A    between atoms: O_12  and  C_13
REMARK    6  A    between atoms: C_19  and  C_20
REMARK    7  A    between atoms: N_23  and  C_24
REMARK    8  A    between atoms: N_27  and  C_28
REMARK                            x       y       z     vdW  Elec       q    Type
REMARK                         _______ _______ _______ _____ _____    ______ ____
ROOT
ATOM      1  C   UNL A   1      43.516 -19.924 -36.114  0.00  0.00    +0.134 A 
ATOM      2  C   UNL A   1      43.370 -18.651 -35.546  0.00  0.00    -0.017 A 
ATOM      3  C   UNL A   1      42.118 -18.229 -35.089  0.00  0.00    -0.037 A 
ATOM      4  C   UNL A   1      41.036 -19.094 -35.182  0.00  0.00    +0.035 A 
ATOM      5  C   UNL A   1      41.209 -20.367 -35.744  0.00  0.00    -0.013 A 
ATOM      6  C   UNL A   1      42.443 -20.807 -36.204  0.00  0.00    -0.014 A 
ATOM      7  C   UNL A   1      39.884 -21.082 -35.770  0.00  0.00    +0.041 C 
ATOM      8  C   UNL A   1      39.301 -21.013 -37.192  0.00  0.00    -0.051 C 
ATOM      9  C   UNL A   1      39.948 -22.529 -35.264  0.00  0.00    -0.025 C 
ATOM     10  C   UNL A   1      38.642 -22.858 -34.551  0.00  0.00    +0.025 C 
ATOM     11  N   UNL A   1      38.530 -22.070 -33.323  0.00  0.00    -0.189 NA
ATOM     12  C   UNL A   1      37.162 -21.939 -32.843  0.00  0.00    +0.013 C 
ATOM     13  O   UNL A   1      39.074 -20.717 -33.455  0.00  0.00    -0.274 OA
ATOM     14  C   UNL A   1      39.063 -20.181 -34.796  0.00  0.00    +0.155 C 
ATOM     15  N   UNL A   1      39.702 -18.844 -34.816  0.00  0.00    -0.305 N 
ATOM     16  C   UNL A   1      39.453 -17.947 -33.704  0.00  0.00    +0.003 C 
ENDROOT
BRANCH   1  17
ATOM     17  O   UNL A   1      44.810 -20.303 -36.509  0.00  0.00    -0.411 OA
BRANCH  17  19
ATOM     18  N   UNL A   1      44.785 -21.123 -38.589  0.00  0.00    -0.251 N 
ATOM     19  C   UNL A   1      45.179 -20.051 -37.829  0.00  0.00    +0.410 C 
ATOM     20  O   UNL A   1      45.797 -19.064 -38.201  0.00  0.00    -0.226 OA
ATOM     21  H   UNL A   1      44.319 -21.844 -38.108  0.00  0.00    +0.000 HD
BRANCH  18  27
ATOM     22  C   UNL A   1      46.082 -21.923 -40.587  0.00  0.00    -0.026 A 
ATOM     23  C   UNL A   1      46.037 -22.138 -41.981  0.00  0.00    -0.057 A 
ATOM     24  C   UNL A   1      44.968 -21.690 -42.758  0.00  0.00    -0.061 A 
ATOM     25  C   UNL A   1      43.918 -21.013 -42.158  0.00  0.00    -0.060 A 
ATOM     26  C   UNL A   1      43.919 -20.827 -40.777  0.00  0.00    -0.040 A 
ATOM     27  C   UNL A   1      44.963 -21.320 -39.973  0.00  0.00    +0.040 A 
BRANCH  22  29
ATOM     28  C   UNL A   1      48.605 -22.450 -40.680  0.00  0.00    -0.061 C 
ATOM     29  C   UNL A   1      47.342 -22.307 -39.832  0.00  0.00    -0.029 C 
ENDBRANCH  22  29
ENDBRANCH  18  27
ENDBRANCH  17  19
ENDBRANCH   1  17
TORSDOF 4
ENDMDL
MODEL 19
REMARK VINA RESULT:    -7.140      3.131      7.921
REMARK INTER + INTRA:          -9.072
REMARK INTER:                  -7.937
REMARK INTRA:                  -1.135
REMARK UNBOUND:                -0.262
REMARK  Name = cpd206.pdb
REMARK  8 active torsions:
REMARK  status: ('A' for Active; 'I' for Inactive)
REMARK    1  A    between atoms: C_1  and  C_2
REMARK    2  A    between atoms: C_2  and  C_3
REMARK    3  A    between atoms: C_8  and  N_9
REMARK    4  A    between atoms: C_10  and  O_12
REMARK    5  A    between atoms: O_12  and  C_13
REMARK    6  A    between atoms: C_19  and  C_20
REMARK    7  A    between atoms: N_23  and  C_24
REMARK    8  A    between atoms: N_27  and  C_28
REMARK                            x       y       z     vdW  Elec       q    Type
REMARK                         _______ _______ _______ _____ _____    ______ ____
ROOT
ATOM      1  C   UNL A   1      35.322 -34.957 -30.631  0.00  0.00    +0.134 A 
ATOM      2  C   UNL A   1      36.707 -35.163 -30.678  0.00  0.00    -0.017 A 
ATOM      3  C   UNL A   1      37.294 -36.149 -29.878  0.00  0.00    -0.037 A 
ATOM      4  C   UNL A   1      36.486 -36.930 -29.063  0.00  0.00    +0.035 A 
ATOM      5  C   UNL A   1      35.101 -36.712 -29.042  0.00  0.00    -0.013 A 
ATOM      6  C   UNL A   1      34.497 -35.740 -29.827  0.00  0.00    -0.014 A 
ATOM      7  C   UNL A   1      34.466 -37.652 -28.050  0.00  0.00    +0.041 C 
ATOM      8  C   UNL A   1      34.166 -36.886 -26.750  0.00  0.00    -0.051 C 
ATOM      9  C   UNL A   1      33.214 -38.361 -28.580  0.00  0.00    -0.025 C 
ATOM     10  C   UNL A   1      33.153 -39.761 -27.982  0.00  0.00    +0.025 C 
ATOM     11  N   UNL A   1      34.253 -40.576 -28.499  0.00  0.00    -0.189 NA
ATOM     12  C   UNL A   1      34.571 -41.719 -27.657  0.00  0.00    +0.013 C 
ATOM     13  O   UNL A   1      35.492 -39.817 -28.688  0.00  0.00    -0.274 OA
ATOM     14  C   UNL A   1      35.636 -38.660 -27.835  0.00  0.00    +0.155 C 
ATOM     15  N   UNL A   1      36.887 -37.937 -28.167  0.00  0.00    -0.305 N 
ATOM     16  C   UNL A   1      38.065 -38.715 -28.493  0.00  0.00    +0.003 C 
ENDROOT
BRANCH   1  17
ATOM     17  O   UNL A   1      34.792 -33.984 -31.495  0.00  0.00    -0.411 OA
BRANCH  17  19
ATOM     18  N   UNL A   1      33.338 -32.686 -30.400  0.00  0.00    -0.251 N 
ATOM     19  C   UNL A   1      33.443 -33.665 -31.354  0.00  0.00    +0.410 C 
ATOM     20  O   UNL A   1      32.533 -34.221 -31.952  0.00  0.00    -0.226 OA
ATOM     21  H   UNL A   1      34.184 -32.376 -30.005  0.00  0.00    +0.000 HD
BRANCH  18  27
ATOM     22  C   UNL A   1      31.456 -32.438 -28.753  0.00  0.00    -0.026 A 
ATOM     23  C   UNL A   1      30.368 -31.631 -28.358  0.00  0.00    -0.057 A 
ATOM     24  C   UNL A   1      29.937 -30.551 -29.130  0.00  0.00    -0.061 A 
ATOM     25  C   UNL A   1      30.584 -30.254 -30.318  0.00  0.00    -0.060 A 
ATOM     26  C   UNL A   1      31.689 -31.009 -30.708  0.00  0.00    -0.040 A 
ATOM     27  C   UNL A   1      32.169 -32.067 -29.914  0.00  0.00    +0.040 A 
BRANCH  22  29
ATOM     28  C   UNL A   1      31.194 -34.989 -28.478  0.00  0.00    -0.061 C 
ATOM     29  C   UNL A   1      31.773 -33.681 -27.941  0.00  0.00    -0.029 C 
ENDBRANCH  22  29
ENDBRANCH  18  27
ENDBRANCH  17  19
ENDBRANCH   1  17
TORSDOF 4
ENDMDL
MODEL 20
REMARK VINA RESULT:    -7.042     17.086     19.533
REMARK INTER + INTRA:          -8.950
REMARK INTER:                  -8.245
REMARK INTRA:                  -0.706
REMARK UNBOUND:                -0.262
REMARK  Name = cpd206.pdb
REMARK  8 active torsions:
REMARK  status: ('A' for Active; 'I' for Inactive)
REMARK    1  A    between atoms: C_1  and  C_2
REMARK    2  A    between atoms: C_2  and  C_3
REMARK    3  A    between atoms: C_8  and  N_9
REMARK    4  A    between atoms: C_10  and  O_12
REMARK    5  A    between atoms: O_12  and  C_13
REMARK    6  A    between atoms: C_19  and  C_20
REMARK    7  A    between atoms: N_23  and  C_24
REMARK    8  A    between atoms: N_27  and  C_28
REMARK                            x       y       z     vdW  Elec       q    Type
REMARK                         _______ _______ _______ _____ _____    ______ ____
ROOT
ATOM      1  C   UNL A   1      44.172 -18.435 -33.670  0.00  0.00    +0.134 A 
ATOM      2  C   UNL A   1      43.945 -17.055 -33.757  0.00  0.00    -0.017 A 
ATOM      3  C   UNL A   1      44.633 -16.291 -34.705  0.00  0.00    -0.037 A 
ATOM      4  C   UNL A   1      45.520 -16.921 -35.567  0.00  0.00    +0.035 A 
ATOM      5  C   UNL A   1      45.723 -18.305 -35.469  0.00  0.00    -0.013 A 
ATOM      6  C   UNL A   1      45.050 -19.083 -34.537  0.00  0.00    -0.014 A 
ATOM      7  C   UNL A   1      46.757 -18.728 -36.479  0.00  0.00    +0.041 C 
ATOM      8  C   UNL A   1      48.107 -18.921 -35.767  0.00  0.00    -0.051 C 
ATOM      9  C   UNL A   1      46.368 -19.975 -37.282  0.00  0.00    -0.025 C 
ATOM     10  C   UNL A   1      46.927 -19.844 -38.694  0.00  0.00    +0.025 C 
ATOM     11  N   UNL A   1      46.250 -18.756 -39.401  0.00  0.00    -0.189 NA
ATOM     12  C   UNL A   1      47.010 -18.239 -40.530  0.00  0.00    +0.013 C 
ATOM     13  O   UNL A   1      45.930 -17.618 -38.536  0.00  0.00    -0.274 OA
ATOM     14  C   UNL A   1      46.792 -17.461 -37.388  0.00  0.00    +0.155 C 
ATOM     15  N   UNL A   1      46.327 -16.327 -36.554  0.00  0.00    -0.305 N 
ATOM     16  C   UNL A   1      45.831 -15.140 -37.222  0.00  0.00    +0.003 C 
ENDROOT
BRANCH   1  17
ATOM     17  O   UNL A   1      43.412 -19.149 -32.730  0.00  0.00    -0.411 OA
BRANCH  17  19
ATOM     18  N   UNL A   1      42.296 -20.847 -33.663  0.00  0.00    -0.251 N 
ATOM     19  C   UNL A   1      42.152 -19.594 -33.124  0.00  0.00    +0.410 C 
ATOM     20  O   UNL A   1      41.126 -18.933 -33.042  0.00  0.00    -0.226 OA
ATOM     21  H   UNL A   1      43.210 -21.211 -33.668  0.00  0.00    +0.000 HD
BRANCH  18  27
ATOM     22  C   UNL A   1      40.401 -22.488 -33.479  0.00  0.00    -0.026 A 
ATOM     23  C   UNL A   1      39.393 -23.169 -34.193  0.00  0.00    -0.057 A 
ATOM     24  C   UNL A   1      39.327 -23.132 -35.587  0.00  0.00    -0.061 A 
ATOM     25  C   UNL A   1      40.271 -22.411 -36.300  0.00  0.00    -0.060 A 
ATOM     26  C   UNL A   1      41.251 -21.694 -35.616  0.00  0.00    -0.040 A 
ATOM     27  C   UNL A   1      41.298 -21.678 -34.210  0.00  0.00    +0.040 A 
BRANCH  22  29
ATOM     28  C   UNL A   1      41.415 -23.828 -31.523  0.00  0.00    -0.061 C 
ATOM     29  C   UNL A   1      40.497 -22.695 -31.979  0.00  0.00    -0.029 C 
ENDBRANCH  22  29
ENDBRANCH  18  27
ENDBRANCH  17  19
ENDBRANCH   1  17
TORSDOF 4
ENDMDL
