REMARK  Name = cpd149.pdb
REMARK  11 active torsions:
REMARK  status: ('A' for Active; 'I' for Inactive)
REMARK    1  A    between atoms: C_2  and  C_3
REMARK    2  A    between atoms: C_3  and  S_4
REMARK    3  A    between atoms: S_4  and  C_5
REMARK    4  A    between atoms: C_5  and  C_6
REMARK    5  A    between atoms: C_6  and  N_7
REMARK    6  A    between atoms: C_6  and  C_29
REMARK    7  A    between atoms: C_8  and  C_10
REMARK    8  A    between atoms: C_10  and  C_11
REMARK    9  A    between atoms: C_11  and  C_12
REMARK   10  A    between atoms: C_12  and  N_13
REMARK   11  A    between atoms: N_13  and  C_14
REMARK                            x       y       z     vdW  Elec       q    Type
REMARK                         _______ _______ _______ _____ _____    ______ ____
ROOT
ATOM      1  N   UNL A   1      -3.403  -1.716   0.285  0.00  0.00    -0.303 N 
ATOM      2  C   UNL A   1      -4.131  -2.058   1.396  0.00  0.00    +0.214 C 
ATOM      3  O   UNL A   1      -3.772  -2.917   2.194  0.00  0.00    -0.276 OA
ATOM      4  H   UNL A   1      -3.770  -1.048  -0.338  0.00  0.00    +0.000 HD
ENDROOT
BRANCH   1   5
ATOM      5  C   UNL A   1      -2.101  -2.312  -0.003  0.00  0.00    +0.109 C 
BRANCH   5   6
ATOM      6  C   UNL A   1      -1.060  -1.175  -0.022  0.00  0.00    +0.240 C 
ATOM      7  O   UNL A   1      -1.401  -0.025  -0.292  0.00  0.00    -0.273 OA
ATOM      8  N   UNL A   1       0.221  -1.623   0.217  0.00  0.00    -0.263 N 
ATOM      9  C   UNL A   1       1.378  -0.885   0.194  0.00  0.00    +0.165 A 
ATOM     10  N   UNL A   1       2.524  -1.449   0.485  0.00  0.00    -0.225 NA
ATOM     11  C   UNL A   1       3.541  -0.513   0.380  0.00  0.00    +0.080 A 
ATOM     12  C   UNL A   1       4.911  -0.746   0.618  0.00  0.00    -0.035 A 
ATOM     13  C   UNL A   1       5.830   0.299   0.471  0.00  0.00    -0.060 A 
ATOM     14  C   UNL A   1       5.401   1.567   0.090  0.00  0.00    -0.061 A 
ATOM     15  C   UNL A   1       4.048   1.824  -0.152  0.00  0.00    -0.046 A 
ATOM     16  C   UNL A   1       3.135   0.768  -0.001  0.00  0.00    +0.041 A 
ATOM     17  S   UNL A   1       1.429   0.760  -0.224  0.00  0.00    -0.052 S 
ATOM     18  H   UNL A   1       0.317  -2.580   0.428  0.00  0.00    +0.000 HD
ENDBRANCH   5   6
BRANCH   5  19
ATOM     19  C   UNL A   1      -2.072  -3.017  -1.367  0.00  0.00    +0.021 C 
BRANCH  19  20
ATOM     20  S   UNL A   1      -3.330  -4.328  -1.601  0.00  0.00    -0.154 S 
BRANCH  20  21
ATOM     21  C   UNL A   1      -2.830  -5.478  -0.284  0.00  0.00    +0.012 C 
BRANCH  21  23
ATOM     22  C   UNL A   1      -2.998  -7.947  -0.724  0.00  0.00    -0.102 C 
ATOM     23  C   UNL A   1      -3.574  -6.766  -0.462  0.00  0.00    -0.081 C 
ENDBRANCH  21  23
ENDBRANCH  20  21
ENDBRANCH  19  20
ENDBRANCH   5  19
ENDBRANCH   1   5
BRANCH   2  24
ATOM     24  C   UNL A   1      -5.418  -1.282   1.571  0.00  0.00    +0.025 C 
BRANCH  24  25
ATOM     25  C   UNL A   1      -6.350  -1.450   0.374  0.00  0.00    -0.029 C 
BRANCH  25  26
ATOM     26  C   UNL A   1      -7.751  -0.926   0.684  0.00  0.00    +0.010 C 
BRANCH  26  27
ATOM     27  N   UNL A   1      -8.556  -0.976  -0.544  0.00  0.00    -0.343 N 
ATOM     28  H   UNL A   1      -8.225  -1.309  -1.409  0.00  0.00    +0.000 HD
BRANCH  27  29
ATOM     29  C   UNL A   1      -9.877  -0.482  -0.329  0.00  0.00    +0.041 A 
ATOM     30  C   UNL A   1     -10.127   0.890  -0.537  0.00  0.00    -0.005 A 
ATOM     31  C   UNL A   1     -11.417   1.358  -0.288  0.00  0.00    +0.047 A 
ATOM     32  N   UNL A   1     -12.413   0.570   0.181  0.00  0.00    -0.251 NA
ATOM     33  C   UNL A   1     -12.173  -0.729   0.394  0.00  0.00    +0.074 A 
ATOM     34  C   UNL A   1     -13.220  -1.505   0.867  0.00  0.00    -0.017 A 
ATOM     35  C   UNL A   1     -13.058  -2.864   1.120  0.00  0.00    +0.043 A 
ATOM     36 CL   UNL A   1     -14.383  -3.792   1.706  0.00  0.00    -0.083 Cl
ATOM     37  C   UNL A   1     -11.833  -3.474   0.903  0.00  0.00    -0.043 A 
ATOM     38  C   UNL A   1     -10.767  -2.710   0.427  0.00  0.00    -0.049 A 
ATOM     39  C   UNL A   1     -10.915  -1.325   0.162  0.00  0.00    +0.022 A 
ATOM     40  C   UNL A   1     -11.783   2.809  -0.473  0.00  0.00    -0.010 C 
ATOM     41  C   UNL A   1     -10.838   3.554  -1.407  0.00  0.00    -0.047 C 
ATOM     42  C   UNL A   1      -9.396   3.286  -1.004  0.00  0.00    -0.049 C 
ATOM     43  C   UNL A   1      -9.073   1.797  -1.129  0.00  0.00    -0.024 C 
ENDBRANCH  27  29
ENDBRANCH  26  27
ENDBRANCH  25  26
ENDBRANCH  24  25
ENDBRANCH   2  24
TORSDOF 11
