@<TRIPOS>MOLECULE
*****
 9 9 0 0 0
SMALL
GASTEIGER

@<TRIPOS>ATOM
      1 C           1.1248    0.4659    0.0000 C.3     1  UNL1        0.1710
      2 N           0.8660   -0.5000    0.0000 N.4     1  UNL1        0.3120
      3 C           1.6594   -1.1088    0.0000 C.3     1  UNL1        0.1710
      4 C           0.8660   -1.5000    0.0000 C.3     1  UNL1        0.1419
      5 C           0.0000   -2.0000    0.0000 C.3     1  UNL1        0.2057
      6 O          -0.8660   -1.5000    0.0000 O.3     1  UNL1       -0.3177
      7 C          -0.8660   -0.5000    0.0000 C.3     1  UNL1        0.3250
      8 O          -1.7321   -0.0000    0.0000 O.3     1  UNL1       -0.1832
      9 C           0.0000   -0.0000    0.0000 C.3     1  UNL1        0.1744
@<TRIPOS>UNITY_ATOM_ATTR
2 1
charge 1
@<TRIPOS>BOND
     1     1     2    1
     2     2     3    1
     3     2     4    1
     4     4     5    1
     5     5     6    1
     6     6     7    1
     7     7     8    1
     8     7     9    1
     9     2     9    1
