REMARK  Name = cpd221.pdb
REMARK  3 active torsions:
REMARK  status: ('A' for Active; 'I' for Inactive)
REMARK    1  A    between atoms: C_1  and  N_2
REMARK    2  A    between atoms: N_2  and  C_3
REMARK    3  A    between atoms: C_7  and  O_8
REMARK                            x       y       z     vdW  Elec       q    Type
REMARK                         _______ _______ _______ _____ _____    ______ ____
ROOT
ATOM      1  C   UNL     1       1.295   0.148   1.239  0.00  0.00    -0.100 C 
ATOM      2  N   UNL     1       1.216  -0.576  -0.102  0.00  0.00    +0.381 N 
ATOM      3  C   UNL     1       2.569  -0.443  -0.792  0.00  0.00    -0.100 C 
ATOM      4  C   UNL     1       0.883  -2.068   0.090  0.00  0.00    -0.064 C 
ATOM      5  C   UNL     1      -0.579  -2.279   0.510  0.00  0.00    +0.036 C 
ATOM      6  O   UNL     1      -1.497  -1.695  -0.419  0.00  0.00    -0.355 OA
ATOM      7  C   UNL     1      -1.318  -0.289  -0.558  0.00  0.00    +0.142 C 
ATOM      8  C   UNL     1       0.124   0.057  -1.019  0.00  0.00    -0.036 C 
ENDROOT
BRANCH   7   9
ATOM      9  O   UNL     1      -1.638   0.369   0.656  0.00  0.00    -0.369 OA
ATOM     10  H   UNL     1      -1.040   0.064   1.356  0.00  0.00    +0.000 HD
ENDBRANCH   7   9
TORSDOF 1
