MODEL 1
REMARK VINA RESULT:    -4.595      0.000      0.000
REMARK INTER + INTRA:          -4.730
REMARK INTER:                  -4.730
REMARK INTRA:                   0.000
REMARK UNBOUND:                 0.000
REMARK  Name = cpd221.pdb
REMARK  3 active torsions:
REMARK  status: ('A' for Active; 'I' for Inactive)
REMARK    1  A    between atoms: C_1  and  N_2
REMARK    2  A    between atoms: N_2  and  C_3
REMARK    3  A    between atoms: C_7  and  O_8
REMARK                            x       y       z     vdW  Elec       q    Type
REMARK                         _______ _______ _______ _____ _____    ______ ____
ROOT
ATOM      1  C   UNL     1      63.114 -24.202  -6.120  0.00  0.00    -0.100 C 
ATOM      2  N   UNL     1      63.223 -25.046  -7.387  0.00  0.00    +0.381 N 
ATOM      3  C   UNL     1      62.777 -24.189  -8.566  0.00  0.00    -0.100 C 
ATOM      4  C   UNL     1      64.670 -25.521  -7.617  0.00  0.00    -0.064 C 
ATOM      5  C   UNL     1      65.079 -26.615  -6.620  0.00  0.00    +0.036 C 
ATOM      6  O   UNL     1      64.192 -27.737  -6.656  0.00  0.00    -0.355 OA
ATOM      7  C   UNL     1      62.849 -27.385  -6.338  0.00  0.00    +0.142 C 
ATOM      8  C   UNL     1      62.301 -26.302  -7.306  0.00  0.00    -0.036 C 
ENDROOT
BRANCH   7   9
ATOM      9  O   UNL     1      62.760 -26.957  -4.990  0.00  0.00    -0.369 OA
ATOM     10  H   UNL     1      63.627 -26.638  -4.694  0.00  0.00    +0.000 HD
ENDBRANCH   7   9
TORSDOF 1
ENDMDL
MODEL 2
REMARK VINA RESULT:    -4.521     37.534     38.671
REMARK INTER + INTRA:          -4.653
REMARK INTER:                  -4.653
REMARK INTRA:                   0.000
REMARK UNBOUND:                 0.000
REMARK  Name = cpd221.pdb
REMARK  3 active torsions:
REMARK  status: ('A' for Active; 'I' for Inactive)
REMARK    1  A    between atoms: C_1  and  N_2
REMARK    2  A    between atoms: N_2  and  C_3
REMARK    3  A    between atoms: C_7  and  O_8
REMARK                            x       y       z     vdW  Elec       q    Type
REMARK                         _______ _______ _______ _____ _____    ______ ____
ROOT
ATOM      1  C   UNL     1      47.106 -20.146 -40.911  0.00  0.00    -0.100 C 
ATOM      2  N   UNL     1      46.390 -21.395 -40.406  0.00  0.00    +0.381 N 
ATOM      3  C   UNL     1      46.016 -21.168 -38.946  0.00  0.00    -0.100 C 
ATOM      4  C   UNL     1      45.115 -21.675 -41.224  0.00  0.00    -0.064 C 
ATOM      5  C   UNL     1      45.440 -22.194 -42.632  0.00  0.00    +0.036 C 
ATOM      6  O   UNL     1      46.259 -23.367 -42.599  0.00  0.00    -0.355 OA
ATOM      7  C   UNL     1      47.509 -23.146 -41.953  0.00  0.00    +0.142 C 
ATOM      8  C   UNL     1      47.315 -22.648 -40.495  0.00  0.00    -0.036 C 
ENDROOT
BRANCH   7   9
ATOM      9  O   UNL     1      48.295 -22.235 -42.703  0.00  0.00    -0.369 OA
ATOM     10  H   UNL     1      48.667 -21.565 -42.110  0.00  0.00    +0.000 HD
ENDBRANCH   7   9
TORSDOF 1
ENDMDL
MODEL 3
REMARK VINA RESULT:    -4.103      2.438      3.577
REMARK INTER + INTRA:          -4.223
REMARK INTER:                  -4.223
REMARK INTRA:                   0.000
REMARK UNBOUND:                 0.000
REMARK  Name = cpd221.pdb
REMARK  3 active torsions:
REMARK  status: ('A' for Active; 'I' for Inactive)
REMARK    1  A    between atoms: C_1  and  N_2
REMARK    2  A    between atoms: N_2  and  C_3
REMARK    3  A    between atoms: C_7  and  O_8
REMARK                            x       y       z     vdW  Elec       q    Type
REMARK                         _______ _______ _______ _____ _____    ______ ____
ROOT
ATOM      1  C   UNL     1      63.259 -23.916  -6.040  0.00  0.00    -0.100 C 
ATOM      2  N   UNL     1      63.365 -25.246  -6.779  0.00  0.00    +0.381 N 
ATOM      3  C   UNL     1      63.618 -26.341  -5.749  0.00  0.00    -0.100 C 
ATOM      4  C   UNL     1      62.069 -25.559  -7.552  0.00  0.00    -0.064 C 
ATOM      5  C   UNL     1      61.909 -24.663  -8.788  0.00  0.00    +0.036 C 
ATOM      6  O   UNL     1      63.031 -24.756  -9.671  0.00  0.00    -0.355 OA
ATOM      7  C   UNL     1      64.253 -24.368  -9.049  0.00  0.00    +0.142 C 
ATOM      8  C   UNL     1      64.550 -25.233  -7.794  0.00  0.00    -0.036 C 
ENDROOT
BRANCH   7   9
ATOM      9  O   UNL     1      64.222 -22.989  -8.724  0.00  0.00    -0.369 OA
ATOM     10  H   UNL     1      63.634 -22.849  -7.966  0.00  0.00    +0.000 HD
ENDBRANCH   7   9
TORSDOF 1
ENDMDL
MODEL 4
REMARK VINA RESULT:    -4.060     41.429     42.028
REMARK INTER + INTRA:          -4.179
REMARK INTER:                  -4.179
REMARK INTRA:                   0.000
REMARK UNBOUND:                 0.000
REMARK  Name = cpd221.pdb
REMARK  3 active torsions:
REMARK  status: ('A' for Active; 'I' for Inactive)
REMARK    1  A    between atoms: C_1  and  N_2
REMARK    2  A    between atoms: N_2  and  C_3
REMARK    3  A    between atoms: C_7  and  O_8
REMARK                            x       y       z     vdW  Elec       q    Type
REMARK                         _______ _______ _______ _____ _____    ______ ____
ROOT
ATOM      1  C   UNL     1      57.540 -22.174 -49.712  0.00  0.00    -0.100 C 
ATOM      2  N   UNL     1      57.647 -22.406 -48.208  0.00  0.00    +0.381 N 
ATOM      3  C   UNL     1      59.089 -22.141 -47.789  0.00  0.00    -0.100 C 
ATOM      4  C   UNL     1      56.707 -21.465 -47.431  0.00  0.00    -0.064 C 
ATOM      5  C   UNL     1      55.234 -21.872 -47.585  0.00  0.00    +0.036 C 
ATOM      6  O   UNL     1      55.003 -23.226 -47.182  0.00  0.00    -0.355 OA
ATOM      7  C   UNL     1      55.760 -24.162 -47.943  0.00  0.00    +0.142 C 
ATOM      8  C   UNL     1      57.284 -23.878 -47.839  0.00  0.00    -0.036 C 
ENDROOT
BRANCH   7   9
ATOM      9  O   UNL     1      55.331 -24.158 -49.294  0.00  0.00    -0.369 OA
ATOM     10  H   UNL     1      54.539 -23.604 -49.380  0.00  0.00    +0.000 HD
ENDBRANCH   7   9
TORSDOF 1
ENDMDL
MODEL 5
REMARK VINA RESULT:    -4.011      1.181      2.360
REMARK INTER + INTRA:          -4.128
REMARK INTER:                  -4.128
REMARK INTRA:                   0.000
REMARK UNBOUND:                 0.000
REMARK  Name = cpd221.pdb
REMARK  3 active torsions:
REMARK  status: ('A' for Active; 'I' for Inactive)
REMARK    1  A    between atoms: C_1  and  N_2
REMARK    2  A    between atoms: N_2  and  C_3
REMARK    3  A    between atoms: C_7  and  O_8
REMARK                            x       y       z     vdW  Elec       q    Type
REMARK                         _______ _______ _______ _____ _____    ______ ____
ROOT
ATOM      1  C   UNL     1      65.114 -24.974  -7.723  0.00  0.00    -0.100 C 
ATOM      2  N   UNL     1      64.073 -24.646  -6.657  0.00  0.00    +0.381 N 
ATOM      3  C   UNL     1      64.262 -23.191  -6.243  0.00  0.00    -0.100 C 
ATOM      4  C   UNL     1      62.643 -24.844  -7.195  0.00  0.00    -0.064 C 
ATOM      5  C   UNL     1      62.293 -26.330  -7.357  0.00  0.00    +0.036 C 
ATOM      6  O   UNL     1      62.454 -27.058  -6.136  0.00  0.00    -0.355 OA
ATOM      7  C   UNL     1      63.789 -27.012  -5.641  0.00  0.00    +0.142 C 
ATOM      8  C   UNL     1      64.254 -25.550  -5.398  0.00  0.00    -0.036 C 
ENDROOT
BRANCH   7   9
ATOM      9  O   UNL     1      64.665 -27.686  -6.527  0.00  0.00    -0.369 OA
ATOM     10  H   UNL     1      64.239 -27.781  -7.393  0.00  0.00    +0.000 HD
ENDBRANCH   7   9
TORSDOF 1
ENDMDL
MODEL 6
REMARK VINA RESULT:    -3.938     37.981     38.995
REMARK INTER + INTRA:          -4.053
REMARK INTER:                  -4.053
REMARK INTRA:                   0.000
REMARK UNBOUND:                 0.000
REMARK  Name = cpd221.pdb
REMARK  3 active torsions:
REMARK  status: ('A' for Active; 'I' for Inactive)
REMARK    1  A    between atoms: C_1  and  N_2
REMARK    2  A    between atoms: N_2  and  C_3
REMARK    3  A    between atoms: C_7  and  O_8
REMARK                            x       y       z     vdW  Elec       q    Type
REMARK                         _______ _______ _______ _____ _____    ______ ____
ROOT
ATOM      1  C   UNL     1      48.132 -20.745 -41.937  0.00  0.00    -0.100 C 
ATOM      2  N   UNL     1      47.581 -22.052 -41.374  0.00  0.00    +0.381 N 
ATOM      3  C   UNL     1      48.759 -22.967 -41.060  0.00  0.00    -0.100 C 
ATOM      4  C   UNL     1      46.767 -21.805 -40.090  0.00  0.00    -0.064 C 
ATOM      5  C   UNL     1      45.416 -21.137 -40.387  0.00  0.00    +0.036 C 
ATOM      6  O   UNL     1      44.634 -21.892 -41.317  0.00  0.00    -0.355 OA
ATOM      7  C   UNL     1      45.284 -22.060 -42.573  0.00  0.00    +0.142 C 
ATOM      8  C   UNL     1      46.658 -22.765 -42.411  0.00  0.00    -0.036 C 
ENDROOT
BRANCH   7   9
ATOM      9  O   UNL     1      45.425 -20.809 -43.224  0.00  0.00    -0.369 OA
ATOM     10  H   UNL     1      45.130 -20.101 -42.630  0.00  0.00    +0.000 HD
ENDBRANCH   7   9
TORSDOF 1
ENDMDL
MODEL 7
REMARK VINA RESULT:    -3.810     36.940     38.014
REMARK INTER + INTRA:          -3.921
REMARK INTER:                  -3.921
REMARK INTRA:                   0.000
REMARK UNBOUND:                 0.000
REMARK  Name = cpd221.pdb
REMARK  3 active torsions:
REMARK  status: ('A' for Active; 'I' for Inactive)
REMARK    1  A    between atoms: C_1  and  N_2
REMARK    2  A    between atoms: N_2  and  C_3
REMARK    3  A    between atoms: C_7  and  O_8
REMARK                            x       y       z     vdW  Elec       q    Type
REMARK                         _______ _______ _______ _____ _____    ______ ____
ROOT
ATOM      1  C   UNL     1      46.316 -20.702 -39.120  0.00  0.00    -0.100 C 
ATOM      2  N   UNL     1      45.891 -21.289 -40.463  0.00  0.00    +0.381 N 
ATOM      3  C   UNL     1      44.368 -21.263 -40.530  0.00  0.00    -0.100 C 
ATOM      4  C   UNL     1      46.469 -20.472 -41.635  0.00  0.00    -0.064 C 
ATOM      5  C   UNL     1      47.980 -20.694 -41.797  0.00  0.00    +0.036 C 
ATOM      6  O   UNL     1      48.308 -22.077 -41.964  0.00  0.00    -0.355 OA
ATOM      7  C   UNL     1      47.901 -22.875 -40.857  0.00  0.00    +0.142 C 
ATOM      8  C   UNL     1      46.372 -22.766 -40.609  0.00  0.00    -0.036 C 
ENDROOT
BRANCH   7   9
ATOM      9  O   UNL     1      48.633 -22.516 -39.698  0.00  0.00    -0.369 OA
ATOM     10  H   UNL     1      48.573 -23.229 -39.043  0.00  0.00    +0.000 HD
ENDBRANCH   7   9
TORSDOF 1
ENDMDL
MODEL 8
REMARK VINA RESULT:    -3.798     35.368     36.305
REMARK INTER + INTRA:          -3.909
REMARK INTER:                  -3.909
REMARK INTRA:                   0.000
REMARK UNBOUND:                 0.000
REMARK  Name = cpd221.pdb
REMARK  3 active torsions:
REMARK  status: ('A' for Active; 'I' for Inactive)
REMARK    1  A    between atoms: C_1  and  N_2
REMARK    2  A    between atoms: N_2  and  C_3
REMARK    3  A    between atoms: C_7  and  O_8
REMARK                            x       y       z     vdW  Elec       q    Type
REMARK                         _______ _______ _______ _____ _____    ______ ____
ROOT
ATOM      1  C   UNL     1      39.032 -21.137 -34.849  0.00  0.00    -0.100 C 
ATOM      2  N   UNL     1      38.666 -21.414 -33.394  0.00  0.00    +0.381 N 
ATOM      3  C   UNL     1      38.210 -20.104 -32.762  0.00  0.00    -0.100 C 
ATOM      4  C   UNL     1      37.533 -22.453 -33.294  0.00  0.00    -0.064 C 
ATOM      5  C   UNL     1      38.019 -23.867 -33.644  0.00  0.00    +0.036 C 
ATOM      6  O   UNL     1      39.122 -24.276 -32.830  0.00  0.00    -0.355 OA
ATOM      7  C   UNL     1      40.251 -23.418 -32.963  0.00  0.00    +0.142 C 
ATOM      8  C   UNL     1      39.896 -21.951 -32.598  0.00  0.00    -0.036 C 
ENDROOT
BRANCH   7   9
ATOM      9  O   UNL     1      40.780 -23.504 -34.276  0.00  0.00    -0.369 OA
ATOM     10  H   UNL     1      41.742 -23.381 -34.245  0.00  0.00    +0.000 HD
ENDBRANCH   7   9
TORSDOF 1
ENDMDL
MODEL 9
REMARK VINA RESULT:    -3.785     37.378     38.676
REMARK INTER + INTRA:          -3.895
REMARK INTER:                  -3.895
REMARK INTRA:                   0.000
REMARK UNBOUND:                 0.000
REMARK  Name = cpd221.pdb
REMARK  3 active torsions:
REMARK  status: ('A' for Active; 'I' for Inactive)
REMARK    1  A    between atoms: C_1  and  N_2
REMARK    2  A    between atoms: N_2  and  C_3
REMARK    3  A    between atoms: C_7  and  O_8
REMARK                            x       y       z     vdW  Elec       q    Type
REMARK                         _______ _______ _______ _____ _____    ______ ____
ROOT
ATOM      1  C   UNL     1      47.353 -22.112 -39.695  0.00  0.00    -0.100 C 
ATOM      2  N   UNL     1      47.391 -22.199 -41.218  0.00  0.00    +0.381 N 
ATOM      3  C   UNL     1      48.073 -23.509 -41.600  0.00  0.00    -0.100 C 
ATOM      4  C   UNL     1      45.970 -22.168 -41.813  0.00  0.00    -0.064 C 
ATOM      5  C   UNL     1      45.339 -20.772 -41.714  0.00  0.00    +0.036 C 
ATOM      6  O   UNL     1      46.146 -19.769 -42.339  0.00  0.00    -0.355 OA
ATOM      7  C   UNL     1      47.442 -19.666 -41.758  0.00  0.00    +0.142 C 
ATOM      8  C   UNL     1      48.205 -21.017 -41.828  0.00  0.00    -0.036 C 
ENDROOT
BRANCH   7   9
ATOM      9  O   UNL     1      47.345 -19.203 -40.422  0.00  0.00    -0.369 OA
ATOM     10  H   UNL     1      47.281 -18.236 -40.419  0.00  0.00    +0.000 HD
ENDBRANCH   7   9
TORSDOF 1
ENDMDL
MODEL 10
REMARK VINA RESULT:    -3.662     37.333     38.589
REMARK INTER + INTRA:          -3.769
REMARK INTER:                  -3.769
REMARK INTRA:                   0.000
REMARK UNBOUND:                 0.000
REMARK  Name = cpd221.pdb
REMARK  3 active torsions:
REMARK  status: ('A' for Active; 'I' for Inactive)
REMARK    1  A    between atoms: C_1  and  N_2
REMARK    2  A    between atoms: N_2  and  C_3
REMARK    3  A    between atoms: C_7  and  O_8
REMARK                            x       y       z     vdW  Elec       q    Type
REMARK                         _______ _______ _______ _____ _____    ______ ____
ROOT
ATOM      1  C   UNL     1      45.988 -19.626 -41.481  0.00  0.00    -0.100 C 
ATOM      2  N   UNL     1      45.178 -20.875 -41.147  0.00  0.00    +0.381 N 
ATOM      3  C   UNL     1      43.709 -20.477 -41.057  0.00  0.00    -0.100 C 
ATOM      4  C   UNL     1      45.351 -21.957 -42.230  0.00  0.00    -0.064 C 
ATOM      5  C   UNL     1      46.741 -22.607 -42.174  0.00  0.00    +0.036 C 
ATOM      6  O   UNL     1      47.025 -23.163 -40.887  0.00  0.00    -0.355 OA
ATOM      7  C   UNL     1      46.995 -22.189 -39.848  0.00  0.00    +0.142 C 
ATOM      8  C   UNL     1      45.615 -21.479 -39.776  0.00  0.00    -0.036 C 
ENDROOT
BRANCH   7   9
ATOM      9  O   UNL     1      48.043 -21.251 -40.024  0.00  0.00    -0.369 OA
ATOM     10  H   UNL     1      48.871 -21.625 -39.683  0.00  0.00    +0.000 HD
ENDBRANCH   7   9
TORSDOF 1
ENDMDL
MODEL 11
REMARK VINA RESULT:    -3.654     50.918     51.877
REMARK INTER + INTRA:          -3.761
REMARK INTER:                  -3.761
REMARK INTRA:                   0.000
REMARK UNBOUND:                 0.000
REMARK  Name = cpd221.pdb
REMARK  3 active torsions:
REMARK  status: ('A' for Active; 'I' for Inactive)
REMARK    1  A    between atoms: C_1  and  N_2
REMARK    2  A    between atoms: N_2  and  C_3
REMARK    3  A    between atoms: C_7  and  O_8
REMARK                            x       y       z     vdW  Elec       q    Type
REMARK                         _______ _______ _______ _____ _____    ______ ____
ROOT
ATOM      1  C   UNL     1      46.408 -36.054 -55.438  0.00  0.00    -0.100 C 
ATOM      2  N   UNL     1      44.974 -36.200 -54.937  0.00  0.00    +0.381 N 
ATOM      3  C   UNL     1      44.117 -35.155 -55.643  0.00  0.00    -0.100 C 
ATOM      4  C   UNL     1      44.420 -37.606 -55.238  0.00  0.00    -0.064 C 
ATOM      5  C   UNL     1      45.050 -38.675 -54.334  0.00  0.00    +0.036 C 
ATOM      6  O   UNL     1      44.881 -38.377 -52.945  0.00  0.00    -0.355 OA
ATOM      7  C   UNL     1      45.475 -37.137 -52.574  0.00  0.00    +0.142 C 
ATOM      8  C   UNL     1      44.889 -35.958 -53.398  0.00  0.00    -0.036 C 
ENDROOT
BRANCH   7   9
ATOM      9  O   UNL     1      46.884 -37.206 -52.711  0.00  0.00    -0.369 OA
ATOM     10  H   UNL     1      47.238 -37.855 -52.083  0.00  0.00    +0.000 HD
ENDBRANCH   7   9
TORSDOF 1
ENDMDL
MODEL 12
REMARK VINA RESULT:    -3.620     37.395     38.394
REMARK INTER + INTRA:          -3.726
REMARK INTER:                  -3.726
REMARK INTRA:                   0.000
REMARK UNBOUND:                 0.000
REMARK  Name = cpd221.pdb
REMARK  3 active torsions:
REMARK  status: ('A' for Active; 'I' for Inactive)
REMARK    1  A    between atoms: C_1  and  N_2
REMARK    2  A    between atoms: N_2  and  C_3
REMARK    3  A    between atoms: C_7  and  O_8
REMARK                            x       y       z     vdW  Elec       q    Type
REMARK                         _______ _______ _______ _____ _____    ______ ____
ROOT
ATOM      1  C   UNL     1      45.420 -22.087 -42.461  0.00  0.00    -0.100 C 
ATOM      2  N   UNL     1      46.768 -22.251 -41.764  0.00  0.00    +0.381 N 
ATOM      3  C   UNL     1      47.528 -23.373 -42.462  0.00  0.00    -0.100 C 
ATOM      4  C   UNL     1      47.592 -20.952 -41.835  0.00  0.00    -0.064 C 
ATOM      5  C   UNL     1      47.027 -19.864 -40.910  0.00  0.00    +0.036 C 
ATOM      6  O   UNL     1      46.936 -20.304 -39.552  0.00  0.00    -0.355 OA
ATOM      7  C   UNL     1      46.091 -21.440 -39.399  0.00  0.00    +0.142 C 
ATOM      8  C   UNL     1      46.581 -22.633 -40.263  0.00  0.00    -0.036 C 
ENDROOT
BRANCH   7   9
ATOM      9  O   UNL     1      44.750 -21.101 -39.710  0.00  0.00    -0.369 OA
ATOM     10  H   UNL     1      44.285 -21.887 -40.036  0.00  0.00    +0.000 HD
ENDBRANCH   7   9
TORSDOF 1
ENDMDL
MODEL 13
REMARK VINA RESULT:    -3.451     37.618     38.670
REMARK INTER + INTRA:          -3.552
REMARK INTER:                  -3.552
REMARK INTRA:                   0.000
REMARK UNBOUND:                 0.000
REMARK  Name = cpd221.pdb
REMARK  3 active torsions:
REMARK  status: ('A' for Active; 'I' for Inactive)
REMARK    1  A    between atoms: C_1  and  N_2
REMARK    2  A    between atoms: N_2  and  C_3
REMARK    3  A    between atoms: C_7  and  O_8
REMARK                            x       y       z     vdW  Elec       q    Type
REMARK                         _______ _______ _______ _____ _____    ______ ____
ROOT
ATOM      1  C   UNL     1      44.839 -20.046 -41.900  0.00  0.00    -0.100 C 
ATOM      2  N   UNL     1      46.077 -19.709 -41.074  0.00  0.00    +0.381 N 
ATOM      3  C   UNL     1      46.100 -18.201 -40.851  0.00  0.00    -0.100 C 
ATOM      4  C   UNL     1      46.051 -20.429 -39.713  0.00  0.00    -0.064 C 
ATOM      5  C   UNL     1      46.318 -21.935 -39.856  0.00  0.00    +0.036 C 
ATOM      6  O   UNL     1      47.557 -22.202 -40.520  0.00  0.00    -0.355 OA
ATOM      7  C   UNL     1      47.603 -21.659 -41.835  0.00  0.00    +0.142 C 
ATOM      8  C   UNL     1      47.382 -20.122 -41.824  0.00  0.00    -0.036 C 
ENDROOT
BRANCH   7   9
ATOM      9  O   UNL     1      46.655 -22.306 -42.667  0.00  0.00    -0.369 OA
ATOM     10  H   UNL     1      46.010 -21.656 -42.987  0.00  0.00    +0.000 HD
ENDBRANCH   7   9
TORSDOF 1
ENDMDL
MODEL 14
REMARK VINA RESULT:    -3.317     35.443     36.615
REMARK INTER + INTRA:          -3.414
REMARK INTER:                  -3.414
REMARK INTRA:                   0.000
REMARK UNBOUND:                 0.000
REMARK  Name = cpd221.pdb
REMARK  3 active torsions:
REMARK  status: ('A' for Active; 'I' for Inactive)
REMARK    1  A    between atoms: C_1  and  N_2
REMARK    2  A    between atoms: N_2  and  C_3
REMARK    3  A    between atoms: C_7  and  O_8
REMARK                            x       y       z     vdW  Elec       q    Type
REMARK                         _______ _______ _______ _____ _____    ______ ____
ROOT
ATOM      1  C   UNL     1      38.715 -23.744 -33.876  0.00  0.00    -0.100 C 
ATOM      2  N   UNL     1      38.715 -22.222 -33.984  0.00  0.00    +0.381 N 
ATOM      3  C   UNL     1      37.297 -21.729 -33.720  0.00  0.00    -0.100 C 
ATOM      4  C   UNL     1      39.677 -21.592 -32.958  0.00  0.00    -0.064 C 
ATOM      5  C   UNL     1      41.148 -21.814 -33.340  0.00  0.00    +0.036 C 
ATOM      6  O   UNL     1      41.445 -21.318 -34.649  0.00  0.00    -0.355 OA
ATOM      7  C   UNL     1      40.668 -21.945 -35.664  0.00  0.00    +0.142 C 
ATOM      8  C   UNL     1      39.147 -21.760 -35.410  0.00  0.00    -0.036 C 
ENDROOT
BRANCH   7   9
ATOM      9  O   UNL     1      41.006 -23.318 -35.763  0.00  0.00    -0.369 OA
ATOM     10  H   UNL     1      40.828 -23.757 -34.917  0.00  0.00    +0.000 HD
ENDBRANCH   7   9
TORSDOF 1
ENDMDL
MODEL 15
REMARK VINA RESULT:    -3.297     50.934     51.863
REMARK INTER + INTRA:          -3.393
REMARK INTER:                  -3.393
REMARK INTRA:                   0.000
REMARK UNBOUND:                 0.000
REMARK  Name = cpd221.pdb
REMARK  3 active torsions:
REMARK  status: ('A' for Active; 'I' for Inactive)
REMARK    1  A    between atoms: C_1  and  N_2
REMARK    2  A    between atoms: N_2  and  C_3
REMARK    3  A    between atoms: C_7  and  O_8
REMARK                            x       y       z     vdW  Elec       q    Type
REMARK                         _______ _______ _______ _____ _____    ______ ____
ROOT
ATOM      1  C   UNL     1      45.379 -35.267 -53.035  0.00  0.00    -0.100 C 
ATOM      2  N   UNL     1      45.184 -35.762 -54.465  0.00  0.00    +0.381 N 
ATOM      3  C   UNL     1      44.745 -34.578 -55.319  0.00  0.00    -0.100 C 
ATOM      4  C   UNL     1      46.489 -36.349 -55.034  0.00  0.00    -0.064 C 
ATOM      5  C   UNL     1      46.829 -37.708 -54.405  0.00  0.00    +0.036 C 
ATOM      6  O   UNL     1      45.767 -38.654 -54.558  0.00  0.00    -0.355 OA
ATOM      7  C   UNL     1      44.554 -38.221 -53.951  0.00  0.00    +0.142 C 
ATOM      8  C   UNL     1      44.080 -36.862 -54.533  0.00  0.00    -0.036 C 
ENDROOT
BRANCH   7   9
ATOM      9  O   UNL     1      44.708 -38.148 -52.544  0.00  0.00    -0.369 OA
ATOM     10  H   UNL     1      45.288 -37.403 -52.321  0.00  0.00    +0.000 HD
ENDBRANCH   7   9
TORSDOF 1
ENDMDL
MODEL 16
REMARK VINA RESULT:    -3.160     35.390     36.483
REMARK INTER + INTRA:          -3.252
REMARK INTER:                  -3.252
REMARK INTRA:                   0.000
REMARK UNBOUND:                 0.000
REMARK  Name = cpd221.pdb
REMARK  3 active torsions:
REMARK  status: ('A' for Active; 'I' for Inactive)
REMARK    1  A    between atoms: C_1  and  N_2
REMARK    2  A    between atoms: N_2  and  C_3
REMARK    3  A    between atoms: C_7  and  O_8
REMARK                            x       y       z     vdW  Elec       q    Type
REMARK                         _______ _______ _______ _____ _____    ______ ____
ROOT
ATOM      1  C   UNL     1      38.498 -20.449 -32.862  0.00  0.00    -0.100 C 
ATOM      2  N   UNL     1      39.285 -21.026 -34.035  0.00  0.00    +0.381 N 
ATOM      3  C   UNL     1      39.625 -19.882 -34.984  0.00  0.00    -0.100 C 
ATOM      4  C   UNL     1      40.585 -21.699 -33.556  0.00  0.00    -0.064 C 
ATOM      5  C   UNL     1      40.311 -23.027 -32.836  0.00  0.00    +0.036 C 
ATOM      6  O   UNL     1      39.567 -23.939 -33.650  0.00  0.00    -0.355 OA
ATOM      7  C   UNL     1      38.297 -23.421 -34.035  0.00  0.00    +0.142 C 
ATOM      8  C   UNL     1      38.441 -22.084 -34.812  0.00  0.00    -0.036 C 
ENDROOT
BRANCH   7   9
ATOM      9  O   UNL     1      37.466 -23.264 -32.898  0.00  0.00    -0.369 OA
ATOM     10  H   UNL     1      36.631 -23.736 -33.041  0.00  0.00    +0.000 HD
ENDBRANCH   7   9
TORSDOF 1
ENDMDL
MODEL 17
REMARK VINA RESULT:    -3.091     51.269     52.047
REMARK INTER + INTRA:          -3.181
REMARK INTER:                  -3.181
REMARK INTRA:                   0.000
REMARK UNBOUND:                 0.000
REMARK  Name = cpd221.pdb
REMARK  3 active torsions:
REMARK  status: ('A' for Active; 'I' for Inactive)
REMARK    1  A    between atoms: C_1  and  N_2
REMARK    2  A    between atoms: N_2  and  C_3
REMARK    3  A    between atoms: C_7  and  O_8
REMARK                            x       y       z     vdW  Elec       q    Type
REMARK                         _______ _______ _______ _____ _____    ______ ____
ROOT
ATOM      1  C   UNL     1      45.345 -34.291 -54.160  0.00  0.00    -0.100 C 
ATOM      2  N   UNL     1      46.025 -35.561 -54.662  0.00  0.00    +0.381 N 
ATOM      3  C   UNL     1      47.339 -35.164 -55.326  0.00  0.00    -0.100 C 
ATOM      4  C   UNL     1      46.311 -36.535 -53.503  0.00  0.00    -0.064 C 
ATOM      5  C   UNL     1      45.026 -37.196 -52.981  0.00  0.00    +0.036 C 
ATOM      6  O   UNL     1      44.310 -37.875 -54.016  0.00  0.00    -0.355 OA
ATOM      7  C   UNL     1      43.913 -37.005 -55.072  0.00  0.00    +0.142 C 
ATOM      8  C   UNL     1      45.137 -36.296 -55.713  0.00  0.00    -0.036 C 
ENDROOT
BRANCH   7   9
ATOM      9  O   UNL     1      42.966 -36.062 -54.600  0.00  0.00    -0.369 OA
ATOM     10  H   UNL     1      42.962 -36.065 -53.630  0.00  0.00    +0.000 HD
ENDBRANCH   7   9
TORSDOF 1
ENDMDL
MODEL 18
REMARK VINA RESULT:    -3.071     25.316     26.664
REMARK INTER + INTRA:          -3.161
REMARK INTER:                  -3.161
REMARK INTRA:                   0.000
REMARK UNBOUND:                 0.000
REMARK  Name = cpd221.pdb
REMARK  3 active torsions:
REMARK  status: ('A' for Active; 'I' for Inactive)
REMARK    1  A    between atoms: C_1  and  N_2
REMARK    2  A    between atoms: N_2  and  C_3
REMARK    3  A    between atoms: C_7  and  O_8
REMARK                            x       y       z     vdW  Elec       q    Type
REMARK                         _______ _______ _______ _____ _____    ______ ____
ROOT
ATOM      1  C   UNL     1      60.695 -13.995 -31.710  0.00  0.00    -0.100 C 
ATOM      2  N   UNL     1      61.255 -12.820 -30.915  0.00  0.00    +0.381 N 
ATOM      3  C   UNL     1      60.894 -11.535 -31.651  0.00  0.00    -0.100 C 
ATOM      4  C   UNL     1      60.665 -12.778 -29.492  0.00  0.00    -0.064 C 
ATOM      5  C   UNL     1      61.229 -13.898 -28.605  0.00  0.00    +0.036 C 
ATOM      6  O   UNL     1      62.657 -13.864 -28.537  0.00  0.00    -0.355 OA
ATOM      7  C   UNL     1      63.273 -14.014 -29.812  0.00  0.00    +0.142 C 
ATOM      8  C   UNL     1      62.809 -12.909 -30.800  0.00  0.00    -0.036 C 
ENDROOT
BRANCH   7   9
ATOM      9  O   UNL     1      63.014 -15.306 -30.334  0.00  0.00    -0.369 OA
ATOM     10  H   UNL     1      62.055 -15.442 -30.399  0.00  0.00    +0.000 HD
ENDBRANCH   7   9
TORSDOF 1
ENDMDL
MODEL 19
REMARK VINA RESULT:    -3.024     26.242     27.472
REMARK INTER + INTRA:          -3.113
REMARK INTER:                  -3.113
REMARK INTRA:                   0.000
REMARK UNBOUND:                 0.000
REMARK  Name = cpd221.pdb
REMARK  3 active torsions:
REMARK  status: ('A' for Active; 'I' for Inactive)
REMARK    1  A    between atoms: C_1  and  N_2
REMARK    2  A    between atoms: N_2  and  C_3
REMARK    3  A    between atoms: C_7  and  O_8
REMARK                            x       y       z     vdW  Elec       q    Type
REMARK                         _______ _______ _______ _____ _____    ______ ____
ROOT
ATOM      1  C   UNL     1      61.233 -12.812 -28.999  0.00  0.00    -0.100 C 
ATOM      2  N   UNL     1      61.350 -12.049 -30.315  0.00  0.00    +0.381 N 
ATOM      3  C   UNL     1      60.670 -10.695 -30.139  0.00  0.00    -0.100 C 
ATOM      4  C   UNL     1      62.825 -11.835 -30.705  0.00  0.00    -0.064 C 
ATOM      5  C   UNL     1      63.487 -13.137 -31.178  0.00  0.00    +0.036 C 
ATOM      6  O   UNL     1      62.781 -13.736 -32.269  0.00  0.00    -0.355 OA
ATOM      7  C   UNL     1      61.436 -14.066 -31.938  0.00  0.00    +0.142 C 
ATOM      8  C   UNL     1      60.641 -12.815 -31.475  0.00  0.00    -0.036 C 
ENDROOT
BRANCH   7   9
ATOM      9  O   UNL     1      61.409 -15.083 -30.950  0.00  0.00    -0.369 OA
ATOM     10  H   UNL     1      61.638 -14.702 -30.088  0.00  0.00    +0.000 HD
ENDBRANCH   7   9
TORSDOF 1
ENDMDL
MODEL 20
REMARK VINA RESULT:    -3.024     50.307     51.038
REMARK INTER + INTRA:          -3.112
REMARK INTER:                  -3.112
REMARK INTRA:                   0.000
REMARK UNBOUND:                 0.000
REMARK  Name = cpd221.pdb
REMARK  3 active torsions:
REMARK  status: ('A' for Active; 'I' for Inactive)
REMARK    1  A    between atoms: C_1  and  N_2
REMARK    2  A    between atoms: N_2  and  C_3
REMARK    3  A    between atoms: C_7  and  O_8
REMARK                            x       y       z     vdW  Elec       q    Type
REMARK                         _______ _______ _______ _____ _____    ______ ____
ROOT
ATOM      1  C   UNL     1      44.565 -35.729 -55.077  0.00  0.00    -0.100 C 
ATOM      2  N   UNL     1      45.348 -35.873 -53.775  0.00  0.00    +0.381 N 
ATOM      3  C   UNL     1      44.947 -37.192 -53.125  0.00  0.00    -0.100 C 
ATOM      4  C   UNL     1      46.867 -35.872 -54.036  0.00  0.00    -0.064 C 
ATOM      5  C   UNL     1      47.381 -34.476 -54.418  0.00  0.00    +0.036 C 
ATOM      6  O   UNL     1      47.061 -33.494 -53.428  0.00  0.00    -0.355 OA
ATOM      7  C   UNL     1      45.658 -33.362 -53.220  0.00  0.00    +0.142 C 
ATOM      8  C   UNL     1      45.019 -34.710 -52.789  0.00  0.00    -0.036 C 
ENDROOT
BRANCH   7   9
ATOM      9  O   UNL     1      45.034 -32.849 -54.385  0.00  0.00    -0.369 OA
ATOM     10  H   UNL     1      44.787 -33.584 -54.968  0.00  0.00    +0.000 HD
ENDBRANCH   7   9
TORSDOF 1
ENDMDL
