REMARK  Name = cpd360.pdb
REMARK  5 active torsions:
REMARK  status: ('A' for Active; 'I' for Inactive)
REMARK    1  A    between atoms: C_1  and  C_2
REMARK    2  A    between atoms: C_7  and  C_8
REMARK    3  A    between atoms: C_8  and  N_9
REMARK    4  A    between atoms: C_12  and  C_13
REMARK    5  A    between atoms: C_13  and  N_14
REMARK                            x       y       z     vdW  Elec       q    Type
REMARK                         _______ _______ _______ _____ _____    ______ ____
ROOT
ATOM      1  N   UNL A   1      -4.446   3.544   0.069  0.00  0.00    -0.349 N 
ATOM      2  C   UNL A   1      -3.369   3.088   0.749  0.00  0.00    +0.005 A 
ATOM      3  C   UNL A   1      -2.424   2.282   0.125  0.00  0.00    -0.041 A 
ATOM      4  C   UNL A   1      -2.581   1.928  -1.218  0.00  0.00    -0.025 A 
ATOM      5  C   UNL A   1      -3.676   2.448  -1.908  0.00  0.00    -0.041 A 
ATOM      6  C   UNL A   1      -4.597   3.254  -1.246  0.00  0.00    +0.005 A 
ENDROOT
BRANCH   1   7
ATOM      7  C   UNL A   1      -5.449   4.392   0.765  0.00  0.00    +0.048 C 
BRANCH   7  14
ATOM      8  C   UNL A   1      -6.311   1.758   2.042  0.00  0.00    -0.039 C 
ATOM      9  C   UNL A   1      -7.244   2.618   1.232  0.00  0.00    -0.046 A 
ATOM     10  C   UNL A   1      -8.556   2.155   1.032  0.00  0.00    -0.059 A 
ATOM     11  C   UNL A   1      -9.475   2.895   0.292  0.00  0.00    -0.061 A 
ATOM     12  C   UNL A   1      -9.099   4.110  -0.265  0.00  0.00    -0.061 A 
ATOM     13  C   UNL A   1      -7.798   4.580  -0.092  0.00  0.00    -0.057 A 
ATOM     14  C   UNL A   1      -6.850   3.840   0.643  0.00  0.00    -0.025 A 
ENDBRANCH   7  14
ENDBRANCH   1   7
BRANCH   4  15
ATOM     15  C   UNL A   1      -1.599   1.003  -1.912  0.00  0.00    +0.049 C 
BRANCH  15  16
ATOM     16  N   UNL A   1      -1.418  -0.240  -1.167  0.00  0.00    -0.339 N 
ATOM     17  C   UNL A   1      -0.310  -0.581  -0.431  0.00  0.00    +0.023 A 
ATOM     18  C   UNL A   1      -0.545  -1.811   0.152  0.00  0.00    -0.019 A 
ATOM     19  C   UNL A   1      -1.840  -2.239  -0.244  0.00  0.00    +0.003 A 
ATOM     20  C   UNL A   1      -2.612  -3.387   0.026  0.00  0.00    -0.052 A 
ATOM     21  C   UNL A   1      -3.877  -3.522  -0.553  0.00  0.00    -0.061 A 
ATOM     22  C   UNL A   1      -4.377  -2.536  -1.396  0.00  0.00    -0.060 A 
ATOM     23  C   UNL A   1      -3.632  -1.386  -1.678  0.00  0.00    -0.038 A 
ATOM     24  C   UNL A   1      -2.364  -1.252  -1.086  0.00  0.00    +0.050 A 
ATOM     25  C   UNL A   1       0.450  -2.495   1.033  0.00  0.00    -0.025 C 
ATOM     26  C   UNL A   1       1.853  -1.886   0.864  0.00  0.00    -0.049 C 
ATOM     27  C   UNL A   1       1.812  -0.349   0.848  0.00  0.00    -0.047 C 
ATOM     28  C   UNL A   1       0.960   0.199  -0.311  0.00  0.00    -0.012 C 
ENDBRANCH  15  16
ENDBRANCH   4  15
TORSDOF 4
