MODEL 1
REMARK VINA RESULT:    -8.250      0.000      0.000
REMARK INTER + INTRA:         -10.963
REMARK INTER:                 -10.179
REMARK INTRA:                  -0.783
REMARK UNBOUND:                -0.783
REMARK  Name = cpd360.pdb
REMARK  5 active torsions:
REMARK  status: ('A' for Active; 'I' for Inactive)
REMARK    1  A    between atoms: C_1  and  C_2
REMARK    2  A    between atoms: C_7  and  C_8
REMARK    3  A    between atoms: C_8  and  N_9
REMARK    4  A    between atoms: C_12  and  C_13
REMARK    5  A    between atoms: C_13  and  N_14
REMARK                            x       y       z     vdW  Elec       q    Type
REMARK                         _______ _______ _______ _____ _____    ______ ____
ROOT
ATOM      1  N   UNL A   1      33.046 -32.289 -30.589  0.00  0.00    -0.349 N 
ATOM      2  C   UNL A   1      34.340 -32.498 -30.254  0.00  0.00    +0.005 A 
ATOM      3  C   UNL A   1      35.025 -33.611 -30.728  0.00  0.00    -0.041 A 
ATOM      4  C   UNL A   1      34.379 -34.532 -31.556  0.00  0.00    -0.025 A 
ATOM      5  C   UNL A   1      33.059 -34.269 -31.923  0.00  0.00    -0.041 A 
ATOM      6  C   UNL A   1      32.411 -33.142 -31.428  0.00  0.00    +0.005 A 
ENDROOT
BRANCH   1   7
ATOM      7  C   UNL A   1      32.332 -31.099 -30.056  0.00  0.00    +0.048 C 
BRANCH   7  14
ATOM      8  C   UNL A   1      31.410 -33.026 -27.877  0.00  0.00    -0.039 C 
ATOM      9  C   UNL A   1      30.453 -32.279 -28.767  0.00  0.00    -0.046 A 
ATOM     10  C   UNL A   1      29.078 -32.519 -28.600  0.00  0.00    -0.059 A 
ATOM     11  C   UNL A   1      28.133 -31.867 -29.388  0.00  0.00    -0.061 A 
ATOM     12  C   UNL A   1      28.544 -30.964 -30.360  0.00  0.00    -0.061 A 
ATOM     13  C   UNL A   1      29.903 -30.723 -30.552  0.00  0.00    -0.057 A 
ATOM     14  C   UNL A   1      30.876 -31.382 -29.774  0.00  0.00    -0.025 A 
ENDBRANCH   7  14
ENDBRANCH   1   7
BRANCH   4  15
ATOM     15  C   UNL A   1      35.081 -35.786 -32.043  0.00  0.00    +0.049 C 
BRANCH  15  16
ATOM     16  N   UNL A   1      36.106 -36.225 -31.100  0.00  0.00    -0.339 N 
ATOM     17  C   UNL A   1      35.876 -36.805 -29.876  0.00  0.00    +0.023 A 
ATOM     18  C   UNL A   1      37.098 -37.112 -29.311  0.00  0.00    -0.019 A 
ATOM     19  C   UNL A   1      38.111 -36.702 -30.218  0.00  0.00    +0.003 A 
ATOM     20  C   UNL A   1      39.520 -36.752 -30.194  0.00  0.00    -0.052 A 
ATOM     21  C   UNL A   1      40.249 -36.228 -31.265  0.00  0.00    -0.061 A 
ATOM     22  C   UNL A   1      39.597 -35.654 -32.351  0.00  0.00    -0.060 A 
ATOM     23  C   UNL A   1      38.200 -35.594 -32.400  0.00  0.00    -0.038 A 
ATOM     24  C   UNL A   1      37.472 -36.131 -31.324  0.00  0.00    +0.050 A 
ATOM     25  C   UNL A   1      37.233 -37.762 -27.972  0.00  0.00    -0.025 C 
ATOM     26  C   UNL A   1      35.925 -37.656 -27.169  0.00  0.00    -0.049 C 
ATOM     27  C   UNL A   1      34.695 -37.985 -28.031  0.00  0.00    -0.047 C 
ATOM     28  C   UNL A   1      34.548 -37.025 -29.225  0.00  0.00    -0.012 C 
ENDBRANCH  15  16
ENDBRANCH   4  15
TORSDOF 4
ENDMDL
MODEL 2
REMARK VINA RESULT:    -7.772      3.828      7.217
REMARK INTER + INTRA:         -10.373
REMARK INTER:                  -9.209
REMARK INTRA:                  -1.163
REMARK UNBOUND:                -0.783
REMARK  Name = cpd360.pdb
REMARK  5 active torsions:
REMARK  status: ('A' for Active; 'I' for Inactive)
REMARK    1  A    between atoms: C_1  and  C_2
REMARK    2  A    between atoms: C_7  and  C_8
REMARK    3  A    between atoms: C_8  and  N_9
REMARK    4  A    between atoms: C_12  and  C_13
REMARK    5  A    between atoms: C_13  and  N_14
REMARK                            x       y       z     vdW  Elec       q    Type
REMARK                         _______ _______ _______ _____ _____    ______ ____
ROOT
ATOM      1  N   UNL A   1      34.345 -40.964 -30.220  0.00  0.00    -0.349 N 
ATOM      2  C   UNL A   1      35.393 -40.486 -30.931  0.00  0.00    +0.005 A 
ATOM      3  C   UNL A   1      36.358 -39.690 -30.325  0.00  0.00    -0.041 A 
ATOM      4  C   UNL A   1      36.252 -39.369 -28.969  0.00  0.00    -0.025 A 
ATOM      5  C   UNL A   1      35.187 -39.911 -28.249  0.00  0.00    -0.041 A 
ATOM      6  C   UNL A   1      34.245 -40.707 -28.894  0.00  0.00    +0.005 A 
ENDROOT
BRANCH   1   7
ATOM      7  C   UNL A   1      33.320 -41.801 -30.897  0.00  0.00    +0.048 C 
BRANCH   7  14
ATOM      8  C   UNL A   1      33.966 -42.455 -33.807  0.00  0.00    -0.039 C 
ATOM      9  C   UNL A   1      32.980 -41.390 -33.408  0.00  0.00    -0.046 A 
ATOM     10  C   UNL A   1      32.367 -40.647 -34.431  0.00  0.00    -0.059 A 
ATOM     11  C   UNL A   1      31.446 -39.644 -34.139  0.00  0.00    -0.061 A 
ATOM     12  C   UNL A   1      31.123 -39.362 -32.818  0.00  0.00    -0.061 A 
ATOM     13  C   UNL A   1      31.731 -40.077 -31.787  0.00  0.00    -0.057 A 
ATOM     14  C   UNL A   1      32.675 -41.087 -32.062  0.00  0.00    -0.025 A 
ENDBRANCH   7  14
ENDBRANCH   1   7
BRANCH   4  15
ATOM     15  C   UNL A   1      37.256 -38.455 -28.292  0.00  0.00    +0.049 C 
BRANCH  15  16
ATOM     16  N   UNL A   1      37.695 -37.387 -29.186  0.00  0.00    -0.339 N 
ATOM     17  C   UNL A   1      38.948 -37.261 -29.732  0.00  0.00    +0.023 A 
ATOM     18  C   UNL A   1      38.949 -36.149 -30.551  0.00  0.00    -0.019 A 
ATOM     19  C   UNL A   1      37.652 -35.573 -30.502  0.00  0.00    +0.003 A 
ATOM     20  C   UNL A   1      37.061 -34.448 -31.113  0.00  0.00    -0.052 A 
ATOM     21  C   UNL A   1      35.730 -34.127 -30.831  0.00  0.00    -0.061 A 
ATOM     22  C   UNL A   1      34.987 -34.904 -29.950  0.00  0.00    -0.060 A 
ATOM     23  C   UNL A   1      35.549 -36.027 -29.333  0.00  0.00    -0.038 A 
ATOM     24  C   UNL A   1      36.885 -36.350 -29.626  0.00  0.00    +0.050 A 
ATOM     25  C   UNL A   1      40.153 -35.707 -31.318  0.00  0.00    -0.025 C 
ATOM     26  C   UNL A   1      41.433 -36.362 -30.770  0.00  0.00    -0.049 C 
ATOM     27  C   UNL A   1      41.237 -37.863 -30.501  0.00  0.00    -0.047 C 
ATOM     28  C   UNL A   1      40.135 -38.130 -29.460  0.00  0.00    -0.012 C 
ENDBRANCH  15  16
ENDBRANCH   4  15
TORSDOF 4
ENDMDL
MODEL 3
REMARK VINA RESULT:    -7.770      3.709      7.087
REMARK INTER + INTRA:         -10.370
REMARK INTER:                  -9.316
REMARK INTRA:                  -1.054
REMARK UNBOUND:                -0.783
REMARK  Name = cpd360.pdb
REMARK  5 active torsions:
REMARK  status: ('A' for Active; 'I' for Inactive)
REMARK    1  A    between atoms: C_1  and  C_2
REMARK    2  A    between atoms: C_7  and  C_8
REMARK    3  A    between atoms: C_8  and  N_9
REMARK    4  A    between atoms: C_12  and  C_13
REMARK    5  A    between atoms: C_13  and  N_14
REMARK                            x       y       z     vdW  Elec       q    Type
REMARK                         _______ _______ _______ _____ _____    ______ ____
ROOT
ATOM      1  N   UNL A   1      34.278 -40.885 -30.642  0.00  0.00    -0.349 N 
ATOM      2  C   UNL A   1      35.286 -40.341 -31.361  0.00  0.00    +0.005 A 
ATOM      3  C   UNL A   1      36.142 -39.406 -30.789  0.00  0.00    -0.041 A 
ATOM      4  C   UNL A   1      35.965 -39.014 -29.460  0.00  0.00    -0.025 A 
ATOM      5  C   UNL A   1      34.946 -39.623 -28.728  0.00  0.00    -0.041 A 
ATOM      6  C   UNL A   1      34.113 -40.556 -29.338  0.00  0.00    +0.005 A 
ENDROOT
BRANCH   1   7
ATOM      7  C   UNL A   1      33.368 -41.871 -31.283  0.00  0.00    +0.048 C 
BRANCH   7  14
ATOM      8  C   UNL A   1      31.502 -39.656 -32.243  0.00  0.00    -0.039 C 
ATOM      9  C   UNL A   1      32.267 -40.546 -33.186  0.00  0.00    -0.046 A 
ATOM     10  C   UNL A   1      32.073 -40.363 -34.566  0.00  0.00    -0.059 A 
ATOM     11  C   UNL A   1      32.745 -41.150 -35.498  0.00  0.00    -0.061 A 
ATOM     12  C   UNL A   1      33.620 -42.139 -35.068  0.00  0.00    -0.061 A 
ATOM     13  C   UNL A   1      33.815 -42.348 -33.704  0.00  0.00    -0.057 A 
ATOM     14  C   UNL A   1      33.135 -41.570 -32.745  0.00  0.00    -0.025 A 
ENDBRANCH   7  14
ENDBRANCH   1   7
BRANCH   4  15
ATOM     15  C   UNL A   1      36.845 -37.954 -28.824  0.00  0.00    +0.049 C 
BRANCH  15  16
ATOM     16  N   UNL A   1      36.890 -36.740 -29.635  0.00  0.00    -0.339 N 
ATOM     17  C   UNL A   1      35.901 -35.791 -29.715  0.00  0.00    +0.023 A 
ATOM     18  C   UNL A   1      36.342 -34.783 -30.550  0.00  0.00    -0.019 A 
ATOM     19  C   UNL A   1      37.644 -35.129 -30.998  0.00  0.00    +0.003 A 
ATOM     20  C   UNL A   1      38.579 -34.506 -31.850  0.00  0.00    -0.052 A 
ATOM     21  C   UNL A   1      39.799 -35.136 -32.117  0.00  0.00    -0.061 A 
ATOM     22  C   UNL A   1      40.094 -36.372 -31.553  0.00  0.00    -0.060 A 
ATOM     23  C   UNL A   1      39.184 -37.009 -30.702  0.00  0.00    -0.038 A 
ATOM     24  C   UNL A   1      37.963 -36.367 -30.431  0.00  0.00    +0.050 A 
ATOM     25  C   UNL A   1      35.522 -33.574 -30.867  0.00  0.00    -0.025 C 
ATOM     26  C   UNL A   1      34.042 -33.797 -30.508  0.00  0.00    -0.049 C 
ATOM     27  C   UNL A   1      33.881 -34.461 -29.131  0.00  0.00    -0.047 C 
ATOM     28  C   UNL A   1      34.554 -35.843 -29.067  0.00  0.00    -0.012 C 
ENDBRANCH  15  16
ENDBRANCH   4  15
TORSDOF 4
ENDMDL
MODEL 4
REMARK VINA RESULT:    -7.701      2.245      8.082
REMARK INTER + INTRA:         -10.285
REMARK INTER:                  -9.328
REMARK INTRA:                  -0.957
REMARK UNBOUND:                -0.783
REMARK  Name = cpd360.pdb
REMARK  5 active torsions:
REMARK  status: ('A' for Active; 'I' for Inactive)
REMARK    1  A    between atoms: C_1  and  C_2
REMARK    2  A    between atoms: C_7  and  C_8
REMARK    3  A    between atoms: C_8  and  N_9
REMARK    4  A    between atoms: C_12  and  C_13
REMARK    5  A    between atoms: C_13  and  N_14
REMARK                            x       y       z     vdW  Elec       q    Type
REMARK                         _______ _______ _______ _____ _____    ______ ____
ROOT
ATOM      1  N   UNL A   1      37.081 -37.788 -29.297  0.00  0.00    -0.349 N 
ATOM      2  C   UNL A   1      36.490 -36.762 -28.642  0.00  0.00    +0.005 A 
ATOM      3  C   UNL A   1      35.106 -36.632 -28.627  0.00  0.00    -0.041 A 
ATOM      4  C   UNL A   1      34.307 -37.564 -29.296  0.00  0.00    -0.025 A 
ATOM      5  C   UNL A   1      34.939 -38.636 -29.925  0.00  0.00    -0.041 A 
ATOM      6  C   UNL A   1      36.327 -38.730 -29.914  0.00  0.00    +0.005 A 
ENDROOT
BRANCH   1   7
ATOM      7  C   UNL A   1      38.563 -37.894 -29.310  0.00  0.00    +0.048 C 
BRANCH   7  14
ATOM      8  C   UNL A   1      41.495 -38.233 -30.087  0.00  0.00    -0.039 C 
ATOM      9  C   UNL A   1      40.534 -37.379 -30.871  0.00  0.00    -0.046 A 
ATOM     10  C   UNL A   1      41.034 -36.683 -31.986  0.00  0.00    -0.059 A 
ATOM     11  C   UNL A   1      40.205 -35.872 -32.758  0.00  0.00    -0.061 A 
ATOM     12  C   UNL A   1      38.863 -35.739 -32.429  0.00  0.00    -0.061 A 
ATOM     13  C   UNL A   1      38.351 -36.408 -31.318  0.00  0.00    -0.057 A 
ATOM     14  C   UNL A   1      39.176 -37.223 -30.517  0.00  0.00    -0.025 A 
ENDBRANCH   7  14
ENDBRANCH   1   7
BRANCH   4  15
ATOM     15  C   UNL A   1      32.797 -37.419 -29.348  0.00  0.00    +0.049 C 
BRANCH  15  16
ATOM     16  N   UNL A   1      32.379 -36.584 -30.470  0.00  0.00    -0.339 N 
ATOM     17  C   UNL A   1      32.193 -35.224 -30.435  0.00  0.00    +0.023 A 
ATOM     18  C   UNL A   1      31.841 -34.806 -31.703  0.00  0.00    -0.019 A 
ATOM     19  C   UNL A   1      31.806 -35.951 -32.543  0.00  0.00    +0.003 A 
ATOM     20  C   UNL A   1      31.517 -36.149 -33.908  0.00  0.00    -0.052 A 
ATOM     21  C   UNL A   1      31.547 -37.441 -34.442  0.00  0.00    -0.061 A 
ATOM     22  C   UNL A   1      31.857 -38.531 -33.635  0.00  0.00    -0.060 A 
ATOM     23  C   UNL A   1      32.150 -38.360 -32.278  0.00  0.00    -0.038 A 
ATOM     24  C   UNL A   1      32.126 -37.058 -31.750  0.00  0.00    +0.050 A 
ATOM     25  C   UNL A   1      31.565 -33.376 -32.040  0.00  0.00    -0.025 C 
ATOM     26  C   UNL A   1      31.316 -32.545 -30.769  0.00  0.00    -0.049 C 
ATOM     27  C   UNL A   1      32.342 -32.861 -29.668  0.00  0.00    -0.047 C 
ATOM     28  C   UNL A   1      32.295 -34.338 -29.235  0.00  0.00    -0.012 C 
ENDBRANCH  15  16
ENDBRANCH   4  15
TORSDOF 4
ENDMDL
MODEL 5
REMARK VINA RESULT:    -7.692     15.664     19.061
REMARK INTER + INTRA:         -10.275
REMARK INTER:                  -9.360
REMARK INTRA:                  -0.914
REMARK UNBOUND:                -0.783
REMARK  Name = cpd360.pdb
REMARK  5 active torsions:
REMARK  status: ('A' for Active; 'I' for Inactive)
REMARK    1  A    between atoms: C_1  and  C_2
REMARK    2  A    between atoms: C_7  and  C_8
REMARK    3  A    between atoms: C_8  and  N_9
REMARK    4  A    between atoms: C_12  and  C_13
REMARK    5  A    between atoms: C_13  and  N_14
REMARK                            x       y       z     vdW  Elec       q    Type
REMARK                         _______ _______ _______ _____ _____    ______ ____
ROOT
ATOM      1  N   UNL A   1      43.472 -20.862 -40.011  0.00  0.00    -0.349 N 
ATOM      2  C   UNL A   1      43.354 -20.893 -38.663  0.00  0.00    +0.005 A 
ATOM      3  C   UNL A   1      42.198 -21.374 -38.062  0.00  0.00    -0.041 A 
ATOM      4  C   UNL A   1      41.136 -21.830 -38.848  0.00  0.00    -0.025 A 
ATOM      5  C   UNL A   1      41.300 -21.829 -40.233  0.00  0.00    -0.041 A 
ATOM      6  C   UNL A   1      42.475 -21.341 -40.794  0.00  0.00    +0.005 A 
ENDROOT
BRANCH   1   7
ATOM      7  C   UNL A   1      44.714 -20.328 -40.628  0.00  0.00    +0.048 C 
BRANCH   7  14
ATOM      8  C   UNL A   1      46.887 -21.326 -38.732  0.00  0.00    -0.039 C 
ATOM      9  C   UNL A   1      46.694 -21.879 -40.119  0.00  0.00    -0.046 A 
ATOM     10  C   UNL A   1      47.587 -22.872 -40.560  0.00  0.00    -0.059 A 
ATOM     11  C   UNL A   1      47.472 -23.430 -41.831  0.00  0.00    -0.061 A 
ATOM     12  C   UNL A   1      46.466 -23.003 -42.687  0.00  0.00    -0.061 A 
ATOM     13  C   UNL A   1      45.580 -22.009 -42.276  0.00  0.00    -0.057 A 
ATOM     14  C   UNL A   1      45.687 -21.423 -40.998  0.00  0.00    -0.025 A 
ENDBRANCH   7  14
ENDBRANCH   1   7
BRANCH   4  15
ATOM     15  C   UNL A   1      39.838 -22.307 -38.223  0.00  0.00    +0.049 C 
BRANCH  15  16
ATOM     16  N   UNL A   1      39.393 -21.408 -37.162  0.00  0.00    -0.339 N 
ATOM     17  C   UNL A   1      38.921 -20.130 -37.337  0.00  0.00    +0.023 A 
ATOM     18  C   UNL A   1      38.566 -19.631 -36.099  0.00  0.00    -0.019 A 
ATOM     19  C   UNL A   1      38.833 -20.637 -35.133  0.00  0.00    +0.003 A 
ATOM     20  C   UNL A   1      38.681 -20.709 -33.733  0.00  0.00    -0.052 A 
ATOM     21  C   UNL A   1      39.072 -21.866 -33.053  0.00  0.00    -0.061 A 
ATOM     22  C   UNL A   1      39.613 -22.943 -33.745  0.00  0.00    -0.060 A 
ATOM     23  C   UNL A   1      39.772 -22.898 -35.135  0.00  0.00    -0.038 A 
ATOM     24  C   UNL A   1      39.370 -21.735 -35.814  0.00  0.00    +0.050 A 
ATOM     25  C   UNL A   1      38.004 -18.259 -35.907  0.00  0.00    -0.025 C 
ATOM     26  C   UNL A   1      38.264 -17.376 -37.140  0.00  0.00    -0.049 C 
ATOM     27  C   UNL A   1      37.966 -18.120 -38.452  0.00  0.00    -0.047 C 
ATOM     28  C   UNL A   1      38.846 -19.372 -38.624  0.00  0.00    -0.012 C 
ENDBRANCH  15  16
ENDBRANCH   4  15
TORSDOF 4
ENDMDL
MODEL 6
REMARK VINA RESULT:    -7.637     15.827     19.132
REMARK INTER + INTRA:         -10.206
REMARK INTER:                  -9.164
REMARK INTRA:                  -1.042
REMARK UNBOUND:                -0.783
REMARK  Name = cpd360.pdb
REMARK  5 active torsions:
REMARK  status: ('A' for Active; 'I' for Inactive)
REMARK    1  A    between atoms: C_1  and  C_2
REMARK    2  A    between atoms: C_7  and  C_8
REMARK    3  A    between atoms: C_8  and  N_9
REMARK    4  A    between atoms: C_12  and  C_13
REMARK    5  A    between atoms: C_13  and  N_14
REMARK                            x       y       z     vdW  Elec       q    Type
REMARK                         _______ _______ _______ _____ _____    ______ ____
ROOT
ATOM      1  N   UNL A   1      43.783 -20.788 -39.753  0.00  0.00    -0.349 N 
ATOM      2  C   UNL A   1      43.781 -20.786 -38.400  0.00  0.00    +0.005 A 
ATOM      3  C   UNL A   1      42.686 -21.264 -37.690  0.00  0.00    -0.041 A 
ATOM      4  C   UNL A   1      41.566 -21.749 -38.372  0.00  0.00    -0.025 A 
ATOM      5  C   UNL A   1      41.611 -21.781 -39.766  0.00  0.00    -0.041 A 
ATOM      6  C   UNL A   1      42.729 -21.295 -40.437  0.00  0.00    +0.005 A 
ENDROOT
BRANCH   1   7
ATOM      7  C   UNL A   1      44.962 -20.257 -40.486  0.00  0.00    +0.048 C 
BRANCH   7  14
ATOM      8  C   UNL A   1      44.992 -21.920 -43.045  0.00  0.00    -0.039 C 
ATOM      9  C   UNL A   1      46.003 -22.095 -41.944  0.00  0.00    -0.046 A 
ATOM     10  C   UNL A   1      46.975 -23.100 -42.098  0.00  0.00    -0.059 A 
ATOM     11  C   UNL A   1      47.941 -23.322 -41.121  0.00  0.00    -0.061 A 
ATOM     12  C   UNL A   1      47.953 -22.548 -39.968  0.00  0.00    -0.061 A 
ATOM     13  C   UNL A   1      46.989 -21.557 -39.788  0.00  0.00    -0.057 A 
ATOM     14  C   UNL A   1      45.995 -21.325 -40.760  0.00  0.00    -0.025 A 
ENDBRANCH   7  14
ENDBRANCH   1   7
BRANCH   4  15
ATOM     15  C   UNL A   1      40.331 -22.223 -37.628  0.00  0.00    +0.049 C 
BRANCH  15  16
ATOM     16  N   UNL A   1      39.891 -21.240 -36.642  0.00  0.00    -0.339 N 
ATOM     17  C   UNL A   1      40.025 -21.353 -35.280  0.00  0.00    +0.023 A 
ATOM     18  C   UNL A   1      39.526 -20.201 -34.704  0.00  0.00    -0.019 A 
ATOM     19  C   UNL A   1      39.067 -19.356 -35.749  0.00  0.00    +0.003 A 
ATOM     20  C   UNL A   1      38.470 -18.079 -35.778  0.00  0.00    -0.052 A 
ATOM     21  C   UNL A   1      38.103 -17.516 -37.004  0.00  0.00    -0.061 A 
ATOM     22  C   UNL A   1      38.318 -18.206 -38.191  0.00  0.00    -0.060 A 
ATOM     23  C   UNL A   1      38.911 -19.473 -38.189  0.00  0.00    -0.038 A 
ATOM     24  C   UNL A   1      39.285 -20.031 -36.955  0.00  0.00    +0.050 A 
ATOM     25  C   UNL A   1      39.514 -19.973 -33.227  0.00  0.00    -0.025 C 
ATOM     26  C   UNL A   1      39.720 -21.290 -32.459  0.00  0.00    -0.049 C 
ATOM     27  C   UNL A   1      40.850 -22.137 -33.067  0.00  0.00    -0.047 C 
ATOM     28  C   UNL A   1      40.563 -22.528 -34.528  0.00  0.00    -0.012 C 
ENDBRANCH  15  16
ENDBRANCH   4  15
TORSDOF 4
ENDMDL
MODEL 7
REMARK VINA RESULT:    -7.496     16.630     19.481
REMARK INTER + INTRA:         -10.032
REMARK INTER:                  -9.042
REMARK INTRA:                  -0.990
REMARK UNBOUND:                -0.783
REMARK  Name = cpd360.pdb
REMARK  5 active torsions:
REMARK  status: ('A' for Active; 'I' for Inactive)
REMARK    1  A    between atoms: C_1  and  C_2
REMARK    2  A    between atoms: C_7  and  C_8
REMARK    3  A    between atoms: C_8  and  N_9
REMARK    4  A    between atoms: C_12  and  C_13
REMARK    5  A    between atoms: C_13  and  N_14
REMARK                            x       y       z     vdW  Elec       q    Type
REMARK                         _______ _______ _______ _____ _____    ______ ____
ROOT
ATOM      1  N   UNL A   1      44.512 -19.258 -39.608  0.00  0.00    -0.349 N 
ATOM      2  C   UNL A   1      43.823 -18.095 -39.554  0.00  0.00    +0.005 A 
ATOM      3  C   UNL A   1      42.610 -18.018 -38.880  0.00  0.00    -0.041 A 
ATOM      4  C   UNL A   1      42.084 -19.150 -38.251  0.00  0.00    -0.025 A 
ATOM      5  C   UNL A   1      42.836 -20.325 -38.283  0.00  0.00    -0.041 A 
ATOM      6  C   UNL A   1      44.047 -20.357 -38.967  0.00  0.00    +0.005 A 
ENDROOT
BRANCH   1   7
ATOM      7  C   UNL A   1      45.799 -19.315 -40.349  0.00  0.00    +0.048 C 
BRANCH   7  14
ATOM      8  C   UNL A   1      44.280 -19.795 -42.952  0.00  0.00    -0.039 C 
ATOM      9  C   UNL A   1      45.229 -20.803 -42.361  0.00  0.00    -0.046 A 
ATOM     10  C   UNL A   1      45.383 -22.030 -43.030  0.00  0.00    -0.059 A 
ATOM     11  C   UNL A   1      46.242 -23.012 -42.542  0.00  0.00    -0.061 A 
ATOM     12  C   UNL A   1      46.961 -22.788 -41.376  0.00  0.00    -0.061 A 
ATOM     13  C   UNL A   1      46.811 -21.584 -40.689  0.00  0.00    -0.057 A 
ATOM     14  C   UNL A   1      45.938 -20.583 -41.159  0.00  0.00    -0.025 A 
ENDBRANCH   7  14
ENDBRANCH   1   7
BRANCH   4  15
ATOM     15  C   UNL A   1      40.736 -19.114 -37.556  0.00  0.00    +0.049 C 
BRANCH  15  16
ATOM     16  N   UNL A   1      40.787 -19.776 -36.255  0.00  0.00    -0.339 N 
ATOM     17  C   UNL A   1      40.202 -20.978 -35.941  0.00  0.00    +0.023 A 
ATOM     18  C   UNL A   1      40.516 -21.278 -34.630  0.00  0.00    -0.019 A 
ATOM     19  C   UNL A   1      41.319 -20.221 -34.123  0.00  0.00    +0.003 A 
ATOM     20  C   UNL A   1      41.927 -19.971 -32.876  0.00  0.00    -0.052 A 
ATOM     21  C   UNL A   1      42.652 -18.792 -32.684  0.00  0.00    -0.061 A 
ATOM     22  C   UNL A   1      42.774 -17.863 -33.711  0.00  0.00    -0.060 A 
ATOM     23  C   UNL A   1      42.183 -18.088 -34.958  0.00  0.00    -0.038 A 
ATOM     24  C   UNL A   1      41.461 -19.280 -35.148  0.00  0.00    +0.050 A 
ATOM     25  C   UNL A   1      40.049 -22.523 -33.948  0.00  0.00    -0.025 C 
ATOM     26  C   UNL A   1      38.885 -23.174 -34.716  0.00  0.00    -0.049 C 
ATOM     27  C   UNL A   1      39.149 -23.214 -36.230  0.00  0.00    -0.047 C 
ATOM     28  C   UNL A   1      39.329 -21.807 -36.828  0.00  0.00    -0.012 C 
ENDBRANCH  15  16
ENDBRANCH   4  15
TORSDOF 4
ENDMDL
MODEL 8
REMARK VINA RESULT:    -7.398     17.524     20.533
REMARK INTER + INTRA:          -9.911
REMARK INTER:                  -8.876
REMARK INTRA:                  -1.035
REMARK UNBOUND:                -0.783
REMARK  Name = cpd360.pdb
REMARK  5 active torsions:
REMARK  status: ('A' for Active; 'I' for Inactive)
REMARK    1  A    between atoms: C_1  and  C_2
REMARK    2  A    between atoms: C_7  and  C_8
REMARK    3  A    between atoms: C_8  and  N_9
REMARK    4  A    between atoms: C_12  and  C_13
REMARK    5  A    between atoms: C_13  and  N_14
REMARK                            x       y       z     vdW  Elec       q    Type
REMARK                         _______ _______ _______ _____ _____    ______ ____
ROOT
ATOM      1  N   UNL A   1      45.613 -19.328 -38.701  0.00  0.00    -0.349 N 
ATOM      2  C   UNL A   1      44.404 -19.788 -38.306  0.00  0.00    +0.005 A 
ATOM      3  C   UNL A   1      44.158 -20.080 -36.970  0.00  0.00    -0.041 A 
ATOM      4  C   UNL A   1      45.164 -19.905 -36.016  0.00  0.00    -0.025 A 
ATOM      5  C   UNL A   1      46.387 -19.386 -36.443  0.00  0.00    -0.041 A 
ATOM      6  C   UNL A   1      46.591 -19.104 -37.790  0.00  0.00    +0.005 A 
ENDROOT
BRANCH   1   7
ATOM      7  C   UNL A   1      45.854 -19.038 -40.139  0.00  0.00    +0.048 C 
BRANCH   7  14
ATOM      8  C   UNL A   1      44.201 -19.432 -42.673  0.00  0.00    -0.039 C 
ATOM      9  C   UNL A   1      45.149 -20.476 -42.145  0.00  0.00    -0.046 A 
ATOM     10  C   UNL A   1      45.236 -21.695 -42.839  0.00  0.00    -0.059 A 
ATOM     11  C   UNL A   1      46.089 -22.708 -42.408  0.00  0.00    -0.061 A 
ATOM     12  C   UNL A   1      46.869 -22.523 -41.274  0.00  0.00    -0.061 A 
ATOM     13  C   UNL A   1      46.785 -21.327 -40.562  0.00  0.00    -0.057 A 
ATOM     14  C   UNL A   1      45.919 -20.295 -40.974  0.00  0.00    -0.025 A 
ENDBRANCH   7  14
ENDBRANCH   1   7
BRANCH   4  15
ATOM     15  C   UNL A   1      44.946 -20.269 -34.559  0.00  0.00    +0.049 C 
BRANCH  15  16
ATOM     16  N   UNL A   1      43.874 -19.475 -33.965  0.00  0.00    -0.339 N 
ATOM     17  C   UNL A   1      43.928 -18.130 -33.690  0.00  0.00    +0.023 A 
ATOM     18  C   UNL A   1      42.704 -17.749 -33.175  0.00  0.00    -0.019 A 
ATOM     19  C   UNL A   1      41.874 -18.900 -33.131  0.00  0.00    +0.003 A 
ATOM     20  C   UNL A   1      40.548 -19.130 -32.712  0.00  0.00    -0.052 A 
ATOM     21  C   UNL A   1      40.016 -20.421 -32.776  0.00  0.00    -0.061 A 
ATOM     22  C   UNL A   1      40.785 -21.480 -33.246  0.00  0.00    -0.060 A 
ATOM     23  C   UNL A   1      42.102 -21.278 -33.670  0.00  0.00    -0.038 A 
ATOM     24  C   UNL A   1      42.629 -19.976 -33.611  0.00  0.00    +0.050 A 
ATOM     25  C   UNL A   1      42.398 -16.345 -32.764  0.00  0.00    -0.025 C 
ATOM     26  C   UNL A   1      43.688 -15.522 -32.596  0.00  0.00    -0.049 C 
ATOM     27  C   UNL A   1      44.672 -15.757 -33.753  0.00  0.00    -0.047 C 
ATOM     28  C   UNL A   1      45.109 -17.229 -33.856  0.00  0.00    -0.012 C 
ENDBRANCH  15  16
ENDBRANCH   4  15
TORSDOF 4
ENDMDL
MODEL 9
REMARK VINA RESULT:    -7.353      3.978      7.025
REMARK INTER + INTRA:          -9.856
REMARK INTER:                  -8.824
REMARK INTRA:                  -1.031
REMARK UNBOUND:                -0.783
REMARK  Name = cpd360.pdb
REMARK  5 active torsions:
REMARK  status: ('A' for Active; 'I' for Inactive)
REMARK    1  A    between atoms: C_1  and  C_2
REMARK    2  A    between atoms: C_7  and  C_8
REMARK    3  A    between atoms: C_8  and  N_9
REMARK    4  A    between atoms: C_12  and  C_13
REMARK    5  A    between atoms: C_13  and  N_14
REMARK                            x       y       z     vdW  Elec       q    Type
REMARK                         _______ _______ _______ _____ _____    ______ ____
ROOT
ATOM      1  N   UNL A   1      33.284 -36.608 -24.628  0.00  0.00    -0.349 N 
ATOM      2  C   UNL A   1      32.371 -35.904 -25.336  0.00  0.00    +0.005 A 
ATOM      3  C   UNL A   1      32.308 -36.014 -26.720  0.00  0.00    -0.041 A 
ATOM      4  C   UNL A   1      33.196 -36.854 -27.399  0.00  0.00    -0.025 A 
ATOM      5  C   UNL A   1      34.097 -37.602 -26.641  0.00  0.00    -0.041 A 
ATOM      6  C   UNL A   1      34.125 -37.465 -25.257  0.00  0.00    +0.005 A 
ENDROOT
BRANCH   1   7
ATOM      7  C   UNL A   1      33.339 -36.460 -23.150  0.00  0.00    +0.048 C 
BRANCH   7  14
ATOM      8  C   UNL A   1      34.841 -37.558 -20.731  0.00  0.00    -0.039 C 
ATOM      9  C   UNL A   1      33.628 -38.231 -21.315  0.00  0.00    -0.046 A 
ATOM     10  C   UNL A   1      33.203 -39.438 -20.732  0.00  0.00    -0.059 A 
ATOM     11  C   UNL A   1      32.091 -40.119 -21.219  0.00  0.00    -0.061 A 
ATOM     12  C   UNL A   1      31.383 -39.609 -22.300  0.00  0.00    -0.061 A 
ATOM     13  C   UNL A   1      31.797 -38.422 -22.902  0.00  0.00    -0.057 A 
ATOM     14  C   UNL A   1      32.927 -37.724 -22.431  0.00  0.00    -0.025 A 
ENDBRANCH   7  14
ENDBRANCH   1   7
BRANCH   4  15
ATOM     15  C   UNL A   1      33.192 -36.951 -28.913  0.00  0.00    +0.049 C 
BRANCH  15  16
ATOM     16  N   UNL A   1      34.184 -36.061 -29.508  0.00  0.00    -0.339 N 
ATOM     17  C   UNL A   1      33.998 -34.732 -29.801  0.00  0.00    +0.023 A 
ATOM     18  C   UNL A   1      35.182 -34.236 -30.311  0.00  0.00    -0.019 A 
ATOM     19  C   UNL A   1      36.124 -35.298 -30.334  0.00  0.00    +0.003 A 
ATOM     20  C   UNL A   1      37.470 -35.399 -30.741  0.00  0.00    -0.052 A 
ATOM     21  C   UNL A   1      38.128 -36.629 -30.656  0.00  0.00    -0.061 A 
ATOM     22  C   UNL A   1      37.465 -37.754 -30.179  0.00  0.00    -0.060 A 
ATOM     23  C   UNL A   1      36.130 -37.680 -29.767  0.00  0.00    -0.038 A 
ATOM     24  C   UNL A   1      35.476 -36.439 -29.847  0.00  0.00    +0.050 A 
ATOM     25  C   UNL A   1      35.349 -32.813 -30.737  0.00  0.00    -0.025 C 
ATOM     26  C   UNL A   1      33.985 -32.126 -30.926  0.00  0.00    -0.049 C 
ATOM     27  C   UNL A   1      33.018 -32.445 -29.773  0.00  0.00    -0.047 C 
ATOM     28  C   UNL A   1      32.731 -33.952 -29.655  0.00  0.00    -0.012 C 
ENDBRANCH  15  16
ENDBRANCH   4  15
TORSDOF 4
ENDMDL
MODEL 10
REMARK VINA RESULT:    -7.348     19.152     21.234
REMARK INTER + INTRA:          -9.850
REMARK INTER:                  -9.021
REMARK INTRA:                  -0.829
REMARK UNBOUND:                -0.783
REMARK  Name = cpd360.pdb
REMARK  5 active torsions:
REMARK  status: ('A' for Active; 'I' for Inactive)
REMARK    1  A    between atoms: C_1  and  C_2
REMARK    2  A    between atoms: C_7  and  C_8
REMARK    3  A    between atoms: C_8  and  N_9
REMARK    4  A    between atoms: C_12  and  C_13
REMARK    5  A    between atoms: C_13  and  N_14
REMARK                            x       y       z     vdW  Elec       q    Type
REMARK                         _______ _______ _______ _____ _____    ______ ____
ROOT
ATOM      1  N   UNL A   1      44.898 -19.015 -34.639  0.00  0.00    -0.349 N 
ATOM      2  C   UNL A   1      44.455 -19.720 -35.706  0.00  0.00    +0.005 A 
ATOM      3  C   UNL A   1      45.228 -19.830 -36.855  0.00  0.00    -0.041 A 
ATOM      4  C   UNL A   1      46.477 -19.205 -36.923  0.00  0.00    -0.025 A 
ATOM      5  C   UNL A   1      46.929 -18.522 -35.794  0.00  0.00    -0.041 A 
ATOM      6  C   UNL A   1      46.124 -18.439 -34.662  0.00  0.00    +0.005 A 
ENDROOT
BRANCH   1   7
ATOM      7  C   UNL A   1      44.043 -18.901 -33.428  0.00  0.00    +0.048 C 
BRANCH   7  14
ATOM      8  C   UNL A   1      41.866 -17.004 -34.413  0.00  0.00    -0.039 C 
ATOM      9  C   UNL A   1      42.911 -16.598 -33.409  0.00  0.00    -0.046 A 
ATOM     10  C   UNL A   1      42.893 -15.272 -32.943  0.00  0.00    -0.059 A 
ATOM     11  C   UNL A   1      43.830 -14.823 -32.015  0.00  0.00    -0.061 A 
ATOM     12  C   UNL A   1      44.804 -15.690 -31.538  0.00  0.00    -0.061 A 
ATOM     13  C   UNL A   1      44.849 -17.004 -32.000  0.00  0.00    -0.057 A 
ATOM     14  C   UNL A   1      43.918 -17.474 -32.948  0.00  0.00    -0.025 A 
ENDBRANCH   7  14
ENDBRANCH   1   7
BRANCH   4  15
ATOM     15  C   UNL A   1      47.320 -19.257 -38.184  0.00  0.00    +0.049 C 
BRANCH  15  16
ATOM     16  N   UNL A   1      46.487 -19.347 -39.380  0.00  0.00    -0.339 N 
ATOM     17  C   UNL A   1      45.716 -18.336 -39.899  0.00  0.00    +0.023 A 
ATOM     18  C   UNL A   1      45.118 -18.803 -41.053  0.00  0.00    -0.019 A 
ATOM     19  C   UNL A   1      45.534 -20.147 -41.245  0.00  0.00    +0.003 A 
ATOM     20  C   UNL A   1      45.260 -21.122 -42.225  0.00  0.00    -0.052 A 
ATOM     21  C   UNL A   1      45.824 -22.396 -42.111  0.00  0.00    -0.061 A 
ATOM     22  C   UNL A   1      46.649 -22.709 -41.037  0.00  0.00    -0.060 A 
ATOM     23  C   UNL A   1      46.939 -21.759 -40.052  0.00  0.00    -0.038 A 
ATOM     24  C   UNL A   1      46.375 -20.477 -40.177  0.00  0.00    +0.050 A 
ATOM     25  C   UNL A   1      44.206 -17.966 -41.891  0.00  0.00    -0.025 C 
ATOM     26  C   UNL A   1      43.710 -16.734 -41.112  0.00  0.00    -0.049 C 
ATOM     27  C   UNL A   1      44.850 -16.046 -40.344  0.00  0.00    -0.047 C 
ATOM     28  C   UNL A   1      45.502 -16.979 -39.308  0.00  0.00    -0.012 C 
ENDBRANCH  15  16
ENDBRANCH   4  15
TORSDOF 4
ENDMDL
MODEL 11
REMARK VINA RESULT:    -7.346     16.201     19.079
REMARK INTER + INTRA:          -9.847
REMARK INTER:                  -8.666
REMARK INTRA:                  -1.181
REMARK UNBOUND:                -0.783
REMARK  Name = cpd360.pdb
REMARK  5 active torsions:
REMARK  status: ('A' for Active; 'I' for Inactive)
REMARK    1  A    between atoms: C_1  and  C_2
REMARK    2  A    between atoms: C_7  and  C_8
REMARK    3  A    between atoms: C_8  and  N_9
REMARK    4  A    between atoms: C_12  and  C_13
REMARK    5  A    between atoms: C_13  and  N_14
REMARK                            x       y       z     vdW  Elec       q    Type
REMARK                         _______ _______ _______ _____ _____    ______ ____
ROOT
ATOM      1  N   UNL A   1      42.169 -21.262 -40.081  0.00  0.00    -0.349 N 
ATOM      2  C   UNL A   1      42.239 -19.956 -39.734  0.00  0.00    +0.005 A 
ATOM      3  C   UNL A   1      41.538 -19.474 -38.635  0.00  0.00    -0.041 A 
ATOM      4  C   UNL A   1      40.745 -20.338 -37.875  0.00  0.00    -0.025 A 
ATOM      5  C   UNL A   1      40.725 -21.687 -38.227  0.00  0.00    -0.041 A 
ATOM      6  C   UNL A   1      41.444 -22.129 -39.333  0.00  0.00    +0.005 A 
ENDROOT
BRANCH   1   7
ATOM      7  C   UNL A   1      42.917 -21.748 -41.270  0.00  0.00    +0.048 C 
BRANCH   7  14
ATOM      8  C   UNL A   1      44.119 -19.607 -43.082  0.00  0.00    -0.039 C 
ATOM      9  C   UNL A   1      44.930 -20.372 -42.070  0.00  0.00    -0.046 A 
ATOM     10  C   UNL A   1      46.308 -20.104 -41.996  0.00  0.00    -0.059 A 
ATOM     11  C   UNL A   1      47.123 -20.773 -41.086  0.00  0.00    -0.061 A 
ATOM     12  C   UNL A   1      46.577 -21.725 -40.236  0.00  0.00    -0.061 A 
ATOM     13  C   UNL A   1      45.216 -22.018 -40.304  0.00  0.00    -0.057 A 
ATOM     14  C   UNL A   1      44.377 -21.360 -41.226  0.00  0.00    -0.025 A 
ENDBRANCH   7  14
ENDBRANCH   1   7
BRANCH   4  15
ATOM     15  C   UNL A   1      39.922 -19.832 -36.706  0.00  0.00    +0.049 C 
BRANCH  15  16
ATOM     16  N   UNL A   1      40.619 -20.027 -35.438  0.00  0.00    -0.339 N 
ATOM     17  C   UNL A   1      41.483 -19.136 -34.851  0.00  0.00    +0.023 A 
ATOM     18  C   UNL A   1      41.897 -19.670 -33.646  0.00  0.00    -0.019 A 
ATOM     19  C   UNL A   1      41.268 -20.934 -33.492  0.00  0.00    +0.003 A 
ATOM     20  C   UNL A   1      41.302 -21.924 -32.490  0.00  0.00    -0.052 A 
ATOM     21  C   UNL A   1      40.565 -23.101 -32.654  0.00  0.00    -0.061 A 
ATOM     22  C   UNL A   1      39.803 -23.303 -33.799  0.00  0.00    -0.060 A 
ATOM     23  C   UNL A   1      39.750 -22.335 -34.808  0.00  0.00    -0.038 A 
ATOM     24  C   UNL A   1      40.487 -21.150 -34.633  0.00  0.00    +0.050 A 
ATOM     25  C   UNL A   1      42.845 -18.967 -32.729  0.00  0.00    -0.025 C 
ATOM     26  C   UNL A   1      43.588 -17.835 -33.460  0.00  0.00    -0.049 C 
ATOM     27  C   UNL A   1      42.639 -16.995 -34.330  0.00  0.00    -0.047 C 
ATOM     28  C   UNL A   1      41.951 -17.835 -35.421  0.00  0.00    -0.012 C 
ENDBRANCH  15  16
ENDBRANCH   4  15
TORSDOF 4
ENDMDL
MODEL 12
REMARK VINA RESULT:    -7.332     16.053     18.132
REMARK INTER + INTRA:          -9.829
REMARK INTER:                  -9.237
REMARK INTRA:                  -0.593
REMARK UNBOUND:                -0.783
REMARK  Name = cpd360.pdb
REMARK  5 active torsions:
REMARK  status: ('A' for Active; 'I' for Inactive)
REMARK    1  A    between atoms: C_1  and  C_2
REMARK    2  A    between atoms: C_7  and  C_8
REMARK    3  A    between atoms: C_8  and  N_9
REMARK    4  A    between atoms: C_12  and  C_13
REMARK    5  A    between atoms: C_13  and  N_14
REMARK                            x       y       z     vdW  Elec       q    Type
REMARK                         _______ _______ _______ _____ _____    ______ ____
ROOT
ATOM      1  N   UNL A   1      40.224 -21.878 -37.194  0.00  0.00    -0.349 N 
ATOM      2  C   UNL A   1      41.551 -21.895 -36.934  0.00  0.00    +0.005 A 
ATOM      3  C   UNL A   1      42.423 -21.072 -37.638  0.00  0.00    -0.041 A 
ATOM      4  C   UNL A   1      41.935 -20.219 -38.631  0.00  0.00    -0.025 A 
ATOM      5  C   UNL A   1      40.557 -20.189 -38.848  0.00  0.00    -0.041 A 
ATOM      6  C   UNL A   1      39.719 -21.026 -38.119  0.00  0.00    +0.005 A 
ENDROOT
BRANCH   1   7
ATOM      7  C   UNL A   1      39.316 -22.779 -36.437  0.00  0.00    +0.048 C 
BRANCH   7  14
ATOM      8  C   UNL A   1      38.050 -24.353 -34.149  0.00  0.00    -0.039 C 
ATOM      9  C   UNL A   1      38.168 -22.852 -34.143  0.00  0.00    -0.046 A 
ATOM     10  C   UNL A   1      37.633 -22.157 -33.045  0.00  0.00    -0.059 A 
ATOM     11  C   UNL A   1      37.702 -20.768 -32.969  0.00  0.00    -0.061 A 
ATOM     12  C   UNL A   1      38.306 -20.048 -33.992  0.00  0.00    -0.061 A 
ATOM     13  C   UNL A   1      38.829 -20.717 -35.097  0.00  0.00    -0.057 A 
ATOM     14  C   UNL A   1      38.757 -22.121 -35.198  0.00  0.00    -0.025 A 
ENDBRANCH   7  14
ENDBRANCH   1   7
BRANCH   4  15
ATOM     15  C   UNL A   1      42.866 -19.352 -39.457  0.00  0.00    +0.049 C 
BRANCH  15  16
ATOM     16  N   UNL A   1      44.263 -19.731 -39.261  0.00  0.00    -0.339 N 
ATOM     17  C   UNL A   1      44.957 -20.650 -40.008  0.00  0.00    +0.023 A 
ATOM     18  C   UNL A   1      46.255 -20.692 -39.537  0.00  0.00    -0.019 A 
ATOM     19  C   UNL A   1      46.357 -19.770 -38.462  0.00  0.00    +0.003 A 
ATOM     20  C   UNL A   1      47.408 -19.383 -37.607  0.00  0.00    -0.052 A 
ATOM     21  C   UNL A   1      47.172 -18.438 -36.604  0.00  0.00    -0.061 A 
ATOM     22  C   UNL A   1      45.908 -17.882 -36.441  0.00  0.00    -0.060 A 
ATOM     23  C   UNL A   1      44.849 -18.248 -37.278  0.00  0.00    -0.038 A 
ATOM     24  C   UNL A   1      45.095 -19.191 -38.290  0.00  0.00    +0.050 A 
ATOM     25  C   UNL A   1      47.302 -21.585 -40.121  0.00  0.00    -0.025 C 
ATOM     26  C   UNL A   1      46.670 -22.695 -40.979  0.00  0.00    -0.049 C 
ATOM     27  C   UNL A   1      45.565 -22.150 -41.899  0.00  0.00    -0.047 C 
ATOM     28  C   UNL A   1      44.413 -21.506 -41.107  0.00  0.00    -0.012 C 
ENDBRANCH  15  16
ENDBRANCH   4  15
TORSDOF 4
ENDMDL
MODEL 13
REMARK VINA RESULT:    -7.321      4.194      7.272
REMARK INTER + INTRA:          -9.816
REMARK INTER:                  -8.715
REMARK INTRA:                  -1.101
REMARK UNBOUND:                -0.783
REMARK  Name = cpd360.pdb
REMARK  5 active torsions:
REMARK  status: ('A' for Active; 'I' for Inactive)
REMARK    1  A    between atoms: C_1  and  C_2
REMARK    2  A    between atoms: C_7  and  C_8
REMARK    3  A    between atoms: C_8  and  N_9
REMARK    4  A    between atoms: C_12  and  C_13
REMARK    5  A    between atoms: C_13  and  N_14
REMARK                            x       y       z     vdW  Elec       q    Type
REMARK                         _______ _______ _______ _____ _____    ______ ____
ROOT
ATOM      1  N   UNL A   1      33.116 -36.637 -24.233  0.00  0.00    -0.349 N 
ATOM      2  C   UNL A   1      33.968 -37.524 -24.795  0.00  0.00    +0.005 A 
ATOM      3  C   UNL A   1      34.035 -37.669 -26.176  0.00  0.00    -0.041 A 
ATOM      4  C   UNL A   1      33.212 -36.899 -27.003  0.00  0.00    -0.025 A 
ATOM      5  C   UNL A   1      32.374 -35.960 -26.400  0.00  0.00    -0.041 A 
ATOM      6  C   UNL A   1      32.341 -35.845 -25.014  0.00  0.00    +0.005 A 
ENDROOT
BRANCH   1   7
ATOM      7  C   UNL A   1      33.055 -36.513 -22.753  0.00  0.00    +0.048 C 
BRANCH   7  14
ATOM      8  C   UNL A   1      34.869 -37.788 -20.657  0.00  0.00    -0.039 C 
ATOM      9  C   UNL A   1      33.579 -38.417 -21.114  0.00  0.00    -0.046 A 
ATOM     10  C   UNL A   1      33.228 -39.664 -20.570  0.00  0.00    -0.059 A 
ATOM     11  C   UNL A   1      32.051 -40.307 -20.946  0.00  0.00    -0.061 A 
ATOM     12  C   UNL A   1      31.205 -39.718 -21.875  0.00  0.00    -0.061 A 
ATOM     13  C   UNL A   1      31.542 -38.488 -22.439  0.00  0.00    -0.057 A 
ATOM     14  C   UNL A   1      32.735 -37.827 -22.081  0.00  0.00    -0.025 A 
ENDBRANCH   7  14
ENDBRANCH   1   7
BRANCH   4  15
ATOM     15  C   UNL A   1      33.218 -37.074 -28.510  0.00  0.00    +0.049 C 
BRANCH  15  16
ATOM     16  N   UNL A   1      34.282 -36.293 -29.134  0.00  0.00    -0.339 N 
ATOM     17  C   UNL A   1      35.545 -36.745 -29.425  0.00  0.00    +0.023 A 
ATOM     18  C   UNL A   1      36.234 -35.721 -30.046  0.00  0.00    -0.019 A 
ATOM     19  C   UNL A   1      35.363 -34.603 -30.135  0.00  0.00    +0.003 A 
ATOM     20  C   UNL A   1      35.500 -33.300 -30.656  0.00  0.00    -0.052 A 
ATOM     21  C   UNL A   1      34.432 -32.403 -30.564  0.00  0.00    -0.061 A 
ATOM     22  C   UNL A   1      33.239 -32.784 -29.960  0.00  0.00    -0.060 A 
ATOM     23  C   UNL A   1      33.077 -34.072 -29.438  0.00  0.00    -0.038 A 
ATOM     24  C   UNL A   1      34.152 -34.972 -29.541  0.00  0.00    +0.050 A 
ATOM     25  C   UNL A   1      37.648 -35.860 -30.511  0.00  0.00    -0.025 C 
ATOM     26  C   UNL A   1      38.332 -37.073 -29.857  0.00  0.00    -0.049 C 
ATOM     27  C   UNL A   1      37.425 -38.315 -29.866  0.00  0.00    -0.047 C 
ATOM     28  C   UNL A   1      36.116 -38.086 -29.089  0.00  0.00    -0.012 C 
ENDBRANCH  15  16
ENDBRANCH   4  15
TORSDOF 4
ENDMDL
MODEL 14
REMARK VINA RESULT:    -7.305     17.322     20.231
REMARK INTER + INTRA:          -9.796
REMARK INTER:                  -8.767
REMARK INTRA:                  -1.030
REMARK UNBOUND:                -0.783
REMARK  Name = cpd360.pdb
REMARK  5 active torsions:
REMARK  status: ('A' for Active; 'I' for Inactive)
REMARK    1  A    between atoms: C_1  and  C_2
REMARK    2  A    between atoms: C_7  and  C_8
REMARK    3  A    between atoms: C_8  and  N_9
REMARK    4  A    between atoms: C_12  and  C_13
REMARK    5  A    between atoms: C_13  and  N_14
REMARK                            x       y       z     vdW  Elec       q    Type
REMARK                         _______ _______ _______ _____ _____    ______ ____
ROOT
ATOM      1  N   UNL A   1      45.700 -19.388 -38.331  0.00  0.00    -0.349 N 
ATOM      2  C   UNL A   1      44.453 -19.833 -38.050  0.00  0.00    +0.005 A 
ATOM      3  C   UNL A   1      44.083 -20.132 -36.744  0.00  0.00    -0.041 A 
ATOM      4  C   UNL A   1      45.003 -19.981 -35.702  0.00  0.00    -0.025 A 
ATOM      5  C   UNL A   1      46.267 -19.479 -36.013  0.00  0.00    -0.041 A 
ATOM      6  C   UNL A   1      46.595 -19.189 -37.334  0.00  0.00    +0.005 A 
ENDROOT
BRANCH   1   7
ATOM      7  C   UNL A   1      46.073 -19.090 -39.739  0.00  0.00    +0.048 C 
BRANCH   7  14
ATOM      8  C   UNL A   1      44.347 -19.366 -42.239  0.00  0.00    -0.039 C 
ATOM      9  C   UNL A   1      45.272 -20.453 -41.760  0.00  0.00    -0.046 A 
ATOM     10  C   UNL A   1      45.301 -21.657 -42.486  0.00  0.00    -0.059 A 
ATOM     11  C   UNL A   1      46.130 -22.708 -42.101  0.00  0.00    -0.061 A 
ATOM     12  C   UNL A   1      46.942 -22.577 -40.983  0.00  0.00    -0.061 A 
ATOM     13  C   UNL A   1      46.917 -21.398 -40.240  0.00  0.00    -0.057 A 
ATOM     14  C   UNL A   1      46.076 -20.327 -40.605  0.00  0.00    -0.025 A 
ENDBRANCH   7  14
ENDBRANCH   1   7
BRANCH   4  15
ATOM     15  C   UNL A   1      44.650 -20.354 -34.275  0.00  0.00    +0.049 C 
BRANCH  15  16
ATOM     16  N   UNL A   1      43.544 -19.545 -33.770  0.00  0.00    -0.339 N 
ATOM     17  C   UNL A   1      42.295 -20.010 -33.437  0.00  0.00    +0.023 A 
ATOM     18  C   UNL A   1      41.554 -18.946 -32.962  0.00  0.00    -0.019 A 
ATOM     19  C   UNL A   1      42.376 -17.789 -33.009  0.00  0.00    +0.003 A 
ATOM     20  C   UNL A   1      42.177 -16.437 -32.664  0.00  0.00    -0.052 A 
ATOM     21  C   UNL A   1      43.208 -15.514 -32.858  0.00  0.00    -0.061 A 
ATOM     22  C   UNL A   1      44.426 -15.917 -33.394  0.00  0.00    -0.060 A 
ATOM     23  C   UNL A   1      44.650 -17.254 -33.742  0.00  0.00    -0.038 A 
ATOM     24  C   UNL A   1      43.612 -18.179 -33.537  0.00  0.00    +0.050 A 
ATOM     25  C   UNL A   1      40.139 -19.084 -32.500  0.00  0.00    -0.025 C 
ATOM     26  C   UNL A   1      39.517 -20.400 -32.999  0.00  0.00    -0.049 C 
ATOM     27  C   UNL A   1      40.475 -21.590 -32.819  0.00  0.00    -0.047 C 
ATOM     28  C   UNL A   1      41.786 -21.406 -33.603  0.00  0.00    -0.012 C 
ENDBRANCH  15  16
ENDBRANCH   4  15
TORSDOF 4
ENDMDL
MODEL 15
REMARK VINA RESULT:    -7.303     17.811     20.028
REMARK INTER + INTRA:          -9.794
REMARK INTER:                  -8.581
REMARK INTRA:                  -1.214
REMARK UNBOUND:                -0.783
REMARK  Name = cpd360.pdb
REMARK  5 active torsions:
REMARK  status: ('A' for Active; 'I' for Inactive)
REMARK    1  A    between atoms: C_1  and  C_2
REMARK    2  A    between atoms: C_7  and  C_8
REMARK    3  A    between atoms: C_8  and  N_9
REMARK    4  A    between atoms: C_12  and  C_13
REMARK    5  A    between atoms: C_13  and  N_14
REMARK                            x       y       z     vdW  Elec       q    Type
REMARK                         _______ _______ _______ _____ _____    ______ ____
ROOT
ATOM      1  N   UNL A   1      42.688 -19.223 -35.096  0.00  0.00    -0.349 N 
ATOM      2  C   UNL A   1      43.604 -20.098 -34.622  0.00  0.00    +0.005 A 
ATOM      3  C   UNL A   1      44.922 -20.053 -35.061  0.00  0.00    -0.041 A 
ATOM      4  C   UNL A   1      45.315 -19.101 -36.007  0.00  0.00    -0.025 A 
ATOM      5  C   UNL A   1      44.361 -18.183 -36.445  0.00  0.00    -0.041 A 
ATOM      6  C   UNL A   1      43.053 -18.261 -35.978  0.00  0.00    +0.005 A 
ENDROOT
BRANCH   1   7
ATOM      7  C   UNL A   1      41.282 -19.302 -34.621  0.00  0.00    +0.048 C 
BRANCH   7  14
ATOM      8  C   UNL A   1      40.696 -21.602 -32.703  0.00  0.00    -0.039 C 
ATOM      9  C   UNL A   1      40.336 -21.644 -34.164  0.00  0.00    -0.046 A 
ATOM     10  C   UNL A   1      39.739 -22.816 -34.659  0.00  0.00    -0.059 A 
ATOM     11  C   UNL A   1      39.380 -22.929 -36.000  0.00  0.00    -0.061 A 
ATOM     12  C   UNL A   1      39.615 -21.874 -36.872  0.00  0.00    -0.061 A 
ATOM     13  C   UNL A   1      40.220 -20.709 -36.404  0.00  0.00    -0.057 A 
ATOM     14  C   UNL A   1      40.602 -20.580 -35.054  0.00  0.00    -0.025 A 
ENDBRANCH   7  14
ENDBRANCH   1   7
BRANCH   4  15
ATOM     15  C   UNL A   1      46.731 -19.063 -36.549  0.00  0.00    +0.049 C 
BRANCH  15  16
ATOM     16  N   UNL A   1      46.744 -18.848 -37.994  0.00  0.00    -0.339 N 
ATOM     17  C   UNL A   1      46.993 -17.654 -38.625  0.00  0.00    +0.023 A 
ATOM     18  C   UNL A   1      46.956 -17.874 -39.988  0.00  0.00    -0.019 A 
ATOM     19  C   UNL A   1      46.671 -19.250 -40.198  0.00  0.00    +0.003 A 
ATOM     20  C   UNL A   1      46.512 -20.047 -41.349  0.00  0.00    -0.052 A 
ATOM     21  C   UNL A   1      46.204 -21.404 -41.214  0.00  0.00    -0.061 A 
ATOM     22  C   UNL A   1      46.048 -21.971 -39.954  0.00  0.00    -0.060 A 
ATOM     23  C   UNL A   1      46.204 -21.202 -38.796  0.00  0.00    -0.038 A 
ATOM     24  C   UNL A   1      46.522 -19.840 -38.938  0.00  0.00    +0.050 A 
ATOM     25  C   UNL A   1      47.188 -16.792 -40.992  0.00  0.00    -0.025 C 
ATOM     26  C   UNL A   1      47.053 -15.400 -40.350  0.00  0.00    -0.049 C 
ATOM     27  C   UNL A   1      47.776 -15.321 -38.995  0.00  0.00    -0.047 C 
ATOM     28  C   UNL A   1      47.212 -16.326 -37.974  0.00  0.00    -0.012 C 
ENDBRANCH  15  16
ENDBRANCH   4  15
TORSDOF 4
ENDMDL
MODEL 16
REMARK VINA RESULT:    -7.302     17.392     19.588
REMARK INTER + INTRA:          -9.793
REMARK INTER:                  -8.748
REMARK INTRA:                  -1.045
REMARK UNBOUND:                -0.783
REMARK  Name = cpd360.pdb
REMARK  5 active torsions:
REMARK  status: ('A' for Active; 'I' for Inactive)
REMARK    1  A    between atoms: C_1  and  C_2
REMARK    2  A    between atoms: C_7  and  C_8
REMARK    3  A    between atoms: C_8  and  N_9
REMARK    4  A    between atoms: C_12  and  C_13
REMARK    5  A    between atoms: C_13  and  N_14
REMARK                            x       y       z     vdW  Elec       q    Type
REMARK                         _______ _______ _______ _____ _____    ______ ____
ROOT
ATOM      1  N   UNL A   1      42.042 -19.568 -35.899  0.00  0.00    -0.349 N 
ATOM      2  C   UNL A   1      43.005 -19.485 -34.952  0.00  0.00    +0.005 A 
ATOM      3  C   UNL A   1      44.345 -19.638 -35.287  0.00  0.00    -0.041 A 
ATOM      4  C   UNL A   1      44.714 -19.887 -36.612  0.00  0.00    -0.025 A 
ATOM      5  C   UNL A   1      43.706 -19.923 -37.575  0.00  0.00    -0.041 A 
ATOM      6  C   UNL A   1      42.376 -19.762 -37.198  0.00  0.00    +0.005 A 
ENDROOT
BRANCH   1   7
ATOM      7  C   UNL A   1      40.616 -19.415 -35.512  0.00  0.00    +0.048 C 
BRANCH   7  14
ATOM      8  C   UNL A   1      40.248 -19.655 -32.492  0.00  0.00    -0.039 C 
ATOM      9  C   UNL A   1      39.901 -20.764 -33.449  0.00  0.00    -0.046 A 
ATOM     10  C   UNL A   1      39.424 -21.971 -32.909  0.00  0.00    -0.059 A 
ATOM     11  C   UNL A   1      39.084 -23.042 -33.731  0.00  0.00    -0.061 A 
ATOM     12  C   UNL A   1      39.219 -22.929 -35.109  0.00  0.00    -0.061 A 
ATOM     13  C   UNL A   1      39.705 -21.746 -35.664  0.00  0.00    -0.057 A 
ATOM     14  C   UNL A   1      40.066 -20.655 -34.847  0.00  0.00    -0.025 A 
ENDBRANCH   7  14
ENDBRANCH   1   7
BRANCH   4  15
ATOM     15  C   UNL A   1      46.162 -20.117 -37.000  0.00  0.00    +0.049 C 
BRANCH  15  16
ATOM     16  N   UNL A   1      46.432 -19.653 -38.358  0.00  0.00    -0.339 N 
ATOM     17  C   UNL A   1      46.713 -18.359 -38.723  0.00  0.00    +0.023 A 
ATOM     18  C   UNL A   1      46.947 -18.340 -40.085  0.00  0.00    -0.019 A 
ATOM     19  C   UNL A   1      46.801 -19.667 -40.569  0.00  0.00    +0.003 A 
ATOM     20  C   UNL A   1      46.916 -20.257 -41.844  0.00  0.00    -0.052 A 
ATOM     21  C   UNL A   1      46.680 -21.626 -41.997  0.00  0.00    -0.061 A 
ATOM     22  C   UNL A   1      46.330 -22.409 -40.902  0.00  0.00    -0.060 A 
ATOM     23  C   UNL A   1      46.212 -21.848 -39.626  0.00  0.00    -0.038 A 
ATOM     24  C   UNL A   1      46.459 -20.472 -39.478  0.00  0.00    +0.050 A 
ATOM     25  C   UNL A   1      47.290 -17.091 -40.831  0.00  0.00    -0.025 C 
ATOM     26  C   UNL A   1      46.942 -15.838 -40.009  0.00  0.00    -0.049 C 
ATOM     27  C   UNL A   1      47.392 -15.972 -38.544  0.00  0.00    -0.047 C 
ATOM     28  C   UNL A   1      46.716 -17.158 -37.833  0.00  0.00    -0.012 C 
ENDBRANCH  15  16
ENDBRANCH   4  15
TORSDOF 4
ENDMDL
MODEL 17
REMARK VINA RESULT:    -7.181     17.604     19.768
REMARK INTER + INTRA:          -9.644
REMARK INTER:                  -8.636
REMARK INTRA:                  -1.008
REMARK UNBOUND:                -0.783
REMARK  Name = cpd360.pdb
REMARK  5 active torsions:
REMARK  status: ('A' for Active; 'I' for Inactive)
REMARK    1  A    between atoms: C_1  and  C_2
REMARK    2  A    between atoms: C_7  and  C_8
REMARK    3  A    between atoms: C_8  and  N_9
REMARK    4  A    between atoms: C_12  and  C_13
REMARK    5  A    between atoms: C_13  and  N_14
REMARK                            x       y       z     vdW  Elec       q    Type
REMARK                         _______ _______ _______ _____ _____    ______ ____
ROOT
ATOM      1  N   UNL A   1      43.373 -19.153 -34.336  0.00  0.00    -0.349 N 
ATOM      2  C   UNL A   1      42.883 -19.212 -35.596  0.00  0.00    +0.005 A 
ATOM      3  C   UNL A   1      43.658 -19.712 -36.636  0.00  0.00    -0.041 A 
ATOM      4  C   UNL A   1      44.961 -20.155 -36.390  0.00  0.00    -0.025 A 
ATOM      5  C   UNL A   1      45.425 -20.124 -35.075  0.00  0.00    -0.041 A 
ATOM      6  C   UNL A   1      44.616 -19.619 -34.063  0.00  0.00    +0.005 A 
ENDROOT
BRANCH   1   7
ATOM      7  C   UNL A   1      42.528 -18.600 -33.245  0.00  0.00    +0.048 C 
BRANCH   7  14
ATOM      8  C   UNL A   1      39.684 -17.517 -33.021  0.00  0.00    -0.039 C 
ATOM      9  C   UNL A   1      40.022 -18.972 -32.835  0.00  0.00    -0.046 A 
ATOM     10  C   UNL A   1      38.976 -19.852 -32.506  0.00  0.00    -0.059 A 
ATOM     11  C   UNL A   1      39.212 -21.211 -32.317  0.00  0.00    -0.061 A 
ATOM     12  C   UNL A   1      40.498 -21.716 -32.449  0.00  0.00    -0.061 A 
ATOM     13  C   UNL A   1      41.553 -20.859 -32.759  0.00  0.00    -0.057 A 
ATOM     14  C   UNL A   1      41.336 -19.478 -32.942  0.00  0.00    -0.025 A 
ENDBRANCH   7  14
ENDBRANCH   1   7
BRANCH   4  15
ATOM     15  C   UNL A   1      45.852 -20.651 -37.513  0.00  0.00    +0.049 C 
BRANCH  15  16
ATOM     16  N   UNL A   1      45.725 -19.816 -38.705  0.00  0.00    -0.339 N 
ATOM     17  C   UNL A   1      45.081 -20.166 -39.866  0.00  0.00    +0.023 A 
ATOM     18  C   UNL A   1      45.146 -19.093 -40.732  0.00  0.00    -0.019 A 
ATOM     19  C   UNL A   1      45.858 -18.051 -40.081  0.00  0.00    +0.003 A 
ATOM     20  C   UNL A   1      46.233 -16.745 -40.455  0.00  0.00    -0.052 A 
ATOM     21  C   UNL A   1      46.972 -15.956 -39.568  0.00  0.00    -0.061 A 
ATOM     22  C   UNL A   1      47.343 -16.452 -38.323  0.00  0.00    -0.060 A 
ATOM     23  C   UNL A   1      46.980 -17.743 -37.926  0.00  0.00    -0.038 A 
ATOM     24  C   UNL A   1      46.230 -18.528 -38.819  0.00  0.00    +0.050 A 
ATOM     25  C   UNL A   1      44.542 -19.116 -42.099  0.00  0.00    -0.025 C 
ATOM     26  C   UNL A   1      44.235 -20.555 -42.547  0.00  0.00    -0.049 C 
ATOM     27  C   UNL A   1      43.567 -21.373 -41.429  0.00  0.00    -0.047 C 
ATOM     28  C   UNL A   1      44.460 -21.489 -40.180  0.00  0.00    -0.012 C 
ENDBRANCH  15  16
ENDBRANCH   4  15
TORSDOF 4
ENDMDL
MODEL 18
REMARK VINA RESULT:    -7.162     16.285     18.332
REMARK INTER + INTRA:          -9.620
REMARK INTER:                  -8.296
REMARK INTRA:                  -1.324
REMARK UNBOUND:                -0.783
REMARK  Name = cpd360.pdb
REMARK  5 active torsions:
REMARK  status: ('A' for Active; 'I' for Inactive)
REMARK    1  A    between atoms: C_1  and  C_2
REMARK    2  A    between atoms: C_7  and  C_8
REMARK    3  A    between atoms: C_8  and  N_9
REMARK    4  A    between atoms: C_12  and  C_13
REMARK    5  A    between atoms: C_13  and  N_14
REMARK                            x       y       z     vdW  Elec       q    Type
REMARK                         _______ _______ _______ _____ _____    ______ ____
ROOT
ATOM      1  N   UNL A   1      39.992 -21.202 -37.356  0.00  0.00    -0.349 N 
ATOM      2  C   UNL A   1      40.034 -19.854 -37.451  0.00  0.00    +0.005 A 
ATOM      3  C   UNL A   1      40.993 -19.226 -38.236  0.00  0.00    -0.041 A 
ATOM      4  C   UNL A   1      41.934 -19.986 -38.937  0.00  0.00    -0.025 A 
ATOM      5  C   UNL A   1      41.841 -21.376 -38.858  0.00  0.00    -0.041 A 
ATOM      6  C   UNL A   1      40.863 -21.964 -38.062  0.00  0.00    +0.005 A 
ENDROOT
BRANCH   1   7
ATOM      7  C   UNL A   1      38.965 -21.847 -36.497  0.00  0.00    +0.048 C 
BRANCH   7  14
ATOM      8  C   UNL A   1      37.090 -20.028 -34.920  0.00  0.00    -0.039 C 
ATOM      9  C   UNL A   1      38.296 -20.688 -34.307  0.00  0.00    -0.046 A 
ATOM     10  C   UNL A   1      38.579 -20.414 -32.958  0.00  0.00    -0.059 A 
ATOM     11  C   UNL A   1      39.679 -20.985 -32.323  0.00  0.00    -0.061 A 
ATOM     12  C   UNL A   1      40.519 -21.840 -33.026  0.00  0.00    -0.061 A 
ATOM     13  C   UNL A   1      40.265 -22.113 -34.369  0.00  0.00    -0.057 A 
ATOM     14  C   UNL A   1      39.164 -21.534 -35.033  0.00  0.00    -0.025 A 
ENDBRANCH   7  14
ENDBRANCH   1   7
BRANCH   4  15
ATOM     15  C   UNL A   1      43.029 -19.331 -39.756  0.00  0.00    +0.049 C 
BRANCH  15  16
ATOM     16  N   UNL A   1      44.355 -19.686 -39.258  0.00  0.00    -0.339 N 
ATOM     17  C   UNL A   1      44.970 -19.146 -38.155  0.00  0.00    +0.023 A 
ATOM     18  C   UNL A   1      46.189 -19.774 -37.993  0.00  0.00    -0.019 A 
ATOM     19  C   UNL A   1      46.326 -20.730 -39.035  0.00  0.00    +0.003 A 
ATOM     20  C   UNL A   1      47.334 -21.652 -39.385  0.00  0.00    -0.052 A 
ATOM     21  C   UNL A   1      47.171 -22.458 -40.516  0.00  0.00    -0.061 A 
ATOM     22  C   UNL A   1      46.027 -22.354 -41.299  0.00  0.00    -0.060 A 
ATOM     23  C   UNL A   1      45.012 -21.449 -40.972  0.00  0.00    -0.038 A 
ATOM     24  C   UNL A   1      45.177 -20.647 -39.829  0.00  0.00    +0.050 A 
ATOM     25  C   UNL A   1      47.133 -19.441 -36.884  0.00  0.00    -0.025 C 
ATOM     26  C   UNL A   1      46.780 -18.088 -36.241  0.00  0.00    -0.049 C 
ATOM     27  C   UNL A   1      45.269 -17.948 -35.994  0.00  0.00    -0.047 C 
ATOM     28  C   UNL A   1      44.455 -18.034 -37.298  0.00  0.00    -0.012 C 
ENDBRANCH  15  16
ENDBRANCH   4  15
TORSDOF 4
ENDMDL
MODEL 19
REMARK VINA RESULT:    -6.996     15.727     18.913
REMARK INTER + INTRA:          -9.415
REMARK INTER:                  -8.349
REMARK INTRA:                  -1.066
REMARK UNBOUND:                -0.783
REMARK  Name = cpd360.pdb
REMARK  5 active torsions:
REMARK  status: ('A' for Active; 'I' for Inactive)
REMARK    1  A    between atoms: C_1  and  C_2
REMARK    2  A    between atoms: C_7  and  C_8
REMARK    3  A    between atoms: C_8  and  N_9
REMARK    4  A    between atoms: C_12  and  C_13
REMARK    5  A    between atoms: C_13  and  N_14
REMARK                            x       y       z     vdW  Elec       q    Type
REMARK                         _______ _______ _______ _____ _____    ______ ____
ROOT
ATOM      1  N   UNL A   1      42.737 -20.917 -39.169  0.00  0.00    -0.349 N 
ATOM      2  C   UNL A   1      41.759 -21.700 -38.658  0.00  0.00    +0.005 A 
ATOM      3  C   UNL A   1      41.540 -21.760 -37.287  0.00  0.00    -0.041 A 
ATOM      4  C   UNL A   1      42.337 -21.012 -36.416  0.00  0.00    -0.025 A 
ATOM      5  C   UNL A   1      43.309 -20.179 -36.971  0.00  0.00    -0.041 A 
ATOM      6  C   UNL A   1      43.493 -20.146 -38.349  0.00  0.00    +0.005 A 
ENDROOT
BRANCH   1   7
ATOM      7  C   UNL A   1      42.959 -20.883 -40.638  0.00  0.00    +0.048 C 
BRANCH   7  14
ATOM      8  C   UNL A   1      44.247 -18.282 -41.580  0.00  0.00    -0.039 C 
ATOM      9  C   UNL A   1      45.015 -19.568 -41.434  0.00  0.00    -0.046 A 
ATOM     10  C   UNL A   1      46.375 -19.564 -41.788  0.00  0.00    -0.059 A 
ATOM     11  C   UNL A   1      47.149 -20.717 -41.682  0.00  0.00    -0.061 A 
ATOM     12  C   UNL A   1      46.578 -21.896 -41.223  0.00  0.00    -0.061 A 
ATOM     13  C   UNL A   1      45.226 -21.926 -40.882  0.00  0.00    -0.057 A 
ATOM     14  C   UNL A   1      44.423 -20.773 -40.994  0.00  0.00    -0.025 A 
ENDBRANCH   7  14
ENDBRANCH   1   7
BRANCH   4  15
ATOM     15  C   UNL A   1      42.163 -21.100 -34.911  0.00  0.00    +0.049 C 
BRANCH  15  16
ATOM     16  N   UNL A   1      40.793 -20.784 -34.513  0.00  0.00    -0.339 N 
ATOM     17  C   UNL A   1      40.249 -19.526 -34.439  0.00  0.00    +0.023 A 
ATOM     18  C   UNL A   1      38.924 -19.654 -34.067  0.00  0.00    -0.019 A 
ATOM     19  C   UNL A   1      38.650 -21.038 -33.905  0.00  0.00    +0.003 A 
ATOM     20  C   UNL A   1      37.501 -21.768 -33.543  0.00  0.00    -0.052 A 
ATOM     21  C   UNL A   1      37.567 -23.161 -33.448  0.00  0.00    -0.061 A 
ATOM     22  C   UNL A   1      38.758 -23.831 -33.703  0.00  0.00    -0.060 A 
ATOM     23  C   UNL A   1      39.913 -23.130 -34.067  0.00  0.00    -0.038 A 
ATOM     24  C   UNL A   1      39.838 -21.730 -34.169  0.00  0.00    +0.050 A 
ATOM     25  C   UNL A   1      38.014 -18.482 -33.892  0.00  0.00    -0.025 C 
ATOM     26  C   UNL A   1      38.812 -17.172 -33.765  0.00  0.00    -0.049 C 
ATOM     27  C   UNL A   1      39.938 -17.085 -34.808  0.00  0.00    -0.047 C 
ATOM     28  C   UNL A   1      40.958 -18.229 -34.662  0.00  0.00    -0.012 C 
ENDBRANCH  15  16
ENDBRANCH   4  15
TORSDOF 4
ENDMDL
MODEL 20
REMARK VINA RESULT:    -6.957     17.034     19.141
REMARK INTER + INTRA:          -9.367
REMARK INTER:                  -8.195
REMARK INTRA:                  -1.172
REMARK UNBOUND:                -0.783
REMARK  Name = cpd360.pdb
REMARK  5 active torsions:
REMARK  status: ('A' for Active; 'I' for Inactive)
REMARK    1  A    between atoms: C_1  and  C_2
REMARK    2  A    between atoms: C_7  and  C_8
REMARK    3  A    between atoms: C_8  and  N_9
REMARK    4  A    between atoms: C_12  and  C_13
REMARK    5  A    between atoms: C_13  and  N_14
REMARK                            x       y       z     vdW  Elec       q    Type
REMARK                         _______ _______ _______ _____ _____    ______ ____
ROOT
ATOM      1  N   UNL A   1      41.829 -20.280 -35.565  0.00  0.00    -0.349 N 
ATOM      2  C   UNL A   1      42.910 -20.907 -36.085  0.00  0.00    +0.005 A 
ATOM      3  C   UNL A   1      43.120 -20.939 -37.459  0.00  0.00    -0.041 A 
ATOM      4  C   UNL A   1      42.208 -20.325 -38.322  0.00  0.00    -0.025 A 
ATOM      5  C   UNL A   1      41.127 -19.648 -37.758  0.00  0.00    -0.041 A 
ATOM      6  C   UNL A   1      40.955 -19.638 -36.378  0.00  0.00    +0.005 A 
ENDROOT
BRANCH   1   7
ATOM      7  C   UNL A   1      41.621 -20.274 -34.094  0.00  0.00    +0.048 C 
BRANCH   7  14
ATOM      8  C   UNL A   1      39.487 -18.617 -32.674  0.00  0.00    -0.039 C 
ATOM      9  C   UNL A   1      39.289 -20.063 -33.042  0.00  0.00    -0.046 A 
ATOM     10  C   UNL A   1      38.077 -20.674 -32.675  0.00  0.00    -0.059 A 
ATOM     11  C   UNL A   1      37.823 -22.009 -32.979  0.00  0.00    -0.061 A 
ATOM     12  C   UNL A   1      38.777 -22.760 -33.653  0.00  0.00    -0.061 A 
ATOM     13  C   UNL A   1      39.992 -22.179 -34.013  0.00  0.00    -0.057 A 
ATOM     14  C   UNL A   1      40.272 -20.833 -33.703  0.00  0.00    -0.025 A 
ENDBRANCH   7  14
ENDBRANCH   1   7
BRANCH   4  15
ATOM     15  C   UNL A   1      42.377 -20.392 -39.828  0.00  0.00    +0.049 C 
BRANCH  15  16
ATOM     16  N   UNL A   1      43.640 -19.792 -40.251  0.00  0.00    -0.339 N 
ATOM     17  C   UNL A   1      43.892 -18.447 -40.364  0.00  0.00    +0.023 A 
ATOM     18  C   UNL A   1      45.209 -18.288 -40.748  0.00  0.00    -0.019 A 
ATOM     19  C   UNL A   1      45.782 -19.582 -40.879  0.00  0.00    +0.003 A 
ATOM     20  C   UNL A   1      47.063 -20.048 -41.238  0.00  0.00    -0.052 A 
ATOM     21  C   UNL A   1      47.306 -21.424 -41.297  0.00  0.00    -0.061 A 
ATOM     22  C   UNL A   1      46.294 -22.333 -41.011  0.00  0.00    -0.060 A 
ATOM     23  C   UNL A   1      45.015 -21.896 -40.650  0.00  0.00    -0.038 A 
ATOM     24  C   UNL A   1      44.779 -20.512 -40.583  0.00  0.00    +0.050 A 
ATOM     25  C   UNL A   1      45.836 -16.949 -40.964  0.00  0.00    -0.025 C 
ATOM     26  C   UNL A   1      44.767 -15.852 -41.113  0.00  0.00    -0.049 C 
ATOM     27  C   UNL A   1      43.656 -15.988 -40.059  0.00  0.00    -0.047 C 
ATOM     28  C   UNL A   1      42.914 -17.333 -40.164  0.00  0.00    -0.012 C 
ENDBRANCH  15  16
ENDBRANCH   4  15
TORSDOF 4
ENDMDL
