MODEL 1
REMARK VINA RESULT:    -6.515      0.000      0.000
REMARK INTER + INTRA:         -18.420
REMARK INTER:                 -12.228
REMARK INTRA:                  -6.192
REMARK UNBOUND:                -6.192
REMARK  Name = cpd12.pdb
REMARK  17 active torsions:
REMARK  status: ('A' for Active; 'I' for Inactive)
REMARK    1  A    between atoms: C_1  and  C_2
REMARK    2  A    between atoms: C_6  and  N_7
REMARK    3  A    between atoms: N_7  and  C_8
REMARK    4  A    between atoms: C_13  and  C_14
REMARK    5  A    between atoms: N_16  and  C_17
REMARK    6  A    between atoms: C_17  and  C_18
REMARK    7  A    between atoms: C_18  and  C_19
REMARK    8  A    between atoms: C_19  and  C_20
REMARK    9  A    between atoms: C_20  and  C_21
REMARK   10  A    between atoms: C_21  and  C_22
REMARK   11  A    between atoms: N_24  and  C_25
REMARK   12  A    between atoms: C_25  and  C_26
REMARK   13  A    between atoms: C_26  and  C_27
REMARK   14  A    between atoms: C_27  and  C_28
REMARK   15  A    between atoms: C_28  and  N_29
REMARK   16  A    between atoms: N_29  and  C_30
REMARK   17  A    between atoms: C_45  and  C_46
REMARK                            x       y       z     vdW  Elec       q    Type
REMARK                         _______ _______ _______ _____ _____    ______ ____
ROOT
ATOM      1  C   UNL A   1      39.967 -15.610 -39.647  0.00  0.00    +0.024 C 
ENDROOT
BRANCH   1   2
ATOM      2  C   UNL A   1      41.311 -15.940 -40.267  0.00  0.00    +0.213 C 
ATOM      3  O   UNL A   1      41.726 -17.093 -40.339  0.00  0.00    -0.276 OA
ATOM      4  N   UNL A   1      41.991 -14.855 -40.771  0.00  0.00    -0.315 N 
ATOM      5  H   UNL A   1      41.619 -13.953 -40.637  0.00  0.00    +0.000 HD
BRANCH   4   6
ATOM      6  C   UNL A   1      43.237 -15.004 -41.494  0.00  0.00    +0.012 C 
BRANCH   6   7
ATOM      7  C   UNL A   1      44.419 -14.559 -40.639  0.00  0.00    -0.036 C 
BRANCH   7   8
ATOM      8  C   UNL A   1      44.924 -15.692 -39.742  0.00  0.00    -0.036 C 
BRANCH   8   9
ATOM      9  C   UNL A   1      45.669 -16.767 -40.536  0.00  0.00    +0.009 C 
BRANCH   9  10
ATOM     10  N   UNL A   1      46.954 -17.059 -39.882  0.00  0.00    -0.343 N 
ATOM     11  H   UNL A   1      47.742 -16.470 -39.930  0.00  0.00    +0.000 HD
BRANCH  10  12
ATOM     12  C   UNL A   1      46.924 -18.295 -39.171  0.00  0.00    +0.041 A 
ATOM     13  C   UNL A   1      46.736 -18.319 -37.774  0.00  0.00    -0.005 A 
ATOM     14  C   UNL A   1      46.672 -19.570 -37.153  0.00  0.00    +0.047 A 
ATOM     15  N   UNL A   1      46.732 -20.741 -37.831  0.00  0.00    -0.251 NA
ATOM     16  C   UNL A   1      46.895 -20.718 -39.159  0.00  0.00    +0.074 A 
ATOM     17  C   UNL A   1      46.968 -21.932 -39.828  0.00  0.00    -0.017 A 
ATOM     18  C   UNL A   1      47.152 -21.988 -41.207  0.00  0.00    +0.043 A 
ATOM     19 CL   UNL A   1      47.242 -23.514 -41.998  0.00  0.00    -0.083 Cl
ATOM     20  C   UNL A   1      47.272 -20.821 -41.946  0.00  0.00    -0.043 A 
ATOM     21  C   UNL A   1      47.199 -19.594 -41.291  0.00  0.00    -0.049 A 
ATOM     22  C   UNL A   1      46.999 -19.520 -39.892  0.00  0.00    +0.022 A 
ATOM     23  C   UNL A   1      46.467 -19.712 -35.666  0.00  0.00    -0.010 C 
ATOM     24  C   UNL A   1      46.833 -18.456 -34.884  0.00  0.00    -0.047 C 
ATOM     25  C   UNL A   1      46.177 -17.245 -35.526  0.00  0.00    -0.049 C 
ATOM     26  C   UNL A   1      46.690 -17.052 -36.952  0.00  0.00    -0.024 C 
ENDBRANCH  10  12
ENDBRANCH   9  10
ENDBRANCH   8   9
ENDBRANCH   7   8
ENDBRANCH   6   7
ENDBRANCH   4   6
ENDBRANCH   1   2
BRANCH   1  27
ATOM     27  C   UNL A   1      39.791 -16.225 -38.259  0.00  0.00    -0.045 C 
BRANCH  27  28
ATOM     28  C   UNL A   1      38.734 -17.334 -38.231  0.00  0.00    -0.051 C 
BRANCH  28  29
ATOM     29  C   UNL A   1      39.284 -18.671 -37.724  0.00  0.00    -0.037 C 
BRANCH  29  30
ATOM     30  C   UNL A   1      39.424 -19.715 -38.835  0.00  0.00    +0.012 C 
BRANCH  30  33
ATOM     31  C   UNL A   1      40.518 -21.977 -38.479  0.00  0.00    +0.246 C 
ATOM     32  O   UNL A   1      40.592 -22.957 -37.744  0.00  0.00    -0.270 OA
ATOM     33  N   UNL A   1      39.491 -21.078 -38.331  0.00  0.00    -0.311 N 
ATOM     34  H   UNL A   1      38.708 -21.392 -37.824  0.00  0.00    +0.000 HD
BRANCH  31  40
ATOM     35  C   UNL A   1      42.803 -21.209 -39.225  0.00  0.00    +0.044 A 
ATOM     36  C   UNL A   1      43.711 -21.069 -40.288  0.00  0.00    -0.040 A 
ATOM     37  C   UNL A   1      43.349 -21.388 -41.601  0.00  0.00    -0.060 A 
ATOM     38  C   UNL A   1      42.073 -21.869 -41.878  0.00  0.00    -0.061 A 
ATOM     39  C   UNL A   1      41.166 -22.055 -40.839  0.00  0.00    -0.048 A 
ATOM     40  C   UNL A   1      41.540 -21.760 -39.520  0.00  0.00    +0.058 A 
BRANCH  35  41
ATOM     41  N   UNL A   1      43.203 -20.910 -37.896  0.00  0.00    -0.314 N 
ATOM     42  H   UNL A   1      43.654 -21.631 -37.402  0.00  0.00    +0.000 HD
BRANCH  41  48
ATOM     43  C   UNL A   1      41.444 -18.397 -33.943  0.00  0.00    -0.039 C 
ATOM     44  C   UNL A   1      42.104 -18.457 -35.294  0.00  0.00    -0.046 A 
ATOM     45  C   UNL A   1      42.439 -17.251 -35.931  0.00  0.00    -0.058 A 
ATOM     46  C   UNL A   1      43.032 -17.253 -37.190  0.00  0.00    -0.060 A 
ATOM     47  C   UNL A   1      43.305 -18.461 -37.826  0.00  0.00    -0.040 A 
ATOM     48  C   UNL A   1      43.024 -19.684 -37.199  0.00  0.00    +0.035 A 
ATOM     49  C   UNL A   1      42.411 -19.687 -35.924  0.00  0.00    -0.026 A 
ATOM     50  C   UNL A   1      42.049 -20.996 -35.267  0.00  0.00    -0.038 C 
ENDBRANCH  41  48
ENDBRANCH  35  41
ENDBRANCH  31  40
ENDBRANCH  30  33
ENDBRANCH  29  30
ENDBRANCH  28  29
ENDBRANCH  27  28
ENDBRANCH   1  27
TORSDOF 15
ENDMDL
MODEL 2
REMARK VINA RESULT:    -6.479      2.825      6.761
REMARK INTER + INTRA:         -18.353
REMARK INTER:                 -14.542
REMARK INTRA:                  -3.811
REMARK UNBOUND:                -6.192
REMARK  Name = cpd12.pdb
REMARK  17 active torsions:
REMARK  status: ('A' for Active; 'I' for Inactive)
REMARK    1  A    between atoms: C_1  and  C_2
REMARK    2  A    between atoms: C_6  and  N_7
REMARK    3  A    between atoms: N_7  and  C_8
REMARK    4  A    between atoms: C_13  and  C_14
REMARK    5  A    between atoms: N_16  and  C_17
REMARK    6  A    between atoms: C_17  and  C_18
REMARK    7  A    between atoms: C_18  and  C_19
REMARK    8  A    between atoms: C_19  and  C_20
REMARK    9  A    between atoms: C_20  and  C_21
REMARK   10  A    between atoms: C_21  and  C_22
REMARK   11  A    between atoms: N_24  and  C_25
REMARK   12  A    between atoms: C_25  and  C_26
REMARK   13  A    between atoms: C_26  and  C_27
REMARK   14  A    between atoms: C_27  and  C_28
REMARK   15  A    between atoms: C_28  and  N_29
REMARK   16  A    between atoms: N_29  and  C_30
REMARK   17  A    between atoms: C_45  and  C_46
REMARK                            x       y       z     vdW  Elec       q    Type
REMARK                         _______ _______ _______ _____ _____    ______ ____
ROOT
ATOM      1  C   UNL A   1      39.658 -21.834 -37.606  0.00  0.00    +0.024 C 
ENDROOT
BRANCH   1   2
ATOM      2  C   UNL A   1      39.480 -22.740 -36.403  0.00  0.00    +0.213 C 
ATOM      3  O   UNL A   1      39.257 -23.941 -36.523  0.00  0.00    -0.276 OA
ATOM      4  N   UNL A   1      39.631 -22.112 -35.187  0.00  0.00    -0.315 N 
ATOM      5  H   UNL A   1      39.762 -21.137 -35.164  0.00  0.00    +0.000 HD
BRANCH   4   6
ATOM      6  C   UNL A   1      39.601 -22.850 -33.940  0.00  0.00    +0.012 C 
BRANCH   6   7
ATOM      7  C   UNL A   1      40.287 -22.064 -32.826  0.00  0.00    -0.036 C 
BRANCH   7   8
ATOM      8  C   UNL A   1      40.671 -20.656 -33.286  0.00  0.00    -0.036 C 
BRANCH   8   9
ATOM      9  C   UNL A   1      42.143 -20.342 -33.011  0.00  0.00    +0.009 C 
BRANCH   9  10
ATOM     10  N   UNL A   1      42.800 -19.932 -34.262  0.00  0.00    -0.343 N 
ATOM     11  H   UNL A   1      43.222 -20.559 -34.893  0.00  0.00    +0.000 HD
BRANCH  10  12
ATOM     12  C   UNL A   1      42.752 -18.519 -34.454  0.00  0.00    +0.041 A 
ATOM     13  C   UNL A   1      43.507 -17.654 -33.634  0.00  0.00    -0.005 A 
ATOM     14  C   UNL A   1      43.445 -16.286 -33.912  0.00  0.00    +0.047 A 
ATOM     15  N   UNL A   1      42.742 -15.767 -34.947  0.00  0.00    -0.251 NA
ATOM     16  C   UNL A   1      42.037 -16.590 -35.733  0.00  0.00    +0.074 A 
ATOM     17  C   UNL A   1      41.315 -16.031 -36.777  0.00  0.00    -0.017 A 
ATOM     18  C   UNL A   1      40.545 -16.820 -37.628  0.00  0.00    +0.043 A 
ATOM     19 CL   UNL A   1      39.659 -16.088 -38.909  0.00  0.00    -0.083 Cl
ATOM     20  C   UNL A   1      40.484 -18.193 -37.445  0.00  0.00    -0.043 A 
ATOM     21  C   UNL A   1      41.205 -18.771 -36.402  0.00  0.00    -0.049 A 
ATOM     22  C   UNL A   1      42.001 -17.983 -35.537  0.00  0.00    +0.022 A 
ATOM     23  C   UNL A   1      44.218 -15.274 -33.103  0.00  0.00    -0.010 C 
ATOM     24  C   UNL A   1      44.631 -15.787 -31.729  0.00  0.00    -0.047 C 
ATOM     25  C   UNL A   1      45.282 -17.153 -31.868  0.00  0.00    -0.049 C 
ATOM     26  C   UNL A   1      44.290 -18.161 -32.445  0.00  0.00    -0.024 C 
ENDBRANCH  10  12
ENDBRANCH   9  10
ENDBRANCH   8   9
ENDBRANCH   7   8
ENDBRANCH   6   7
ENDBRANCH   4   6
ENDBRANCH   1   2
BRANCH   1  27
ATOM     27  C   UNL A   1      40.298 -22.550 -38.794  0.00  0.00    -0.045 C 
BRANCH  27  28
ATOM     28  C   UNL A   1      41.127 -21.612 -39.676  0.00  0.00    -0.051 C 
BRANCH  28  29
ATOM     29  C   UNL A   1      42.346 -21.031 -38.951  0.00  0.00    -0.037 C 
BRANCH  29  30
ATOM     30  C   UNL A   1      43.662 -21.319 -39.677  0.00  0.00    +0.012 C 
BRANCH  30  33
ATOM     31  C   UNL A   1      44.955 -20.419 -41.667  0.00  0.00    +0.246 C 
ATOM     32  O   UNL A   1      44.894 -19.735 -42.684  0.00  0.00    -0.270 OA
ATOM     33  N   UNL A   1      43.950 -20.361 -40.733  0.00  0.00    -0.311 N 
ATOM     34  H   UNL A   1      43.355 -19.579 -40.785  0.00  0.00    +0.000 HD
BRANCH  31  40
ATOM     35  C   UNL A   1      47.204 -20.934 -40.643  0.00  0.00    +0.044 A 
ATOM     36  C   UNL A   1      48.239 -21.871 -40.483  0.00  0.00    -0.040 A 
ATOM     37  C   UNL A   1      48.225 -23.094 -41.161  0.00  0.00    -0.060 A 
ATOM     38  C   UNL A   1      47.166 -23.417 -42.003  0.00  0.00    -0.061 A 
ATOM     39  C   UNL A   1      46.107 -22.525 -42.150  0.00  0.00    -0.048 A 
ATOM     40  C   UNL A   1      46.110 -21.311 -41.449  0.00  0.00    +0.058 A 
BRANCH  35  41
ATOM     41  N   UNL A   1      47.223 -19.712 -39.921  0.00  0.00    -0.314 N 
ATOM     42  H   UNL A   1      47.569 -18.926 -40.402  0.00  0.00    +0.000 HD
BRANCH  41  48
ATOM     43  C   UNL A   1      46.484 -16.617 -36.061  0.00  0.00    -0.039 C 
ATOM     44  C   UNL A   1      46.500 -17.988 -36.681  0.00  0.00    -0.046 A 
ATOM     45  C   UNL A   1      46.203 -19.095 -35.871  0.00  0.00    -0.058 A 
ATOM     46  C   UNL A   1      46.225 -20.384 -36.393  0.00  0.00    -0.060 A 
ATOM     47  C   UNL A   1      46.538 -20.584 -37.734  0.00  0.00    -0.040 A 
ATOM     48  C   UNL A   1      46.797 -19.498 -38.582  0.00  0.00    +0.035 A 
ATOM     49  C   UNL A   1      46.787 -18.185 -38.053  0.00  0.00    -0.026 A 
ATOM     50  C   UNL A   1      47.123 -17.014 -38.943  0.00  0.00    -0.038 C 
ENDBRANCH  41  48
ENDBRANCH  35  41
ENDBRANCH  31  40
ENDBRANCH  30  33
ENDBRANCH  29  30
ENDBRANCH  28  29
ENDBRANCH  27  28
ENDBRANCH   1  27
TORSDOF 15
ENDMDL
MODEL 3
REMARK VINA RESULT:    -6.431      3.135      6.996
REMARK INTER + INTRA:         -18.263
REMARK INTER:                 -13.507
REMARK INTRA:                  -4.755
REMARK UNBOUND:                -6.192
REMARK  Name = cpd12.pdb
REMARK  17 active torsions:
REMARK  status: ('A' for Active; 'I' for Inactive)
REMARK    1  A    between atoms: C_1  and  C_2
REMARK    2  A    between atoms: C_6  and  N_7
REMARK    3  A    between atoms: N_7  and  C_8
REMARK    4  A    between atoms: C_13  and  C_14
REMARK    5  A    between atoms: N_16  and  C_17
REMARK    6  A    between atoms: C_17  and  C_18
REMARK    7  A    between atoms: C_18  and  C_19
REMARK    8  A    between atoms: C_19  and  C_20
REMARK    9  A    between atoms: C_20  and  C_21
REMARK   10  A    between atoms: C_21  and  C_22
REMARK   11  A    between atoms: N_24  and  C_25
REMARK   12  A    between atoms: C_25  and  C_26
REMARK   13  A    between atoms: C_26  and  C_27
REMARK   14  A    between atoms: C_27  and  C_28
REMARK   15  A    between atoms: C_28  and  N_29
REMARK   16  A    between atoms: N_29  and  C_30
REMARK   17  A    between atoms: C_45  and  C_46
REMARK                            x       y       z     vdW  Elec       q    Type
REMARK                         _______ _______ _______ _____ _____    ______ ____
ROOT
ATOM      1  C   UNL A   1      39.584 -21.177 -37.323  0.00  0.00    +0.024 C 
ENDROOT
BRANCH   1   2
ATOM      2  C   UNL A   1      39.970 -22.017 -36.121  0.00  0.00    +0.213 C 
ATOM      3  O   UNL A   1      40.585 -23.072 -36.238  0.00  0.00    -0.276 OA
ATOM      4  N   UNL A   1      39.612 -21.476 -34.906  0.00  0.00    -0.315 N 
ATOM      5  H   UNL A   1      39.079 -20.649 -34.889  0.00  0.00    +0.000 HD
BRANCH   4   6
ATOM      6  C   UNL A   1      40.000 -22.093 -33.654  0.00  0.00    +0.012 C 
BRANCH   6   7
ATOM      7  C   UNL A   1      41.394 -21.641 -33.233  0.00  0.00    -0.036 C 
BRANCH   7   8
ATOM      8  C   UNL A   1      41.402 -20.177 -32.788  0.00  0.00    -0.036 C 
BRANCH   8   9
ATOM      9  C   UNL A   1      41.552 -19.217 -33.970  0.00  0.00    +0.009 C 
BRANCH   9  10
ATOM     10  N   UNL A   1      42.965 -19.150 -34.372  0.00  0.00    -0.343 N 
ATOM     11  H   UNL A   1      43.602 -19.894 -34.271  0.00  0.00    +0.000 HD
BRANCH  10  12
ATOM     12  C   UNL A   1      43.305 -17.879 -34.924  0.00  0.00    +0.041 A 
ATOM     13  C   UNL A   1      43.198 -17.644 -36.311  0.00  0.00    -0.005 A 
ATOM     14  C   UNL A   1      43.504 -16.360 -36.773  0.00  0.00    +0.047 A 
ATOM     15  N   UNL A   1      43.846 -15.336 -35.954  0.00  0.00    -0.251 NA
ATOM     16  C   UNL A   1      43.932 -15.556 -34.637  0.00  0.00    +0.074 A 
ATOM     17  C   UNL A   1      44.298 -14.494 -33.822  0.00  0.00    -0.017 A 
ATOM     18  C   UNL A   1      44.424 -14.650 -32.444  0.00  0.00    +0.043 A 
ATOM     19 CL   UNL A   1      44.885 -13.308 -31.469  0.00  0.00    -0.083 Cl
ATOM     20  C   UNL A   1      44.188 -15.882 -31.854  0.00  0.00    -0.043 A 
ATOM     21  C   UNL A   1      43.819 -16.958 -32.657  0.00  0.00    -0.049 A 
ATOM     22  C   UNL A   1      43.674 -16.813 -34.057  0.00  0.00    +0.022 A 
ATOM     23  C   UNL A   1      43.417 -15.998 -38.234  0.00  0.00    -0.010 C 
ATOM     24  C   UNL A   1      43.467 -17.207 -39.160  0.00  0.00    -0.047 C 
ATOM     25  C   UNL A   1      42.478 -18.258 -38.683  0.00  0.00    -0.049 C 
ATOM     26  C   UNL A   1      42.852 -18.746 -37.284  0.00  0.00    -0.024 C 
ENDBRANCH  10  12
ENDBRANCH   9  10
ENDBRANCH   8   9
ENDBRANCH   7   8
ENDBRANCH   6   7
ENDBRANCH   4   6
ENDBRANCH   1   2
BRANCH   1  27
ATOM     27  C   UNL A   1      39.696 -21.945 -38.639  0.00  0.00    -0.045 C 
BRANCH  27  28
ATOM     28  C   UNL A   1      40.737 -21.343 -39.589  0.00  0.00    -0.051 C 
BRANCH  28  29
ATOM     29  C   UNL A   1      42.166 -21.795 -39.275  0.00  0.00    -0.037 C 
BRANCH  29  30
ATOM     30  C   UNL A   1      43.026 -21.960 -40.531  0.00  0.00    +0.012 C 
BRANCH  30  33
ATOM     31  C   UNL A   1      44.335 -20.384 -42.029  0.00  0.00    +0.246 C 
ATOM     32  O   UNL A   1      44.262 -19.430 -42.799  0.00  0.00    -0.270 OA
ATOM     33  N   UNL A   1      43.272 -20.703 -41.222  0.00  0.00    -0.311 N 
ATOM     34  H   UNL A   1      42.596 -19.999 -41.095  0.00  0.00    +0.000 HD
BRANCH  31  40
ATOM     35  C   UNL A   1      46.729 -20.747 -41.318  0.00  0.00    +0.044 A 
ATOM     36  C   UNL A   1      47.838 -21.609 -41.308  0.00  0.00    -0.040 A 
ATOM     37  C   UNL A   1      47.819 -22.828 -41.994  0.00  0.00    -0.060 A 
ATOM     38  C   UNL A   1      46.681 -23.219 -42.694  0.00  0.00    -0.061 A 
ATOM     39  C   UNL A   1      45.554 -22.403 -42.689  0.00  0.00    -0.048 A 
ATOM     40  C   UNL A   1      45.567 -21.194 -41.977  0.00  0.00    +0.058 A 
BRANCH  35  41
ATOM     41  N   UNL A   1      46.759 -19.529 -40.588  0.00  0.00    -0.314 N 
ATOM     42  H   UNL A   1      46.910 -18.710 -41.111  0.00  0.00    +0.000 HD
BRANCH  41  48
ATOM     43  C   UNL A   1      47.198 -16.694 -36.490  0.00  0.00    -0.039 C 
ATOM     44  C   UNL A   1      46.876 -17.992 -37.180  0.00  0.00    -0.046 A 
ATOM     45  C   UNL A   1      46.522 -19.100 -36.394  0.00  0.00    -0.058 A 
ATOM     46  C   UNL A   1      46.235 -20.327 -36.984  0.00  0.00    -0.060 A 
ATOM     47  C   UNL A   1      46.291 -20.460 -38.369  0.00  0.00    -0.040 A 
ATOM     48  C   UNL A   1      46.597 -19.363 -39.186  0.00  0.00    +0.035 A 
ATOM     49  C   UNL A   1      46.901 -18.116 -38.590  0.00  0.00    -0.026 A 
ATOM     50  C   UNL A   1      47.291 -16.943 -39.456  0.00  0.00    -0.038 C 
ENDBRANCH  41  48
ENDBRANCH  35  41
ENDBRANCH  31  40
ENDBRANCH  30  33
ENDBRANCH  29  30
ENDBRANCH  28  29
ENDBRANCH  27  28
ENDBRANCH   1  27
TORSDOF 15
ENDMDL
MODEL 4
REMARK VINA RESULT:    -6.322     18.950     23.107
REMARK INTER + INTRA:         -18.057
REMARK INTER:                 -13.446
REMARK INTRA:                  -4.611
REMARK UNBOUND:                -6.192
REMARK  Name = cpd12.pdb
REMARK  17 active torsions:
REMARK  status: ('A' for Active; 'I' for Inactive)
REMARK    1  A    between atoms: C_1  and  C_2
REMARK    2  A    between atoms: C_6  and  N_7
REMARK    3  A    between atoms: N_7  and  C_8
REMARK    4  A    between atoms: C_13  and  C_14
REMARK    5  A    between atoms: N_16  and  C_17
REMARK    6  A    between atoms: C_17  and  C_18
REMARK    7  A    between atoms: C_18  and  C_19
REMARK    8  A    between atoms: C_19  and  C_20
REMARK    9  A    between atoms: C_20  and  C_21
REMARK   10  A    between atoms: C_21  and  C_22
REMARK   11  A    between atoms: N_24  and  C_25
REMARK   12  A    between atoms: C_25  and  C_26
REMARK   13  A    between atoms: C_26  and  C_27
REMARK   14  A    between atoms: C_27  and  C_28
REMARK   15  A    between atoms: C_28  and  N_29
REMARK   16  A    between atoms: N_29  and  C_30
REMARK   17  A    between atoms: C_45  and  C_46
REMARK                            x       y       z     vdW  Elec       q    Type
REMARK                         _______ _______ _______ _____ _____    ______ ____
ROOT
ATOM      1  C   UNL A   1      33.298 -41.336 -30.569  0.00  0.00    +0.024 C 
ENDROOT
BRANCH   1   2
ATOM      2  C   UNL A   1      31.887 -40.969 -30.985  0.00  0.00    +0.213 C 
ATOM      3  O   UNL A   1      30.904 -41.383 -30.379  0.00  0.00    -0.276 OA
ATOM      4  N   UNL A   1      31.812 -40.109 -32.058  0.00  0.00    -0.315 N 
ATOM      5  H   UNL A   1      32.640 -39.853 -32.525  0.00  0.00    +0.000 HD
BRANCH   4   6
ATOM      6  C   UNL A   1      30.548 -39.571 -32.516  0.00  0.00    +0.012 C 
BRANCH   6   7
ATOM      7  C   UNL A   1      30.665 -38.078 -32.808  0.00  0.00    -0.036 C 
BRANCH   7   8
ATOM      8  C   UNL A   1      30.474 -37.241 -31.541  0.00  0.00    -0.036 C 
BRANCH   8   9
ATOM      9  C   UNL A   1      30.335 -35.749 -31.853  0.00  0.00    +0.009 C 
BRANCH   9  10
ATOM     10  N   UNL A   1      30.066 -35.011 -30.609  0.00  0.00    -0.343 N 
ATOM     11  H   UNL A   1      29.188 -34.632 -30.373  0.00  0.00    +0.000 HD
BRANCH  10  12
ATOM     12  C   UNL A   1      31.227 -34.909 -29.785  0.00  0.00    +0.041 A 
ATOM     13  C   UNL A   1      32.314 -34.096 -30.168  0.00  0.00    -0.005 A 
ATOM     14  C   UNL A   1      33.396 -34.011 -29.288  0.00  0.00    +0.047 A 
ATOM     15  N   UNL A   1      33.424 -34.624 -28.081  0.00  0.00    -0.251 NA
ATOM     16  C   UNL A   1      32.386 -35.383 -27.711  0.00  0.00    +0.074 A 
ATOM     17  C   UNL A   1      32.446 -36.011 -26.475  0.00  0.00    -0.017 A 
ATOM     18  C   UNL A   1      31.411 -36.829 -26.028  0.00  0.00    +0.043 A 
ATOM     19 CL   UNL A   1      31.526 -37.594 -24.491  0.00  0.00    -0.083 Cl
ATOM     20  C   UNL A   1      30.291 -37.035 -26.818  0.00  0.00    -0.043 A 
ATOM     21  C   UNL A   1      30.213 -36.410 -28.061  0.00  0.00    -0.049 A 
ATOM     22  C   UNL A   1      31.251 -35.566 -28.524  0.00  0.00    +0.022 A 
ATOM     23  C   UNL A   1      34.607 -33.166 -29.595  0.00  0.00    -0.010 C 
ATOM     24  C   UNL A   1      34.764 -32.851 -31.078  0.00  0.00    -0.047 C 
ATOM     25  C   UNL A   1      33.446 -32.338 -31.634  0.00  0.00    -0.049 C 
ATOM     26  C   UNL A   1      32.362 -33.408 -31.512  0.00  0.00    -0.024 C 
ENDBRANCH  10  12
ENDBRANCH   9  10
ENDBRANCH   8   9
ENDBRANCH   7   8
ENDBRANCH   6   7
ENDBRANCH   4   6
ENDBRANCH   1   2
BRANCH   1  27
ATOM     27  C   UNL A   1      34.338 -40.973 -31.628  0.00  0.00    -0.045 C 
BRANCH  27  28
ATOM     28  C   UNL A   1      35.734 -40.751 -31.036  0.00  0.00    -0.051 C 
BRANCH  28  29
ATOM     29  C   UNL A   1      35.734 -40.709 -29.504  0.00  0.00    -0.037 C 
BRANCH  29  30
ATOM     30  C   UNL A   1      37.035 -40.145 -28.926  0.00  0.00    +0.012 C 
BRANCH  30  33
ATOM     31  C   UNL A   1      36.028 -38.032 -27.946  0.00  0.00    +0.246 C 
ATOM     32  O   UNL A   1      35.671 -37.468 -26.916  0.00  0.00    -0.270 OA
ATOM     33  N   UNL A   1      36.813 -39.156 -27.883  0.00  0.00    -0.311 N 
ATOM     34  H   UNL A   1      37.280 -39.312 -27.031  0.00  0.00    +0.000 HD
BRANCH  31  40
ATOM     35  C   UNL A   1      36.472 -36.741 -30.069  0.00  0.00    +0.044 A 
ATOM     36  C   UNL A   1      35.976 -36.307 -31.310  0.00  0.00    -0.040 A 
ATOM     37  C   UNL A   1      34.653 -36.551 -31.691  0.00  0.00    -0.060 A 
ATOM     38  C   UNL A   1      33.797 -37.249 -30.844  0.00  0.00    -0.061 A 
ATOM     39  C   UNL A   1      34.272 -37.725 -29.625  0.00  0.00    -0.048 A 
ATOM     40  C   UNL A   1      35.607 -37.503 -29.257  0.00  0.00    +0.058 A 
BRANCH  35  41
ATOM     41  N   UNL A   1      37.827 -36.510 -29.716  0.00  0.00    -0.314 N 
ATOM     42  H   UNL A   1      38.006 -36.323 -28.767  0.00  0.00    +0.000 HD
BRANCH  41  48
ATOM     43  C   UNL A   1      42.537 -37.900 -30.671  0.00  0.00    -0.039 C 
ATOM     44  C   UNL A   1      41.278 -37.148 -31.010  0.00  0.00    -0.046 A 
ATOM     45  C   UNL A   1      41.269 -36.336 -32.156  0.00  0.00    -0.058 A 
ATOM     46  C   UNL A   1      40.136 -35.606 -32.500  0.00  0.00    -0.060 A 
ATOM     47  C   UNL A   1      38.994 -35.683 -31.707  0.00  0.00    -0.040 A 
ATOM     48  C   UNL A   1      38.954 -36.518 -30.582  0.00  0.00    +0.035 A 
ATOM     49  C   UNL A   1      40.108 -37.254 -30.221  0.00  0.00    -0.026 A 
ATOM     50  C   UNL A   1      40.096 -38.109 -28.978  0.00  0.00    -0.038 C 
ENDBRANCH  41  48
ENDBRANCH  35  41
ENDBRANCH  31  40
ENDBRANCH  30  33
ENDBRANCH  29  30
ENDBRANCH  28  29
ENDBRANCH  27  28
ENDBRANCH   1  27
TORSDOF 15
ENDMDL
MODEL 5
REMARK VINA RESULT:    -6.314      3.369      8.357
REMARK INTER + INTRA:         -18.043
REMARK INTER:                 -13.932
REMARK INTRA:                  -4.110
REMARK UNBOUND:                -6.192
REMARK  Name = cpd12.pdb
REMARK  17 active torsions:
REMARK  status: ('A' for Active; 'I' for Inactive)
REMARK    1  A    between atoms: C_1  and  C_2
REMARK    2  A    between atoms: C_6  and  N_7
REMARK    3  A    between atoms: N_7  and  C_8
REMARK    4  A    between atoms: C_13  and  C_14
REMARK    5  A    between atoms: N_16  and  C_17
REMARK    6  A    between atoms: C_17  and  C_18
REMARK    7  A    between atoms: C_18  and  C_19
REMARK    8  A    between atoms: C_19  and  C_20
REMARK    9  A    between atoms: C_20  and  C_21
REMARK   10  A    between atoms: C_21  and  C_22
REMARK   11  A    between atoms: N_24  and  C_25
REMARK   12  A    between atoms: C_25  and  C_26
REMARK   13  A    between atoms: C_26  and  C_27
REMARK   14  A    between atoms: C_27  and  C_28
REMARK   15  A    between atoms: C_28  and  N_29
REMARK   16  A    between atoms: N_29  and  C_30
REMARK   17  A    between atoms: C_45  and  C_46
REMARK                            x       y       z     vdW  Elec       q    Type
REMARK                         _______ _______ _______ _____ _____    ______ ____
ROOT
ATOM      1  C   UNL A   1      47.062 -17.492 -35.520  0.00  0.00    +0.024 C 
ENDROOT
BRANCH   1   2
ATOM      2  C   UNL A   1      45.687 -17.639 -34.896  0.00  0.00    +0.213 C 
ATOM      3  O   UNL A   1      44.781 -16.844 -35.128  0.00  0.00    -0.276 OA
ATOM      4  N   UNL A   1      45.537 -18.750 -34.097  0.00  0.00    -0.315 N 
ATOM      5  H   UNL A   1      46.319 -19.320 -33.919  0.00  0.00    +0.000 HD
BRANCH   4   6
ATOM      6  C   UNL A   1      44.259 -19.102 -33.513  0.00  0.00    +0.012 C 
BRANCH   6   7
ATOM      7  C   UNL A   1      43.652 -20.310 -34.218  0.00  0.00    -0.036 C 
BRANCH   7   8
ATOM      8  C   UNL A   1      42.135 -20.372 -34.023  0.00  0.00    -0.036 C 
BRANCH   8   9
ATOM      9  C   UNL A   1      41.690 -21.689 -33.384  0.00  0.00    +0.009 C 
BRANCH   9  10
ATOM     10  N   UNL A   1      40.950 -22.489 -34.372  0.00  0.00    -0.343 N 
ATOM     11  H   UNL A   1      41.044 -23.464 -34.472  0.00  0.00    +0.000 HD
BRANCH  10  12
ATOM     12  C   UNL A   1      40.081 -21.686 -35.169  0.00  0.00    +0.041 A 
ATOM     13  C   UNL A   1      40.304 -21.539 -36.554  0.00  0.00    -0.005 A 
ATOM     14  C   UNL A   1      39.385 -20.774 -37.278  0.00  0.00    +0.047 A 
ATOM     15  N   UNL A   1      38.280 -20.218 -36.724  0.00  0.00    -0.251 NA
ATOM     16  C   UNL A   1      38.061 -20.371 -35.413  0.00  0.00    +0.074 A 
ATOM     17  C   UNL A   1      36.929 -19.780 -34.869  0.00  0.00    -0.017 A 
ATOM     18  C   UNL A   1      36.643 -19.882 -33.510  0.00  0.00    +0.043 A 
ATOM     19 CL   UNL A   1      35.231 -19.130 -32.873  0.00  0.00    -0.083 Cl
ATOM     20  C   UNL A   1      37.492 -20.580 -32.665  0.00  0.00    -0.043 A 
ATOM     21  C   UNL A   1      38.631 -21.181 -33.196  0.00  0.00    -0.049 A 
ATOM     22  C   UNL A   1      38.930 -21.097 -34.576  0.00  0.00    +0.022 A 
ATOM     23  C   UNL A   1      39.523 -20.557 -38.764  0.00  0.00    -0.010 C 
ATOM     24  C   UNL A   1      40.938 -20.793 -39.279  0.00  0.00    -0.047 C 
ATOM     25  C   UNL A   1      41.457 -22.123 -38.757  0.00  0.00    -0.049 C 
ATOM     26  C   UNL A   1      41.530 -22.106 -37.231  0.00  0.00    -0.024 C 
ENDBRANCH  10  12
ENDBRANCH   9  10
ENDBRANCH   8   9
ENDBRANCH   7   8
ENDBRANCH   6   7
ENDBRANCH   4   6
ENDBRANCH   1   2
BRANCH   1  27
ATOM     27  C   UNL A   1      47.011 -17.393 -37.043  0.00  0.00    -0.045 C 
BRANCH  27  28
ATOM     28  C   UNL A   1      47.309 -15.980 -37.556  0.00  0.00    -0.051 C 
BRANCH  28  29
ATOM     29  C   UNL A   1      47.181 -15.856 -39.077  0.00  0.00    -0.037 C 
BRANCH  29  30
ATOM     30  C   UNL A   1      45.852 -15.233 -39.512  0.00  0.00    +0.012 C 
BRANCH  30  33
ATOM     31  C   UNL A   1      44.201 -16.707 -40.754  0.00  0.00    +0.246 C 
ATOM     32  O   UNL A   1      43.635 -16.909 -41.824  0.00  0.00    -0.270 OA
ATOM     33  N   UNL A   1      45.285 -15.867 -40.692  0.00  0.00    -0.311 N 
ATOM     34  H   UNL A   1      45.731 -15.671 -41.547  0.00  0.00    +0.000 HD
BRANCH  31  40
ATOM     35  C   UNL A   1      44.249 -18.584 -39.067  0.00  0.00    +0.044 A 
ATOM     36  C   UNL A   1      43.725 -19.110 -37.874  0.00  0.00    -0.040 A 
ATOM     37  C   UNL A   1      42.657 -18.494 -37.213  0.00  0.00    -0.060 A 
ATOM     38  C   UNL A   1      42.098 -17.326 -37.723  0.00  0.00    -0.061 A 
ATOM     39  C   UNL A   1      42.622 -16.760 -38.882  0.00  0.00    -0.048 A 
ATOM     40  C   UNL A   1      43.711 -17.365 -39.528  0.00  0.00    +0.058 A 
BRANCH  35  41
ATOM     41  N   UNL A   1      45.353 -19.208 -39.703  0.00  0.00    -0.314 N 
ATOM     42  H   UNL A   1      46.244 -18.852 -39.482  0.00  0.00    +0.000 HD
BRANCH  41  48
ATOM     43  C   UNL A   1      47.394 -23.386 -41.549  0.00  0.00    -0.039 C 
ATOM     44  C   UNL A   1      46.356 -22.297 -41.560  0.00  0.00    -0.046 A 
ATOM     45  C   UNL A   1      45.400 -22.291 -42.588  0.00  0.00    -0.058 A 
ATOM     46  C   UNL A   1      44.433 -21.293 -42.653  0.00  0.00    -0.060 A 
ATOM     47  C   UNL A   1      44.404 -20.291 -41.687  0.00  0.00    -0.040 A 
ATOM     48  C   UNL A   1      45.317 -20.291 -40.623  0.00  0.00    +0.035 A 
ATOM     49  C   UNL A   1      46.309 -21.298 -40.558  0.00  0.00    -0.026 A 
ATOM     50  C   UNL A   1      47.334 -21.273 -39.451  0.00  0.00    -0.038 C 
ENDBRANCH  41  48
ENDBRANCH  35  41
ENDBRANCH  31  40
ENDBRANCH  30  33
ENDBRANCH  29  30
ENDBRANCH  28  29
ENDBRANCH  27  28
ENDBRANCH   1  27
TORSDOF 15
ENDMDL
MODEL 6
REMARK VINA RESULT:    -6.239      1.549      3.093
REMARK INTER + INTRA:         -17.902
REMARK INTER:                 -11.784
REMARK INTRA:                  -6.118
REMARK UNBOUND:                -6.192
REMARK  Name = cpd12.pdb
REMARK  17 active torsions:
REMARK  status: ('A' for Active; 'I' for Inactive)
REMARK    1  A    between atoms: C_1  and  C_2
REMARK    2  A    between atoms: C_6  and  N_7
REMARK    3  A    between atoms: N_7  and  C_8
REMARK    4  A    between atoms: C_13  and  C_14
REMARK    5  A    between atoms: N_16  and  C_17
REMARK    6  A    between atoms: C_17  and  C_18
REMARK    7  A    between atoms: C_18  and  C_19
REMARK    8  A    between atoms: C_19  and  C_20
REMARK    9  A    between atoms: C_20  and  C_21
REMARK   10  A    between atoms: C_21  and  C_22
REMARK   11  A    between atoms: N_24  and  C_25
REMARK   12  A    between atoms: C_25  and  C_26
REMARK   13  A    between atoms: C_26  and  C_27
REMARK   14  A    between atoms: C_27  and  C_28
REMARK   15  A    between atoms: C_28  and  N_29
REMARK   16  A    between atoms: N_29  and  C_30
REMARK   17  A    between atoms: C_45  and  C_46
REMARK                            x       y       z     vdW  Elec       q    Type
REMARK                         _______ _______ _______ _____ _____    ______ ____
ROOT
ATOM      1  C   UNL A   1      39.893 -15.628 -39.772  0.00  0.00    +0.024 C 
ENDROOT
BRANCH   1   2
ATOM      2  C   UNL A   1      41.266 -15.916 -40.350  0.00  0.00    +0.213 C 
ATOM      3  O   UNL A   1      41.756 -17.041 -40.324  0.00  0.00    -0.276 OA
ATOM      4  N   UNL A   1      41.880 -14.831 -40.934  0.00  0.00    -0.315 N 
ATOM      5  H   UNL A   1      41.448 -13.949 -40.877  0.00  0.00    +0.000 HD
BRANCH   4   6
ATOM      6  C   UNL A   1      43.144 -14.955 -41.629  0.00  0.00    +0.012 C 
BRANCH   6   7
ATOM      7  C   UNL A   1      44.283 -14.372 -40.798  0.00  0.00    -0.036 C 
BRANCH   7   8
ATOM      8  C   UNL A   1      44.873 -15.414 -39.845  0.00  0.00    -0.036 C 
BRANCH   8   9
ATOM      9  C   UNL A   1      45.550 -16.563 -40.595  0.00  0.00    +0.009 C 
BRANCH   9  10
ATOM     10  N   UNL A   1      46.789 -16.942 -39.898  0.00  0.00    -0.343 N 
ATOM     11  H   UNL A   1      47.605 -16.391 -39.888  0.00  0.00    +0.000 HD
BRANCH  10  12
ATOM     12  C   UNL A   1      46.669 -18.202 -39.240  0.00  0.00    +0.041 A 
ATOM     13  C   UNL A   1      46.981 -19.401 -39.914  0.00  0.00    -0.005 A 
ATOM     14  C   UNL A   1      46.883 -20.592 -39.190  0.00  0.00    +0.047 A 
ATOM     15  N   UNL A   1      46.557 -20.640 -37.876  0.00  0.00    -0.251 NA
ATOM     16  C   UNL A   1      46.276 -19.501 -37.233  0.00  0.00    +0.074 A 
ATOM     17  C   UNL A   1      45.931 -19.579 -35.891  0.00  0.00    -0.017 A 
ATOM     18  C   UNL A   1      45.611 -18.439 -35.158  0.00  0.00    +0.043 A 
ATOM     19 CL   UNL A   1      45.183 -18.579 -33.497  0.00  0.00    -0.083 Cl
ATOM     20  C   UNL A   1      45.628 -17.191 -35.762  0.00  0.00    -0.043 A 
ATOM     21  C   UNL A   1      45.974 -17.094 -37.108  0.00  0.00    -0.049 A 
ATOM     22  C   UNL A   1      46.314 -18.242 -37.863  0.00  0.00    +0.022 A 
ATOM     23  C   UNL A   1      47.200 -21.930 -39.810  0.00  0.00    -0.010 C 
ATOM     24  C   UNL A   1      47.133 -21.920 -41.333  0.00  0.00    -0.047 C 
ATOM     25  C   UNL A   1      47.927 -20.740 -41.872  0.00  0.00    -0.049 C 
ATOM     26  C   UNL A   1      47.323 -19.424 -41.386  0.00  0.00    -0.024 C 
ENDBRANCH  10  12
ENDBRANCH   9  10
ENDBRANCH   8   9
ENDBRANCH   7   8
ENDBRANCH   6   7
ENDBRANCH   4   6
ENDBRANCH   1   2
BRANCH   1  27
ATOM     27  C   UNL A   1      39.673 -16.297 -38.416  0.00  0.00    -0.045 C 
BRANCH  27  28
ATOM     28  C   UNL A   1      38.526 -17.312 -38.435  0.00  0.00    -0.051 C 
BRANCH  28  29
ATOM     29  C   UNL A   1      38.947 -18.699 -37.939  0.00  0.00    -0.037 C 
BRANCH  29  30
ATOM     30  C   UNL A   1      39.175 -19.694 -39.079  0.00  0.00    +0.012 C 
BRANCH  30  33
ATOM     31  C   UNL A   1      40.159 -21.998 -38.670  0.00  0.00    +0.246 C 
ATOM     32  O   UNL A   1      40.097 -23.014 -37.985  0.00  0.00    -0.270 OA
ATOM     33  N   UNL A   1      39.138 -21.081 -38.642  0.00  0.00    -0.311 N 
ATOM     34  H   UNL A   1      38.278 -21.399 -38.282  0.00  0.00    +0.000 HD
BRANCH  31  40
ATOM     35  C   UNL A   1      42.548 -21.256 -39.003  0.00  0.00    +0.044 A 
ATOM     36  C   UNL A   1      43.617 -21.088 -39.900  0.00  0.00    -0.040 A 
ATOM     37  C   UNL A   1      43.462 -21.330 -41.269  0.00  0.00    -0.060 A 
ATOM     38  C   UNL A   1      42.238 -21.762 -41.770  0.00  0.00    -0.061 A 
ATOM     39  C   UNL A   1      41.173 -21.975 -40.899  0.00  0.00    -0.048 A 
ATOM     40  C   UNL A   1      41.338 -21.757 -39.524  0.00  0.00    +0.058 A 
BRANCH  35  41
ATOM     41  N   UNL A   1      42.736 -21.035 -37.613  0.00  0.00    -0.314 N 
ATOM     42  H   UNL A   1      43.053 -21.804 -37.087  0.00  0.00    +0.000 HD
BRANCH  41  48
ATOM     43  C   UNL A   1      41.098 -18.666 -33.523  0.00  0.00    -0.039 C 
ATOM     44  C   UNL A   1      41.656 -18.674 -34.920  0.00  0.00    -0.046 A 
ATOM     45  C   UNL A   1      41.849 -17.446 -35.573  0.00  0.00    -0.058 A 
ATOM     46  C   UNL A   1      42.343 -17.402 -36.873  0.00  0.00    -0.060 A 
ATOM     47  C   UNL A   1      42.658 -18.586 -37.535  0.00  0.00    -0.040 A 
ATOM     48  C   UNL A   1      42.519 -19.826 -36.897  0.00  0.00    +0.035 A 
ATOM     49  C   UNL A   1      42.006 -19.877 -35.579  0.00  0.00    -0.026 A 
ATOM     50  C   UNL A   1      41.795 -21.210 -34.905  0.00  0.00    -0.038 C 
ENDBRANCH  41  48
ENDBRANCH  35  41
ENDBRANCH  31  40
ENDBRANCH  30  33
ENDBRANCH  29  30
ENDBRANCH  28  29
ENDBRANCH  27  28
ENDBRANCH   1  27
TORSDOF 15
ENDMDL
MODEL 7
REMARK VINA RESULT:    -6.235      2.770      5.393
REMARK INTER + INTRA:         -17.894
REMARK INTER:                 -10.655
REMARK INTRA:                  -7.239
REMARK UNBOUND:                -6.192
REMARK  Name = cpd12.pdb
REMARK  17 active torsions:
REMARK  status: ('A' for Active; 'I' for Inactive)
REMARK    1  A    between atoms: C_1  and  C_2
REMARK    2  A    between atoms: C_6  and  N_7
REMARK    3  A    between atoms: N_7  and  C_8
REMARK    4  A    between atoms: C_13  and  C_14
REMARK    5  A    between atoms: N_16  and  C_17
REMARK    6  A    between atoms: C_17  and  C_18
REMARK    7  A    between atoms: C_18  and  C_19
REMARK    8  A    between atoms: C_19  and  C_20
REMARK    9  A    between atoms: C_20  and  C_21
REMARK   10  A    between atoms: C_21  and  C_22
REMARK   11  A    between atoms: N_24  and  C_25
REMARK   12  A    between atoms: C_25  and  C_26
REMARK   13  A    between atoms: C_26  and  C_27
REMARK   14  A    between atoms: C_27  and  C_28
REMARK   15  A    between atoms: C_28  and  N_29
REMARK   16  A    between atoms: N_29  and  C_30
REMARK   17  A    between atoms: C_45  and  C_46
REMARK                            x       y       z     vdW  Elec       q    Type
REMARK                         _______ _______ _______ _____ _____    ______ ____
ROOT
ATOM      1  C   UNL A   1      44.434 -14.145 -35.031  0.00  0.00    +0.024 C 
ENDROOT
BRANCH   1   2
ATOM      2  C   UNL A   1      44.954 -14.061 -36.453  0.00  0.00    +0.213 C 
ATOM      3  O   UNL A   1      46.015 -13.507 -36.724  0.00  0.00    -0.276 OA
ATOM      4  N   UNL A   1      44.163 -14.688 -37.389  0.00  0.00    -0.315 N 
ATOM      5  H   UNL A   1      43.302 -15.072 -37.108  0.00  0.00    +0.000 HD
BRANCH   4   6
ATOM      6  C   UNL A   1      44.565 -14.797 -38.777  0.00  0.00    +0.012 C 
BRANCH   6   7
ATOM      7  C   UNL A   1      43.410 -14.446 -39.708  0.00  0.00    -0.036 C 
BRANCH   7   8
ATOM      8  C   UNL A   1      43.019 -15.632 -40.592  0.00  0.00    -0.036 C 
BRANCH   8   9
ATOM      9  C   UNL A   1      43.742 -16.918 -40.184  0.00  0.00    +0.009 C 
BRANCH   9  10
ATOM     10  N   UNL A   1      43.375 -18.002 -41.107  0.00  0.00    -0.343 N 
ATOM     11  H   UNL A   1      43.005 -17.856 -42.008  0.00  0.00    +0.000 HD
BRANCH  10  12
ATOM     12  C   UNL A   1      43.618 -19.291 -40.544  0.00  0.00    +0.041 A 
ATOM     13  C   UNL A   1      44.892 -19.890 -40.639  0.00  0.00    -0.005 A 
ATOM     14  C   UNL A   1      45.066 -21.133 -40.023  0.00  0.00    +0.047 A 
ATOM     15  N   UNL A   1      44.096 -21.753 -39.309  0.00  0.00    -0.251 NA
ATOM     16  C   UNL A   1      42.893 -21.176 -39.207  0.00  0.00    +0.074 A 
ATOM     17  C   UNL A   1      41.913 -21.839 -38.482  0.00  0.00    -0.017 A 
ATOM     18  C   UNL A   1      40.632 -21.309 -38.344  0.00  0.00    +0.043 A 
ATOM     19 CL   UNL A   1      39.444 -22.165 -37.440  0.00  0.00    -0.083 Cl
ATOM     20  C   UNL A   1      40.307 -20.099 -38.937  0.00  0.00    -0.043 A 
ATOM     21  C   UNL A   1      41.280 -19.420 -39.668  0.00  0.00    -0.049 A 
ATOM     22  C   UNL A   1      42.589 -19.938 -39.806  0.00  0.00    +0.022 A 
ATOM     23  C   UNL A   1      46.387 -21.860 -40.057  0.00  0.00    -0.010 C 
ATOM     24  C   UNL A   1      47.302 -21.398 -41.185  0.00  0.00    -0.047 C 
ATOM     25  C   UNL A   1      47.386 -19.880 -41.186  0.00  0.00    -0.049 C 
ATOM     26  C   UNL A   1      46.009 -19.269 -41.444  0.00  0.00    -0.024 C 
ENDBRANCH  10  12
ENDBRANCH   9  10
ENDBRANCH   8   9
ENDBRANCH   7   8
ENDBRANCH   6   7
ENDBRANCH   4   6
ENDBRANCH   1   2
BRANCH   1  27
ATOM     27  C   UNL A   1      44.338 -15.583 -34.523  0.00  0.00    -0.045 C 
BRANCH  27  28
ATOM     28  C   UNL A   1      43.050 -15.849 -33.737  0.00  0.00    -0.051 C 
BRANCH  28  29
ATOM     29  C   UNL A   1      43.098 -17.152 -32.932  0.00  0.00    -0.037 C 
BRANCH  29  30
ATOM     30  C   UNL A   1      44.525 -17.660 -32.710  0.00  0.00    +0.012 C 
BRANCH  30  33
ATOM     31  C   UNL A   1      45.463 -19.639 -33.992  0.00  0.00    +0.246 C 
ATOM     32  O   UNL A   1      45.755 -20.830 -33.937  0.00  0.00    -0.270 OA
ATOM     33  N   UNL A   1      44.680 -19.073 -33.017  0.00  0.00    -0.311 N 
ATOM     34  H   UNL A   1      44.164 -19.698 -32.458  0.00  0.00    +0.000 HD
BRANCH  31  40
ATOM     35  C   UNL A   1      45.263 -18.709 -36.330  0.00  0.00    +0.044 A 
ATOM     36  C   UNL A   1      45.812 -17.873 -37.317  0.00  0.00    -0.040 A 
ATOM     37  C   UNL A   1      47.041 -17.232 -37.127  0.00  0.00    -0.060 A 
ATOM     38  C   UNL A   1      47.742 -17.400 -35.937  0.00  0.00    -0.061 A 
ATOM     39  C   UNL A   1      47.203 -18.191 -34.926  0.00  0.00    -0.048 A 
ATOM     40  C   UNL A   1      45.959 -18.811 -35.108  0.00  0.00    +0.058 A 
BRANCH  35  41
ATOM     41  N   UNL A   1      44.000 -19.324 -36.532  0.00  0.00    -0.314 N 
ATOM     42  H   UNL A   1      44.012 -20.238 -36.896  0.00  0.00    +0.000 HD
BRANCH  41  48
ATOM     43  C   UNL A   1      39.404 -19.768 -34.605  0.00  0.00    -0.039 C 
ATOM     44  C   UNL A   1      40.455 -19.018 -35.378  0.00  0.00    -0.046 A 
ATOM     45  C   UNL A   1      40.111 -17.784 -35.954  0.00  0.00    -0.058 A 
ATOM     46  C   UNL A   1      41.041 -17.062 -36.695  0.00  0.00    -0.060 A 
ATOM     47  C   UNL A   1      42.330 -17.560 -36.864  0.00  0.00    -0.040 A 
ATOM     48  C   UNL A   1      42.720 -18.767 -36.266  0.00  0.00    +0.035 A 
ATOM     49  C   UNL A   1      41.774 -19.510 -35.521  0.00  0.00    -0.026 A 
ATOM     50  C   UNL A   1      42.165 -20.840 -34.923  0.00  0.00    -0.038 C 
ENDBRANCH  41  48
ENDBRANCH  35  41
ENDBRANCH  31  40
ENDBRANCH  30  33
ENDBRANCH  29  30
ENDBRANCH  28  29
ENDBRANCH  27  28
ENDBRANCH   1  27
TORSDOF 15
ENDMDL
MODEL 8
REMARK VINA RESULT:    -6.196      2.696      5.485
REMARK INTER + INTRA:         -17.821
REMARK INTER:                 -12.521
REMARK INTRA:                  -5.299
REMARK UNBOUND:                -6.192
REMARK  Name = cpd12.pdb
REMARK  17 active torsions:
REMARK  status: ('A' for Active; 'I' for Inactive)
REMARK    1  A    between atoms: C_1  and  C_2
REMARK    2  A    between atoms: C_6  and  N_7
REMARK    3  A    between atoms: N_7  and  C_8
REMARK    4  A    between atoms: C_13  and  C_14
REMARK    5  A    between atoms: N_16  and  C_17
REMARK    6  A    between atoms: C_17  and  C_18
REMARK    7  A    between atoms: C_18  and  C_19
REMARK    8  A    between atoms: C_19  and  C_20
REMARK    9  A    between atoms: C_20  and  C_21
REMARK   10  A    between atoms: C_21  and  C_22
REMARK   11  A    between atoms: N_24  and  C_25
REMARK   12  A    between atoms: C_25  and  C_26
REMARK   13  A    between atoms: C_26  and  C_27
REMARK   14  A    between atoms: C_27  and  C_28
REMARK   15  A    between atoms: C_28  and  N_29
REMARK   16  A    between atoms: N_29  and  C_30
REMARK   17  A    between atoms: C_45  and  C_46
REMARK                            x       y       z     vdW  Elec       q    Type
REMARK                         _______ _______ _______ _____ _____    ______ ____
ROOT
ATOM      1  C   UNL A   1      47.151 -16.175 -37.372  0.00  0.00    +0.024 C 
ENDROOT
BRANCH   1   2
ATOM      2  C   UNL A   1      46.577 -15.364 -38.518  0.00  0.00    +0.213 C 
ATOM      3  O   UNL A   1      47.132 -15.305 -39.612  0.00  0.00    -0.276 OA
ATOM      4  N   UNL A   1      45.378 -14.748 -38.239  0.00  0.00    -0.315 N 
ATOM      5  H   UNL A   1      45.014 -14.800 -37.327  0.00  0.00    +0.000 HD
BRANCH   4   6
ATOM      6  C   UNL A   1      44.639 -14.025 -39.254  0.00  0.00    +0.012 C 
BRANCH   6   7
ATOM      7  C   UNL A   1      43.449 -14.842 -39.747  0.00  0.00    -0.036 C 
BRANCH   7   8
ATOM      8  C   UNL A   1      43.684 -15.383 -41.159  0.00  0.00    -0.036 C 
BRANCH   8   9
ATOM      9  C   UNL A   1      43.684 -16.913 -41.197  0.00  0.00    +0.009 C 
BRANCH   9  10
ATOM     10  N   UNL A   1      44.827 -17.423 -40.424  0.00  0.00    -0.343 N 
ATOM     11  H   UNL A   1      45.639 -16.900 -40.233  0.00  0.00    +0.000 HD
BRANCH  10  12
ATOM     12  C   UNL A   1      44.620 -18.765 -39.985  0.00  0.00    +0.041 A 
ATOM     13  C   UNL A   1      43.638 -19.064 -39.018  0.00  0.00    -0.005 A 
ATOM     14  C   UNL A   1      43.462 -20.407 -38.672  0.00  0.00    +0.047 A 
ATOM     15  N   UNL A   1      44.148 -21.421 -39.252  0.00  0.00    -0.251 NA
ATOM     16  C   UNL A   1      45.069 -21.138 -40.181  0.00  0.00    +0.074 A 
ATOM     17  C   UNL A   1      45.767 -22.194 -40.749  0.00  0.00    -0.017 A 
ATOM     18  C   UNL A   1      46.751 -21.977 -41.710  0.00  0.00    +0.043 A 
ATOM     19 CL   UNL A   1      47.597 -23.315 -42.387  0.00  0.00    -0.083 Cl
ATOM     20  C   UNL A   1      47.057 -20.689 -42.120  0.00  0.00    -0.043 A 
ATOM     21  C   UNL A   1      46.365 -19.617 -41.561  0.00  0.00    -0.049 A 
ATOM     22  C   UNL A   1      45.353 -19.822 -40.593  0.00  0.00    +0.022 A 
ATOM     23  C   UNL A   1      42.436 -20.839 -37.655  0.00  0.00    -0.010 C 
ATOM     24  C   UNL A   1      42.001 -19.716 -36.722  0.00  0.00    -0.047 C 
ATOM     25  C   UNL A   1      41.641 -18.485 -37.537  0.00  0.00    -0.049 C 
ATOM     26  C   UNL A   1      42.858 -17.981 -38.310  0.00  0.00    -0.024 C 
ENDBRANCH  10  12
ENDBRANCH   9  10
ENDBRANCH   8   9
ENDBRANCH   7   8
ENDBRANCH   6   7
ENDBRANCH   4   6
ENDBRANCH   1   2
BRANCH   1  27
ATOM     27  C   UNL A   1      46.588 -17.594 -37.314  0.00  0.00    -0.045 C 
BRANCH  27  28
ATOM     28  C   UNL A   1      47.044 -18.362 -36.069  0.00  0.00    -0.051 C 
BRANCH  28  29
ATOM     29  C   UNL A   1      46.383 -19.739 -35.940  0.00  0.00    -0.037 C 
BRANCH  29  30
ATOM     30  C   UNL A   1      45.148 -19.723 -35.037  0.00  0.00    +0.012 C 
BRANCH  30  33
ATOM     31  C   UNL A   1      44.694 -18.230 -33.035  0.00  0.00    +0.246 C 
ATOM     32  O   UNL A   1      44.832 -18.099 -31.822  0.00  0.00    -0.270 OA
ATOM     33  N   UNL A   1      45.417 -19.178 -33.715  0.00  0.00    -0.311 N 
ATOM     34  H   UNL A   1      46.211 -19.532 -33.253  0.00  0.00    +0.000 HD
BRANCH  31  40
ATOM     35  C   UNL A   1      42.348 -17.478 -33.582  0.00  0.00    +0.044 A 
ATOM     36  C   UNL A   1      41.532 -16.593 -34.307  0.00  0.00    -0.040 A 
ATOM     37  C   UNL A   1      42.076 -15.696 -35.234  0.00  0.00    -0.060 A 
ATOM     38  C   UNL A   1      43.451 -15.654 -35.444  0.00  0.00    -0.061 A 
ATOM     39  C   UNL A   1      44.286 -16.492 -34.711  0.00  0.00    -0.048 A 
ATOM     40  C   UNL A   1      43.741 -17.371 -33.763  0.00  0.00    +0.058 A 
BRANCH  35  41
ATOM     41  N   UNL A   1      41.778 -18.357 -32.624  0.00  0.00    -0.314 N 
ATOM     42  H   UNL A   1      41.849 -18.082 -31.682  0.00  0.00    +0.000 HD
BRANCH  41  48
ATOM     43  C   UNL A   1      37.582 -21.081 -32.668  0.00  0.00    -0.039 C 
ATOM     44  C   UNL A   1      39.071 -20.930 -32.830  0.00  0.00    -0.046 A 
ATOM     45  C   UNL A   1      39.834 -22.072 -33.117  0.00  0.00    -0.058 A 
ATOM     46  C   UNL A   1      41.216 -21.987 -33.256  0.00  0.00    -0.060 A 
ATOM     47  C   UNL A   1      41.852 -20.757 -33.117  0.00  0.00    -0.040 A 
ATOM     48  C   UNL A   1      41.116 -19.589 -32.874  0.00  0.00    +0.035 A 
ATOM     49  C   UNL A   1      39.711 -19.672 -32.720  0.00  0.00    -0.026 A 
ATOM     50  C   UNL A   1      38.915 -18.432 -32.399  0.00  0.00    -0.038 C 
ENDBRANCH  41  48
ENDBRANCH  35  41
ENDBRANCH  31  40
ENDBRANCH  30  33
ENDBRANCH  29  30
ENDBRANCH  28  29
ENDBRANCH  27  28
ENDBRANCH   1  27
TORSDOF 15
ENDMDL
MODEL 9
REMARK VINA RESULT:    -6.167      3.056      6.076
REMARK INTER + INTRA:         -17.767
REMARK INTER:                 -12.449
REMARK INTRA:                  -5.318
REMARK UNBOUND:                -6.192
REMARK  Name = cpd12.pdb
REMARK  17 active torsions:
REMARK  status: ('A' for Active; 'I' for Inactive)
REMARK    1  A    between atoms: C_1  and  C_2
REMARK    2  A    between atoms: C_6  and  N_7
REMARK    3  A    between atoms: N_7  and  C_8
REMARK    4  A    between atoms: C_13  and  C_14
REMARK    5  A    between atoms: N_16  and  C_17
REMARK    6  A    between atoms: C_17  and  C_18
REMARK    7  A    between atoms: C_18  and  C_19
REMARK    8  A    between atoms: C_19  and  C_20
REMARK    9  A    between atoms: C_20  and  C_21
REMARK   10  A    between atoms: C_21  and  C_22
REMARK   11  A    between atoms: N_24  and  C_25
REMARK   12  A    between atoms: C_25  and  C_26
REMARK   13  A    between atoms: C_26  and  C_27
REMARK   14  A    between atoms: C_27  and  C_28
REMARK   15  A    between atoms: C_28  and  N_29
REMARK   16  A    between atoms: N_29  and  C_30
REMARK   17  A    between atoms: C_45  and  C_46
REMARK                            x       y       z     vdW  Elec       q    Type
REMARK                         _______ _______ _______ _____ _____    ______ ____
ROOT
ATOM      1  C   UNL A   1      47.057 -16.166 -37.371  0.00  0.00    +0.024 C 
ENDROOT
BRANCH   1   2
ATOM      2  C   UNL A   1      46.474 -15.419 -38.555  0.00  0.00    +0.213 C 
ATOM      3  O   UNL A   1      47.094 -15.284 -39.605  0.00  0.00    -0.276 OA
ATOM      4  N   UNL A   1      45.192 -14.954 -38.363  0.00  0.00    -0.315 N 
ATOM      5  H   UNL A   1      44.773 -15.058 -37.479  0.00  0.00    +0.000 HD
BRANCH   4   6
ATOM      6  C   UNL A   1      44.446 -14.315 -39.428  0.00  0.00    +0.012 C 
BRANCH   6   7
ATOM      7  C   UNL A   1      43.481 -15.299 -40.082  0.00  0.00    -0.036 C 
BRANCH   7   8
ATOM      8  C   UNL A   1      43.971 -15.732 -41.466  0.00  0.00    -0.036 C 
BRANCH   8   9
ATOM      9  C   UNL A   1      44.166 -17.246 -41.560  0.00  0.00    +0.009 C 
BRANCH   9  10
ATOM     10  N   UNL A   1      45.140 -17.680 -40.546  0.00  0.00    -0.343 N 
ATOM     11  H   UNL A   1      45.849 -17.102 -40.182  0.00  0.00    +0.000 HD
BRANCH  10  12
ATOM     12  C   UNL A   1      44.936 -19.036 -40.153  0.00  0.00    +0.041 A 
ATOM     13  C   UNL A   1      45.771 -20.062 -40.643  0.00  0.00    -0.005 A 
ATOM     14  C   UNL A   1      45.539 -21.360 -40.177  0.00  0.00    +0.047 A 
ATOM     15  N   UNL A   1      44.595 -21.661 -39.254  0.00  0.00    -0.251 NA
ATOM     16  C   UNL A   1      43.812 -20.685 -38.779  0.00  0.00    +0.074 A 
ATOM     17  C   UNL A   1      42.844 -21.024 -37.845  0.00  0.00    -0.017 A 
ATOM     18  C   UNL A   1      41.982 -20.066 -37.316  0.00  0.00    +0.043 A 
ATOM     19 CL   UNL A   1      40.791 -20.527 -36.163  0.00  0.00    -0.083 Cl
ATOM     20  C   UNL A   1      42.074 -18.743 -37.719  0.00  0.00    -0.043 A 
ATOM     21  C   UNL A   1      43.043 -18.385 -38.655  0.00  0.00    -0.049 A 
ATOM     22  C   UNL A   1      43.934 -19.344 -39.192  0.00  0.00    +0.022 A 
ATOM     23  C   UNL A   1      46.376 -22.529 -40.629  0.00  0.00    -0.010 C 
ATOM     24  C   UNL A   1      47.108 -22.277 -41.942  0.00  0.00    -0.047 C 
ATOM     25  C   UNL A   1      47.827 -20.939 -41.877  0.00  0.00    -0.049 C 
ATOM     26  C   UNL A   1      46.824 -19.802 -41.695  0.00  0.00    -0.024 C 
ENDBRANCH  10  12
ENDBRANCH   9  10
ENDBRANCH   8   9
ENDBRANCH   7   8
ENDBRANCH   6   7
ENDBRANCH   4   6
ENDBRANCH   1   2
BRANCH   1  27
ATOM     27  C   UNL A   1      46.518 -17.590 -37.248  0.00  0.00    -0.045 C 
BRANCH  27  28
ATOM     28  C   UNL A   1      46.920 -18.264 -35.932  0.00  0.00    -0.051 C 
BRANCH  28  29
ATOM     29  C   UNL A   1      46.270 -19.639 -35.742  0.00  0.00    -0.037 C 
BRANCH  29  30
ATOM     30  C   UNL A   1      44.991 -19.579 -34.903  0.00  0.00    +0.012 C 
BRANCH  30  33
ATOM     31  C   UNL A   1      44.362 -17.971 -33.042  0.00  0.00    +0.246 C 
ATOM     32  O   UNL A   1      44.456 -17.730 -31.843  0.00  0.00    -0.270 OA
ATOM     33  N   UNL A   1      45.178 -18.908 -33.626  0.00  0.00    -0.311 N 
ATOM     34  H   UNL A   1      45.985 -19.155 -33.120  0.00  0.00    +0.000 HD
BRANCH  31  40
ATOM     35  C   UNL A   1      41.977 -17.432 -33.670  0.00  0.00    +0.044 A 
ATOM     36  C   UNL A   1      41.113 -16.683 -34.487  0.00  0.00    -0.040 A 
ATOM     37  C   UNL A   1      41.607 -15.857 -35.503  0.00  0.00    -0.060 A 
ATOM     38  C   UNL A   1      42.978 -15.750 -35.714  0.00  0.00    -0.061 A 
ATOM     39  C   UNL A   1      43.859 -16.450 -34.895  0.00  0.00    -0.048 A 
ATOM     40  C   UNL A   1      43.363 -17.256 -33.860  0.00  0.00    +0.058 A 
BRANCH  35  41
ATOM     41  N   UNL A   1      41.456 -18.239 -32.624  0.00  0.00    -0.314 N 
ATOM     42  H   UNL A   1      41.485 -17.853 -31.719  0.00  0.00    +0.000 HD
BRANCH  41  48
ATOM     43  C   UNL A   1      37.466 -21.255 -32.554  0.00  0.00    -0.039 C 
ATOM     44  C   UNL A   1      38.949 -21.015 -32.639  0.00  0.00    -0.046 A 
ATOM     45  C   UNL A   1      39.806 -22.124 -32.710  0.00  0.00    -0.058 A 
ATOM     46  C   UNL A   1      41.185 -21.954 -32.769  0.00  0.00    -0.060 A 
ATOM     47  C   UNL A   1      41.726 -20.671 -32.765  0.00  0.00    -0.040 A 
ATOM     48  C   UNL A   1      40.898 -19.541 -32.739  0.00  0.00    +0.035 A 
ATOM     49  C   UNL A   1      39.494 -19.709 -32.668  0.00  0.00    -0.026 A 
ATOM     50  C   UNL A   1      38.596 -18.500 -32.578  0.00  0.00    -0.038 C 
ENDBRANCH  41  48
ENDBRANCH  35  41
ENDBRANCH  31  40
ENDBRANCH  30  33
ENDBRANCH  29  30
ENDBRANCH  28  29
ENDBRANCH  27  28
ENDBRANCH   1  27
TORSDOF 15
ENDMDL
MODEL 10
REMARK VINA RESULT:    -6.123      2.515      5.065
REMARK INTER + INTRA:         -17.685
REMARK INTER:                 -13.112
REMARK INTRA:                  -4.573
REMARK UNBOUND:                -6.192
REMARK  Name = cpd12.pdb
REMARK  17 active torsions:
REMARK  status: ('A' for Active; 'I' for Inactive)
REMARK    1  A    between atoms: C_1  and  C_2
REMARK    2  A    between atoms: C_6  and  N_7
REMARK    3  A    between atoms: N_7  and  C_8
REMARK    4  A    between atoms: C_13  and  C_14
REMARK    5  A    between atoms: N_16  and  C_17
REMARK    6  A    between atoms: C_17  and  C_18
REMARK    7  A    between atoms: C_18  and  C_19
REMARK    8  A    between atoms: C_19  and  C_20
REMARK    9  A    between atoms: C_20  and  C_21
REMARK   10  A    between atoms: C_21  and  C_22
REMARK   11  A    between atoms: N_24  and  C_25
REMARK   12  A    between atoms: C_25  and  C_26
REMARK   13  A    between atoms: C_26  and  C_27
REMARK   14  A    between atoms: C_27  and  C_28
REMARK   15  A    between atoms: C_28  and  N_29
REMARK   16  A    between atoms: N_29  and  C_30
REMARK   17  A    between atoms: C_45  and  C_46
REMARK                            x       y       z     vdW  Elec       q    Type
REMARK                         _______ _______ _______ _____ _____    ______ ____
ROOT
ATOM      1  C   UNL A   1      42.577 -15.556 -36.258  0.00  0.00    +0.024 C 
ENDROOT
BRANCH   1   2
ATOM      2  C   UNL A   1      43.655 -15.812 -35.222  0.00  0.00    +0.213 C 
ATOM      3  O   UNL A   1      44.250 -14.894 -34.665  0.00  0.00    -0.276 OA
ATOM      4  N   UNL A   1      43.871 -17.141 -34.938  0.00  0.00    -0.315 N 
ATOM      5  H   UNL A   1      43.391 -17.826 -35.456  0.00  0.00    +0.000 HD
BRANCH   4   6
ATOM      6  C   UNL A   1      44.786 -17.558 -33.895  0.00  0.00    +0.012 C 
BRANCH   6   7
ATOM      7  C   UNL A   1      45.741 -18.633 -34.406  0.00  0.00    -0.036 C 
BRANCH   7   8
ATOM      8  C   UNL A   1      46.928 -18.022 -35.153  0.00  0.00    -0.036 C 
BRANCH   8   9
ATOM      9  C   UNL A   1      47.281 -18.811 -36.416  0.00  0.00    +0.009 C 
BRANCH   9  10
ATOM     10  N   UNL A   1      46.126 -18.820 -37.328  0.00  0.00    -0.343 N 
ATOM     11  H   UNL A   1      45.192 -18.916 -37.031  0.00  0.00    +0.000 HD
BRANCH  10  12
ATOM     12  C   UNL A   1      46.519 -18.675 -38.692  0.00  0.00    +0.041 A 
ATOM     13  C   UNL A   1      46.747 -17.397 -39.244  0.00  0.00    -0.005 A 
ATOM     14  C   UNL A   1      47.175 -17.336 -40.573  0.00  0.00    +0.047 A 
ATOM     15  N   UNL A   1      47.423 -18.434 -41.326  0.00  0.00    -0.251 NA
ATOM     16  C   UNL A   1      47.220 -19.647 -40.797  0.00  0.00    +0.074 A 
ATOM     17  C   UNL A   1      47.468 -20.755 -41.595  0.00  0.00    -0.017 A 
ATOM     18  C   UNL A   1      47.266 -22.048 -41.120  0.00  0.00    +0.043 A 
ATOM     19 CL   UNL A   1      47.581 -23.396 -42.142  0.00  0.00    -0.083 Cl
ATOM     20  C   UNL A   1      46.806 -22.256 -39.829  0.00  0.00    -0.043 A 
ATOM     21  C   UNL A   1      46.553 -21.154 -39.014  0.00  0.00    -0.049 A 
ATOM     22  C   UNL A   1      46.766 -19.834 -39.478  0.00  0.00    +0.022 A 
ATOM     23  C   UNL A   1      47.455 -16.023 -41.260  0.00  0.00    -0.010 C 
ATOM     24  C   UNL A   1      46.777 -14.834 -40.590  0.00  0.00    -0.047 C 
ATOM     25  C   UNL A   1      47.051 -14.866 -39.095  0.00  0.00    -0.049 C 
ATOM     26  C   UNL A   1      46.463 -16.130 -38.471  0.00  0.00    -0.024 C 
ENDBRANCH  10  12
ENDBRANCH   9  10
ENDBRANCH   8   9
ENDBRANCH   7   8
ENDBRANCH   6   7
ENDBRANCH   4   6
ENDBRANCH   1   2
BRANCH   1  27
ATOM     27  C   UNL A   1      42.106 -16.836 -36.947  0.00  0.00    -0.045 C 
BRANCH  27  28
ATOM     28  C   UNL A   1      40.592 -17.043 -36.840  0.00  0.00    -0.051 C 
BRANCH  28  29
ATOM     29  C   UNL A   1      40.215 -18.400 -36.239  0.00  0.00    -0.037 C 
BRANCH  29  30
ATOM     30  C   UNL A   1      39.895 -18.319 -34.744  0.00  0.00    +0.012 C 
BRANCH  30  33
ATOM     31  C   UNL A   1      41.223 -20.100 -33.517  0.00  0.00    +0.246 C 
ATOM     32  O   UNL A   1      42.328 -20.419 -33.089  0.00  0.00    -0.270 OA
ATOM     33  N   UNL A   1      40.978 -18.806 -33.903  0.00  0.00    -0.311 N 
ATOM     34  H   UNL A   1      41.609 -18.127 -33.573  0.00  0.00    +0.000 HD
BRANCH  31  40
ATOM     35  C   UNL A   1      40.159 -22.101 -34.627  0.00  0.00    +0.044 A 
ATOM     36  C   UNL A   1      39.107 -23.033 -34.620  0.00  0.00    -0.040 A 
ATOM     37  C   UNL A   1      38.054 -22.934 -33.704  0.00  0.00    -0.060 A 
ATOM     38  C   UNL A   1      38.038 -21.910 -32.762  0.00  0.00    -0.061 A 
ATOM     39  C   UNL A   1      39.088 -20.997 -32.720  0.00  0.00    -0.048 A 
ATOM     40  C   UNL A   1      40.155 -21.113 -33.622  0.00  0.00    +0.058 A 
BRANCH  35  41
ATOM     41  N   UNL A   1      41.233 -22.239 -35.545  0.00  0.00    -0.314 N 
ATOM     42  H   UNL A   1      42.084 -22.569 -35.176  0.00  0.00    +0.000 HD
BRANCH  41  48
ATOM     43  C   UNL A   1      42.993 -19.656 -39.451  0.00  0.00    -0.039 C 
ATOM     44  C   UNL A   1      42.039 -20.639 -38.829  0.00  0.00    -0.046 A 
ATOM     45  C   UNL A   1      41.028 -21.193 -39.630  0.00  0.00    -0.058 A 
ATOM     46  C   UNL A   1      40.110 -22.091 -39.096  0.00  0.00    -0.060 A 
ATOM     47  C   UNL A   1      40.193 -22.453 -37.755  0.00  0.00    -0.040 A 
ATOM     48  C   UNL A   1      41.217 -21.953 -36.937  0.00  0.00    +0.035 A 
ATOM     49  C   UNL A   1      42.147 -21.031 -37.473  0.00  0.00    -0.026 A 
ATOM     50  C   UNL A   1      43.216 -20.440 -36.586  0.00  0.00    -0.038 C 
ENDBRANCH  41  48
ENDBRANCH  35  41
ENDBRANCH  31  40
ENDBRANCH  30  33
ENDBRANCH  29  30
ENDBRANCH  28  29
ENDBRANCH  27  28
ENDBRANCH   1  27
TORSDOF 15
ENDMDL
MODEL 11
REMARK VINA RESULT:    -6.064      3.016      5.921
REMARK INTER + INTRA:         -17.574
REMARK INTER:                 -13.338
REMARK INTRA:                  -4.236
REMARK UNBOUND:                -6.192
REMARK  Name = cpd12.pdb
REMARK  17 active torsions:
REMARK  status: ('A' for Active; 'I' for Inactive)
REMARK    1  A    between atoms: C_1  and  C_2
REMARK    2  A    between atoms: C_6  and  N_7
REMARK    3  A    between atoms: N_7  and  C_8
REMARK    4  A    between atoms: C_13  and  C_14
REMARK    5  A    between atoms: N_16  and  C_17
REMARK    6  A    between atoms: C_17  and  C_18
REMARK    7  A    between atoms: C_18  and  C_19
REMARK    8  A    between atoms: C_19  and  C_20
REMARK    9  A    between atoms: C_20  and  C_21
REMARK   10  A    between atoms: C_21  and  C_22
REMARK   11  A    between atoms: N_24  and  C_25
REMARK   12  A    between atoms: C_25  and  C_26
REMARK   13  A    between atoms: C_26  and  C_27
REMARK   14  A    between atoms: C_27  and  C_28
REMARK   15  A    between atoms: C_28  and  N_29
REMARK   16  A    between atoms: N_29  and  C_30
REMARK   17  A    between atoms: C_45  and  C_46
REMARK                            x       y       z     vdW  Elec       q    Type
REMARK                         _______ _______ _______ _____ _____    ______ ____
ROOT
ATOM      1  C   UNL A   1      43.340 -18.790 -35.034  0.00  0.00    +0.024 C 
ENDROOT
BRANCH   1   2
ATOM      2  C   UNL A   1      44.724 -18.887 -34.420  0.00  0.00    +0.213 C 
ATOM      3  O   UNL A   1      45.044 -19.818 -33.688  0.00  0.00    -0.276 OA
ATOM      4  N   UNL A   1      45.585 -17.877 -34.786  0.00  0.00    -0.315 N 
ATOM      5  H   UNL A   1      45.246 -17.137 -35.340  0.00  0.00    +0.000 HD
BRANCH   4   6
ATOM      6  C   UNL A   1      46.975 -17.876 -34.378  0.00  0.00    +0.012 C 
BRANCH   6   7
ATOM      7  C   UNL A   1      47.898 -17.901 -35.592  0.00  0.00    -0.036 C 
BRANCH   7   8
ATOM      8  C   UNL A   1      47.139 -17.590 -36.883  0.00  0.00    -0.036 C 
BRANCH   8   9
ATOM      9  C   UNL A   1      47.305 -18.694 -37.929  0.00  0.00    +0.009 C 
BRANCH   9  10
ATOM     10  N   UNL A   1      46.022 -19.389 -38.117  0.00  0.00    -0.343 N 
ATOM     11  H   UNL A   1      45.517 -19.819 -37.389  0.00  0.00    +0.000 HD
BRANCH  10  12
ATOM     12  C   UNL A   1      45.595 -19.366 -39.478  0.00  0.00    +0.041 A 
ATOM     13  C   UNL A   1      45.803 -20.480 -40.318  0.00  0.00    -0.005 A 
ATOM     14  C   UNL A   1      45.316 -20.402 -41.626  0.00  0.00    +0.047 A 
ATOM     15  N   UNL A   1      44.621 -19.340 -42.099  0.00  0.00    -0.251 NA
ATOM     16  C   UNL A   1      44.411 -18.289 -41.297  0.00  0.00    +0.074 A 
ATOM     17  C   UNL A   1      43.708 -17.208 -41.811  0.00  0.00    -0.017 A 
ATOM     18  C   UNL A   1      43.463 -16.073 -41.042  0.00  0.00    +0.043 A 
ATOM     19 CL   UNL A   1      42.592 -14.752 -41.719  0.00  0.00    -0.083 Cl
ATOM     20  C   UNL A   1      43.924 -15.998 -39.737  0.00  0.00    -0.043 A 
ATOM     21  C   UNL A   1      44.630 -17.075 -39.205  0.00  0.00    -0.049 A 
ATOM     22  C   UNL A   1      44.876 -18.241 -39.969  0.00  0.00    +0.022 A 
ATOM     23  C   UNL A   1      45.477 -21.537 -42.605  0.00  0.00    -0.010 C 
ATOM     24  C   UNL A   1      46.597 -22.501 -42.232  0.00  0.00    -0.047 C 
ATOM     25  C   UNL A   1      46.458 -22.906 -40.773  0.00  0.00    -0.049 C 
ATOM     26  C   UNL A   1      46.595 -21.685 -39.866  0.00  0.00    -0.024 C 
ENDBRANCH  10  12
ENDBRANCH   9  10
ENDBRANCH   8   9
ENDBRANCH   7   8
ENDBRANCH   6   7
ENDBRANCH   4   6
ENDBRANCH   1   2
BRANCH   1  27
ATOM     27  C   UNL A   1      43.303 -19.276 -36.482  0.00  0.00    -0.045 C 
BRANCH  27  28
ATOM     28  C   UNL A   1      43.276 -20.804 -36.594  0.00  0.00    -0.051 C 
BRANCH  28  29
ATOM     29  C   UNL A   1      42.282 -21.309 -37.645  0.00  0.00    -0.037 C 
BRANCH  29  30
ATOM     30  C   UNL A   1      42.060 -20.307 -38.781  0.00  0.00    +0.012 C 
BRANCH  30  33
ATOM     31  C   UNL A   1      39.724 -19.335 -38.981  0.00  0.00    +0.246 C 
ATOM     32  O   UNL A   1      38.724 -19.249 -39.687  0.00  0.00    -0.270 OA
ATOM     33  N   UNL A   1      40.684 -20.278 -39.253  0.00  0.00    -0.311 N 
ATOM     34  H   UNL A   1      40.409 -21.021 -39.837  0.00  0.00    +0.000 HD
BRANCH  31  40
ATOM     35  C   UNL A   1      39.129 -18.534 -36.662  0.00  0.00    +0.044 A 
ATOM     36  C   UNL A   1      39.394 -17.623 -35.625  0.00  0.00    -0.040 A 
ATOM     37  C   UNL A   1      40.326 -16.592 -35.783  0.00  0.00    -0.060 A 
ATOM     38  C   UNL A   1      41.027 -16.458 -36.978  0.00  0.00    -0.061 A 
ATOM     39  C   UNL A   1      40.813 -17.369 -38.008  0.00  0.00    -0.048 A 
ATOM     40  C   UNL A   1      39.898 -18.418 -37.838  0.00  0.00    +0.058 A 
BRANCH  35  41
ATOM     41  N   UNL A   1      38.203 -19.592 -36.469  0.00  0.00    -0.314 N 
ATOM     42  H   UNL A   1      37.660 -19.845 -37.249  0.00  0.00    +0.000 HD
BRANCH  41  48
ATOM     43  C   UNL A   1      38.603 -23.841 -33.858  0.00  0.00    -0.039 C 
ATOM     44  C   UNL A   1      38.116 -22.427 -34.030  0.00  0.00    -0.046 A 
ATOM     45  C   UNL A   1      37.308 -21.869 -33.028  0.00  0.00    -0.058 A 
ATOM     46  C   UNL A   1      36.816 -20.573 -33.150  0.00  0.00    -0.060 A 
ATOM     47  C   UNL A   1      37.132 -19.816 -34.275  0.00  0.00    -0.040 A 
ATOM     48  C   UNL A   1      37.973 -20.326 -35.274  0.00  0.00    +0.035 A 
ATOM     49  C   UNL A   1      38.466 -21.648 -35.159  0.00  0.00    -0.026 A 
ATOM     50  C   UNL A   1      39.322 -22.229 -36.257  0.00  0.00    -0.038 C 
ENDBRANCH  41  48
ENDBRANCH  35  41
ENDBRANCH  31  40
ENDBRANCH  30  33
ENDBRANCH  29  30
ENDBRANCH  28  29
ENDBRANCH  27  28
ENDBRANCH   1  27
TORSDOF 15
ENDMDL
MODEL 12
REMARK VINA RESULT:    -5.954      3.144      6.623
REMARK INTER + INTRA:         -17.367
REMARK INTER:                 -10.392
REMARK INTRA:                  -6.975
REMARK UNBOUND:                -6.192
REMARK  Name = cpd12.pdb
REMARK  17 active torsions:
REMARK  status: ('A' for Active; 'I' for Inactive)
REMARK    1  A    between atoms: C_1  and  C_2
REMARK    2  A    between atoms: C_6  and  N_7
REMARK    3  A    between atoms: N_7  and  C_8
REMARK    4  A    between atoms: C_13  and  C_14
REMARK    5  A    between atoms: N_16  and  C_17
REMARK    6  A    between atoms: C_17  and  C_18
REMARK    7  A    between atoms: C_18  and  C_19
REMARK    8  A    between atoms: C_19  and  C_20
REMARK    9  A    between atoms: C_20  and  C_21
REMARK   10  A    between atoms: C_21  and  C_22
REMARK   11  A    between atoms: N_24  and  C_25
REMARK   12  A    between atoms: C_25  and  C_26
REMARK   13  A    between atoms: C_26  and  C_27
REMARK   14  A    between atoms: C_27  and  C_28
REMARK   15  A    between atoms: C_28  and  N_29
REMARK   16  A    between atoms: N_29  and  C_30
REMARK   17  A    between atoms: C_45  and  C_46
REMARK                            x       y       z     vdW  Elec       q    Type
REMARK                         _______ _______ _______ _____ _____    ______ ____
ROOT
ATOM      1  C   UNL A   1      46.113 -17.121 -40.018  0.00  0.00    +0.024 C 
ENDROOT
BRANCH   1   2
ATOM      2  C   UNL A   1      44.885 -16.894 -40.878  0.00  0.00    +0.213 C 
ATOM      3  O   UNL A   1      44.455 -17.759 -41.635  0.00  0.00    -0.276 OA
ATOM      4  N   UNL A   1      44.282 -15.669 -40.703  0.00  0.00    -0.315 N 
ATOM      5  H   UNL A   1      44.709 -15.006 -40.114  0.00  0.00    +0.000 HD
BRANCH   4   6
ATOM      6  C   UNL A   1      43.038 -15.330 -41.364  0.00  0.00    +0.012 C 
BRANCH   6   7
ATOM      7  C   UNL A   1      41.914 -15.153 -40.349  0.00  0.00    -0.036 C 
BRANCH   7   8
ATOM      8  C   UNL A   1      42.068 -16.110 -39.165  0.00  0.00    -0.036 C 
BRANCH   8   9
ATOM      9  C   UNL A   1      41.379 -17.453 -39.417  0.00  0.00    +0.009 C 
BRANCH   9  10
ATOM     10  N   UNL A   1      40.093 -17.488 -38.704  0.00  0.00    -0.343 N 
ATOM     11  H   UNL A   1      39.282 -17.020 -39.009  0.00  0.00    +0.000 HD
BRANCH  10  12
ATOM     12  C   UNL A   1      40.159 -18.278 -37.518  0.00  0.00    +0.041 A 
ATOM     13  C   UNL A   1      40.241 -19.684 -37.593  0.00  0.00    -0.005 A 
ATOM     14  C   UNL A   1      40.350 -20.388 -36.390  0.00  0.00    +0.047 A 
ATOM     15  N   UNL A   1      40.428 -19.786 -35.179  0.00  0.00    -0.251 NA
ATOM     16  C   UNL A   1      40.365 -18.451 -35.110  0.00  0.00    +0.074 A 
ATOM     17  C   UNL A   1      40.434 -17.860 -33.856  0.00  0.00    -0.017 A 
ATOM     18  C   UNL A   1      40.360 -16.477 -33.704  0.00  0.00    +0.043 A 
ATOM     19 CL   UNL A   1      40.443 -15.784 -32.131  0.00  0.00    -0.083 Cl
ATOM     20  C   UNL A   1      40.211 -15.657 -34.811  0.00  0.00    -0.043 A 
ATOM     21  C   UNL A   1      40.143 -16.234 -36.078  0.00  0.00    -0.049 A 
ATOM     22  C   UNL A   1      40.230 -17.636 -36.251  0.00  0.00    +0.022 A 
ATOM     23  C   UNL A   1      40.450 -21.893 -36.354  0.00  0.00    -0.010 C 
ATOM     24  C   UNL A   1      39.934 -22.563 -37.621  0.00  0.00    -0.047 C 
ATOM     25  C   UNL A   1      40.546 -21.891 -38.840  0.00  0.00    -0.049 C 
ATOM     26  C   UNL A   1      40.131 -20.423 -38.906  0.00  0.00    -0.024 C 
ENDBRANCH  10  12
ENDBRANCH   9  10
ENDBRANCH   8   9
ENDBRANCH   7   8
ENDBRANCH   6   7
ENDBRANCH   4   6
ENDBRANCH   1   2
BRANCH   1  27
ATOM     27  C   UNL A   1      45.919 -16.653 -38.577  0.00  0.00    -0.045 C 
BRANCH  27  28
ATOM     28  C   UNL A   1      47.238 -16.540 -37.807  0.00  0.00    -0.051 C 
BRANCH  28  29
ATOM     29  C   UNL A   1      47.102 -16.915 -36.328  0.00  0.00    -0.037 C 
BRANCH  29  30
ATOM     30  C   UNL A   1      47.919 -18.153 -35.952  0.00  0.00    +0.012 C 
BRANCH  30  33
ATOM     31  C   UNL A   1      46.310 -19.949 -35.159  0.00  0.00    +0.246 C 
ATOM     32  O   UNL A   1      46.083 -20.789 -34.294  0.00  0.00    -0.270 OA
ATOM     33  N   UNL A   1      47.266 -18.985 -34.953  0.00  0.00    -0.311 N 
ATOM     34  H   UNL A   1      47.541 -18.840 -34.019  0.00  0.00    +0.000 HD
BRANCH  31  40
ATOM     35  C   UNL A   1      44.258 -19.448 -36.540  0.00  0.00    +0.044 A 
ATOM     36  C   UNL A   1      43.643 -19.507 -37.802  0.00  0.00    -0.040 A 
ATOM     37  C   UNL A   1      44.263 -20.139 -38.885  0.00  0.00    -0.060 A 
ATOM     38  C   UNL A   1      45.521 -20.714 -38.734  0.00  0.00    -0.061 A 
ATOM     39  C   UNL A   1      46.171 -20.637 -37.505  0.00  0.00    -0.048 A 
ATOM     40  C   UNL A   1      45.559 -19.979 -36.428  0.00  0.00    +0.058 A 
BRANCH  35  41
ATOM     41  N   UNL A   1      43.625 -18.774 -35.463  0.00  0.00    -0.314 N 
ATOM     42  H   UNL A   1      42.930 -19.276 -34.981  0.00  0.00    +0.000 HD
BRANCH  41  48
ATOM     43  C   UNL A   1      44.422 -15.582 -31.694  0.00  0.00    -0.039 C 
ATOM     44  C   UNL A   1      44.207 -15.892 -33.151  0.00  0.00    -0.046 A 
ATOM     45  C   UNL A   1      44.139 -14.825 -34.061  0.00  0.00    -0.058 A 
ATOM     46  C   UNL A   1      43.922 -15.058 -35.415  0.00  0.00    -0.060 A 
ATOM     47  C   UNL A   1      43.776 -16.362 -35.879  0.00  0.00    -0.040 A 
ATOM     48  C   UNL A   1      43.883 -17.453 -35.005  0.00  0.00    +0.035 A 
ATOM     49  C   UNL A   1      44.092 -17.220 -33.625  0.00  0.00    -0.026 A 
ATOM     50  C   UNL A   1      44.148 -18.384 -32.666  0.00  0.00    -0.038 C 
ENDBRANCH  41  48
ENDBRANCH  35  41
ENDBRANCH  31  40
ENDBRANCH  30  33
ENDBRANCH  29  30
ENDBRANCH  28  29
ENDBRANCH  27  28
ENDBRANCH   1  27
TORSDOF 15
ENDMDL
MODEL 13
REMARK VINA RESULT:    -5.938      3.192      7.282
REMARK INTER + INTRA:         -17.338
REMARK INTER:                 -11.365
REMARK INTRA:                  -5.973
REMARK UNBOUND:                -6.192
REMARK  Name = cpd12.pdb
REMARK  17 active torsions:
REMARK  status: ('A' for Active; 'I' for Inactive)
REMARK    1  A    between atoms: C_1  and  C_2
REMARK    2  A    between atoms: C_6  and  N_7
REMARK    3  A    between atoms: N_7  and  C_8
REMARK    4  A    between atoms: C_13  and  C_14
REMARK    5  A    between atoms: N_16  and  C_17
REMARK    6  A    between atoms: C_17  and  C_18
REMARK    7  A    between atoms: C_18  and  C_19
REMARK    8  A    between atoms: C_19  and  C_20
REMARK    9  A    between atoms: C_20  and  C_21
REMARK   10  A    between atoms: C_21  and  C_22
REMARK   11  A    between atoms: N_24  and  C_25
REMARK   12  A    between atoms: C_25  and  C_26
REMARK   13  A    between atoms: C_26  and  C_27
REMARK   14  A    between atoms: C_27  and  C_28
REMARK   15  A    between atoms: C_28  and  N_29
REMARK   16  A    between atoms: N_29  and  C_30
REMARK   17  A    between atoms: C_45  and  C_46
REMARK                            x       y       z     vdW  Elec       q    Type
REMARK                         _______ _______ _______ _____ _____    ______ ____
ROOT
ATOM      1  C   UNL A   1      43.989 -15.179 -36.156  0.00  0.00    +0.024 C 
ENDROOT
BRANCH   1   2
ATOM      2  C   UNL A   1      43.031 -14.813 -37.273  0.00  0.00    +0.213 C 
ATOM      3  O   UNL A   1      42.008 -14.168 -37.064  0.00  0.00    -0.276 OA
ATOM      4  N   UNL A   1      43.428 -15.224 -38.526  0.00  0.00    -0.315 N 
ATOM      5  H   UNL A   1      44.237 -15.777 -38.613  0.00  0.00    +0.000 HD
BRANCH   4   6
ATOM      6  C   UNL A   1      42.687 -14.863 -39.717  0.00  0.00    +0.012 C 
BRANCH   6   7
ATOM      7  C   UNL A   1      41.948 -16.070 -40.285  0.00  0.00    -0.036 C 
BRANCH   7   8
ATOM      8  C   UNL A   1      40.689 -16.391 -39.477  0.00  0.00    -0.036 C 
BRANCH   8   9
ATOM      9  C   UNL A   1      40.748 -17.785 -38.849  0.00  0.00    +0.009 C 
BRANCH   9  10
ATOM     10  N   UNL A   1      39.451 -18.099 -38.229  0.00  0.00    -0.343 N 
ATOM     11  H   UNL A   1      38.581 -17.923 -38.655  0.00  0.00    +0.000 HD
BRANCH  10  12
ATOM     12  C   UNL A   1      39.603 -18.689 -36.939  0.00  0.00    +0.041 A 
ATOM     13  C   UNL A   1      39.720 -20.087 -36.794  0.00  0.00    -0.005 A 
ATOM     14  C   UNL A   1      39.913 -20.588 -35.503  0.00  0.00    +0.047 A 
ATOM     15  N   UNL A   1      40.040 -19.798 -34.410  0.00  0.00    -0.251 NA
ATOM     16  C   UNL A   1      39.944 -18.471 -34.550  0.00  0.00    +0.074 A 
ATOM     17  C   UNL A   1      40.063 -17.686 -33.412  0.00  0.00    -0.017 A 
ATOM     18  C   UNL A   1      39.959 -16.299 -33.476  0.00  0.00    +0.043 A 
ATOM     19 CL   UNL A   1      40.108 -15.361 -32.040  0.00  0.00    -0.083 Cl
ATOM     20  C   UNL A   1      39.728 -15.669 -34.689  0.00  0.00    -0.043 A 
ATOM     21  C   UNL A   1      39.607 -16.442 -35.842  0.00  0.00    -0.049 A 
ATOM     22  C   UNL A   1      39.724 -17.851 -35.795  0.00  0.00    +0.022 A 
ATOM     23  C   UNL A   1      40.058 -22.065 -35.235  0.00  0.00    -0.010 C 
ATOM     24  C   UNL A   1      39.493 -22.938 -36.349  0.00  0.00    -0.047 C 
ATOM     25  C   UNL A   1      40.019 -22.459 -37.692  0.00  0.00    -0.049 C 
ATOM     26  C   UNL A   1      39.560 -21.028 -37.965  0.00  0.00    -0.024 C 
ENDBRANCH  10  12
ENDBRANCH   9  10
ENDBRANCH   8   9
ENDBRANCH   7   8
ENDBRANCH   6   7
ENDBRANCH   4   6
ENDBRANCH   1   2
BRANCH   1  27
ATOM     27  C   UNL A   1      43.456 -16.302 -35.267  0.00  0.00    -0.045 C 
BRANCH  27  28
ATOM     28  C   UNL A   1      43.227 -17.608 -36.034  0.00  0.00    -0.051 C 
BRANCH  28  29
ATOM     29  C   UNL A   1      43.517 -18.855 -35.193  0.00  0.00    -0.037 C 
BRANCH  29  30
ATOM     30  C   UNL A   1      44.507 -18.587 -34.056  0.00  0.00    +0.012 C 
BRANCH  30  33
ATOM     31  C   UNL A   1      46.800 -19.381 -34.799  0.00  0.00    +0.246 C 
ATOM     32  O   UNL A   1      47.799 -20.019 -34.480  0.00  0.00    -0.270 OA
ATOM     33  N   UNL A   1      45.645 -19.493 -34.066  0.00  0.00    -0.311 N 
ATOM     34  H   UNL A   1      45.578 -20.279 -33.477  0.00  0.00    +0.000 HD
BRANCH  31  40
ATOM     35  C   UNL A   1      46.501 -18.930 -37.264  0.00  0.00    +0.044 A 
ATOM     36  C   UNL A   1      46.553 -17.987 -38.305  0.00  0.00    -0.040 A 
ATOM     37  C   UNL A   1      47.003 -16.681 -38.082  0.00  0.00    -0.060 A 
ATOM     38  C   UNL A   1      47.398 -16.284 -36.808  0.00  0.00    -0.061 A 
ATOM     39  C   UNL A   1      47.320 -17.185 -35.750  0.00  0.00    -0.048 A 
ATOM     40  C   UNL A   1      46.843 -18.486 -35.971  0.00  0.00    +0.058 A 
BRANCH  35  41
ATOM     41  N   UNL A   1      46.011 -20.240 -37.506  0.00  0.00    -0.314 N 
ATOM     42  H   UNL A   1      46.292 -20.936 -36.870  0.00  0.00    +0.000 HD
BRANCH  41  48
ATOM     43  C   UNL A   1      45.431 -22.097 -42.115  0.00  0.00    -0.039 C 
ATOM     44  C   UNL A   1      44.888 -21.505 -40.842  0.00  0.00    -0.046 A 
ATOM     45  C   UNL A   1      43.511 -21.249 -40.755  0.00  0.00    -0.058 A 
ATOM     46  C   UNL A   1      42.964 -20.684 -39.608  0.00  0.00    -0.060 A 
ATOM     47  C   UNL A   1      43.786 -20.374 -38.528  0.00  0.00    -0.040 A 
ATOM     48  C   UNL A   1      45.159 -20.658 -38.564  0.00  0.00    +0.035 A 
ATOM     49  C   UNL A   1      45.722 -21.222 -39.734  0.00  0.00    -0.026 A 
ATOM     50  C   UNL A   1      47.208 -21.474 -39.807  0.00  0.00    -0.038 C 
ENDBRANCH  41  48
ENDBRANCH  35  41
ENDBRANCH  31  40
ENDBRANCH  30  33
ENDBRANCH  29  30
ENDBRANCH  28  29
ENDBRANCH  27  28
ENDBRANCH   1  27
TORSDOF 15
ENDMDL
MODEL 14
REMARK VINA RESULT:    -5.851      2.254      4.417
REMARK INTER + INTRA:         -17.174
REMARK INTER:                 -11.267
REMARK INTRA:                  -5.908
REMARK UNBOUND:                -6.192
REMARK  Name = cpd12.pdb
REMARK  17 active torsions:
REMARK  status: ('A' for Active; 'I' for Inactive)
REMARK    1  A    between atoms: C_1  and  C_2
REMARK    2  A    between atoms: C_6  and  N_7
REMARK    3  A    between atoms: N_7  and  C_8
REMARK    4  A    between atoms: C_13  and  C_14
REMARK    5  A    between atoms: N_16  and  C_17
REMARK    6  A    between atoms: C_17  and  C_18
REMARK    7  A    between atoms: C_18  and  C_19
REMARK    8  A    between atoms: C_19  and  C_20
REMARK    9  A    between atoms: C_20  and  C_21
REMARK   10  A    between atoms: C_21  and  C_22
REMARK   11  A    between atoms: N_24  and  C_25
REMARK   12  A    between atoms: C_25  and  C_26
REMARK   13  A    between atoms: C_26  and  C_27
REMARK   14  A    between atoms: C_27  and  C_28
REMARK   15  A    between atoms: C_28  and  N_29
REMARK   16  A    between atoms: N_29  and  C_30
REMARK   17  A    between atoms: C_45  and  C_46
REMARK                            x       y       z     vdW  Elec       q    Type
REMARK                         _______ _______ _______ _____ _____    ______ ____
ROOT
ATOM      1  C   UNL A   1      40.416 -16.823 -34.655  0.00  0.00    +0.024 C 
ENDROOT
BRANCH   1   2
ATOM      2  C   UNL A   1      40.307 -16.068 -35.966  0.00  0.00    +0.213 C 
ATOM      3  O   UNL A   1      39.222 -15.817 -36.481  0.00  0.00    -0.276 OA
ATOM      4  N   UNL A   1      41.511 -15.658 -36.492  0.00  0.00    -0.315 N 
ATOM      5  H   UNL A   1      42.346 -15.934 -36.049  0.00  0.00    +0.000 HD
BRANCH   4   6
ATOM      6  C   UNL A   1      41.582 -14.832 -37.680  0.00  0.00    +0.012 C 
BRANCH   6   7
ATOM      7  C   UNL A   1      43.032 -14.544 -38.057  0.00  0.00    -0.036 C 
BRANCH   7   8
ATOM      8  C   UNL A   1      43.344 -15.005 -39.483  0.00  0.00    -0.036 C 
BRANCH   8   9
ATOM      9  C   UNL A   1      43.539 -16.520 -39.569  0.00  0.00    +0.009 C 
BRANCH   9  10
ATOM     10  N   UNL A   1      44.972 -16.824 -39.699  0.00  0.00    -0.343 N 
ATOM     11  H   UNL A   1      45.630 -16.211 -40.100  0.00  0.00    +0.000 HD
BRANCH  10  12
ATOM     12  C   UNL A   1      45.296 -18.112 -39.176  0.00  0.00    +0.041 A 
ATOM     13  C   UNL A   1      45.336 -18.335 -37.784  0.00  0.00    -0.005 A 
ATOM     14  C   UNL A   1      45.615 -19.633 -37.347  0.00  0.00    +0.047 A 
ATOM     15  N   UNL A   1      45.798 -20.679 -38.189  0.00  0.00    -0.251 NA
ATOM     16  C   UNL A   1      45.746 -20.469 -39.510  0.00  0.00    +0.074 A 
ATOM     17  C   UNL A   1      45.950 -21.554 -40.350  0.00  0.00    -0.017 A 
ATOM     18  C   UNL A   1      45.926 -21.411 -41.735  0.00  0.00    +0.043 A 
ATOM     19 CL   UNL A   1      46.190 -22.782 -42.743  0.00  0.00    -0.083 Cl
ATOM     20  C   UNL A   1      45.699 -20.169 -42.307  0.00  0.00    -0.043 A 
ATOM     21  C   UNL A   1      45.489 -19.069 -41.478  0.00  0.00    -0.049 A 
ATOM     22  C   UNL A   1      45.498 -19.200 -40.069  0.00  0.00    +0.022 A 
ATOM     23  C   UNL A   1      45.675 -19.985 -35.882  0.00  0.00    -0.010 C 
ATOM     24  C   UNL A   1      45.904 -18.778 -34.980  0.00  0.00    -0.047 C 
ATOM     25  C   UNL A   1      44.932 -17.670 -35.352  0.00  0.00    -0.049 C 
ATOM     26  C   UNL A   1      45.170 -17.210 -36.789  0.00  0.00    -0.024 C 
ENDBRANCH  10  12
ENDBRANCH   9  10
ENDBRANCH   8   9
ENDBRANCH   7   8
ENDBRANCH   6   7
ENDBRANCH   4   6
ENDBRANCH   1   2
BRANCH   1  27
ATOM     27  C   UNL A   1      41.254 -18.095 -34.776  0.00  0.00    -0.045 C 
BRANCH  27  28
ATOM     28  C   UNL A   1      41.876 -18.524 -33.443  0.00  0.00    -0.051 C 
BRANCH  28  29
ATOM     29  C   UNL A   1      42.436 -19.949 -33.476  0.00  0.00    -0.037 C 
BRANCH  29  30
ATOM     30  C   UNL A   1      42.040 -20.714 -34.741  0.00  0.00    +0.012 C 
BRANCH  30  33
ATOM     31  C   UNL A   1      40.043 -22.241 -34.389  0.00  0.00    +0.246 C 
ATOM     32  O   UNL A   1      39.628 -23.393 -34.468  0.00  0.00    -0.270 OA
ATOM     33  N   UNL A   1      41.390 -21.985 -34.459  0.00  0.00    -0.311 N 
ATOM     34  H   UNL A   1      41.987 -22.751 -34.299  0.00  0.00    +0.000 HD
BRANCH  31  40
ATOM     35  C   UNL A   1      38.465 -20.509 -35.328  0.00  0.00    +0.044 A 
ATOM     36  C   UNL A   1      37.556 -19.473 -35.057  0.00  0.00    -0.040 A 
ATOM     37  C   UNL A   1      37.342 -19.015 -33.752  0.00  0.00    -0.060 A 
ATOM     38  C   UNL A   1      38.021 -19.595 -32.686  0.00  0.00    -0.061 A 
ATOM     39  C   UNL A   1      38.899 -20.650 -32.920  0.00  0.00    -0.048 A 
ATOM     40  C   UNL A   1      39.091 -21.126 -34.226  0.00  0.00    +0.058 A 
BRANCH  35  41
ATOM     41  N   UNL A   1      38.643 -20.980 -36.655  0.00  0.00    -0.314 N 
ATOM     42  H   UNL A   1      38.086 -21.745 -36.926  0.00  0.00    +0.000 HD
BRANCH  41  48
ATOM     43  C   UNL A   1      42.369 -21.709 -39.912  0.00  0.00    -0.039 C 
ATOM     44  C   UNL A   1      41.400 -20.823 -39.178  0.00  0.00    -0.046 A 
ATOM     45  C   UNL A   1      41.469 -19.436 -39.386  0.00  0.00    -0.058 A 
ATOM     46  C   UNL A   1      40.608 -18.573 -38.716  0.00  0.00    -0.060 A 
ATOM     47  C   UNL A   1      39.661 -19.086 -37.834  0.00  0.00    -0.040 A 
ATOM     48  C   UNL A   1      39.535 -20.468 -37.637  0.00  0.00    +0.035 A 
ATOM     49  C   UNL A   1      40.416 -21.349 -38.308  0.00  0.00    -0.026 A 
ATOM     50  C   UNL A   1      40.329 -22.835 -38.057  0.00  0.00    -0.038 C 
ENDBRANCH  41  48
ENDBRANCH  35  41
ENDBRANCH  31  40
ENDBRANCH  30  33
ENDBRANCH  29  30
ENDBRANCH  28  29
ENDBRANCH  27  28
ENDBRANCH   1  27
TORSDOF 15
ENDMDL
MODEL 15
REMARK VINA RESULT:    -5.795      3.797      8.352
REMARK INTER + INTRA:         -17.068
REMARK INTER:                 -13.444
REMARK INTRA:                  -3.625
REMARK UNBOUND:                -6.192
REMARK  Name = cpd12.pdb
REMARK  17 active torsions:
REMARK  status: ('A' for Active; 'I' for Inactive)
REMARK    1  A    between atoms: C_1  and  C_2
REMARK    2  A    between atoms: C_6  and  N_7
REMARK    3  A    between atoms: N_7  and  C_8
REMARK    4  A    between atoms: C_13  and  C_14
REMARK    5  A    between atoms: N_16  and  C_17
REMARK    6  A    between atoms: C_17  and  C_18
REMARK    7  A    between atoms: C_18  and  C_19
REMARK    8  A    between atoms: C_19  and  C_20
REMARK    9  A    between atoms: C_20  and  C_21
REMARK   10  A    between atoms: C_21  and  C_22
REMARK   11  A    between atoms: N_24  and  C_25
REMARK   12  A    between atoms: C_25  and  C_26
REMARK   13  A    between atoms: C_26  and  C_27
REMARK   14  A    between atoms: C_27  and  C_28
REMARK   15  A    between atoms: C_28  and  N_29
REMARK   16  A    between atoms: N_29  and  C_30
REMARK   17  A    between atoms: C_45  and  C_46
REMARK                            x       y       z     vdW  Elec       q    Type
REMARK                         _______ _______ _______ _____ _____    ______ ____
ROOT
ATOM      1  C   UNL A   1      44.963 -20.014 -34.322  0.00  0.00    +0.024 C 
ENDROOT
BRANCH   1   2
ATOM      2  C   UNL A   1      45.071 -18.652 -33.662  0.00  0.00    +0.213 C 
ATOM      3  O   UNL A   1      46.134 -18.042 -33.606  0.00  0.00    -0.276 OA
ATOM      4  N   UNL A   1      43.882 -18.154 -33.180  0.00  0.00    -0.315 N 
ATOM      5  H   UNL A   1      43.076 -18.718 -33.218  0.00  0.00    +0.000 HD
BRANCH   4   6
ATOM      6  C   UNL A   1      43.785 -16.822 -32.619  0.00  0.00    +0.012 C 
BRANCH   6   7
ATOM      7  C   UNL A   1      42.838 -15.953 -33.440  0.00  0.00    -0.036 C 
BRANCH   7   8
ATOM      8  C   UNL A   1      41.982 -16.795 -34.390  0.00  0.00    -0.036 C 
BRANCH   8   9
ATOM      9  C   UNL A   1      40.488 -16.661 -34.090  0.00  0.00    +0.009 C 
BRANCH   9  10
ATOM     10  N   UNL A   1      40.222 -17.101 -32.712  0.00  0.00    -0.343 N 
ATOM     11  H   UNL A   1      40.691 -16.748 -31.921  0.00  0.00    +0.000 HD
BRANCH  10  12
ATOM     12  C   UNL A   1      39.205 -18.100 -32.655  0.00  0.00    +0.041 A 
ATOM     13  C   UNL A   1      37.841 -17.742 -32.671  0.00  0.00    -0.005 A 
ATOM     14  C   UNL A   1      36.902 -18.778 -32.659  0.00  0.00    +0.047 A 
ATOM     15  N   UNL A   1      37.240 -20.089 -32.683  0.00  0.00    -0.251 NA
ATOM     16  C   UNL A   1      38.535 -20.428 -32.683  0.00  0.00    +0.074 A 
ATOM     17  C   UNL A   1      38.854 -21.779 -32.693  0.00  0.00    -0.017 A 
ATOM     18  C   UNL A   1      40.178 -22.209 -32.678  0.00  0.00    +0.043 A 
ATOM     19 CL   UNL A   1      40.532 -23.894 -32.687  0.00  0.00    -0.083 Cl
ATOM     20  C   UNL A   1      41.214 -21.288 -32.649  0.00  0.00    -0.043 A 
ATOM     21  C   UNL A   1      40.911 -19.928 -32.641  0.00  0.00    -0.049 A 
ATOM     22  C   UNL A   1      39.571 -19.474 -32.669  0.00  0.00    +0.022 A 
ATOM     23  C   UNL A   1      35.419 -18.508 -32.682  0.00  0.00    -0.010 C 
ATOM     24  C   UNL A   1      35.054 -17.101 -32.223  0.00  0.00    -0.047 C 
ATOM     25  C   UNL A   1      35.918 -16.085 -32.951  0.00  0.00    -0.049 C 
ATOM     26  C   UNL A   1      37.393 -16.300 -32.615  0.00  0.00    -0.024 C 
ENDBRANCH  10  12
ENDBRANCH   9  10
ENDBRANCH   8   9
ENDBRANCH   7   8
ENDBRANCH   6   7
ENDBRANCH   4   6
ENDBRANCH   1   2
BRANCH   1  27
ATOM     27  C   UNL A   1      45.151 -19.951 -35.837  0.00  0.00    -0.045 C 
BRANCH  27  28
ATOM     28  C   UNL A   1      44.279 -18.880 -36.499  0.00  0.00    -0.051 C 
BRANCH  28  29
ATOM     29  C   UNL A   1      45.096 -17.737 -37.111  0.00  0.00    -0.037 C 
BRANCH  29  30
ATOM     30  C   UNL A   1      44.220 -16.603 -37.649  0.00  0.00    +0.012 C 
BRANCH  30  33
ATOM     31  C   UNL A   1      43.519 -17.131 -40.030  0.00  0.00    +0.246 C 
ATOM     32  O   UNL A   1      43.442 -16.702 -41.178  0.00  0.00    -0.270 OA
ATOM     33  N   UNL A   1      44.281 -16.474 -39.097  0.00  0.00    -0.311 N 
ATOM     34  H   UNL A   1      44.948 -15.842 -39.448  0.00  0.00    +0.000 HD
BRANCH  31  40
ATOM     35  C   UNL A   1      43.144 -19.624 -40.142  0.00  0.00    +0.044 A 
ATOM     36  C   UNL A   1      42.392 -20.724 -39.697  0.00  0.00    -0.040 A 
ATOM     37  C   UNL A   1      41.279 -20.557 -38.866  0.00  0.00    -0.060 A 
ATOM     38  C   UNL A   1      40.903 -19.284 -38.447  0.00  0.00    -0.061 A 
ATOM     39  C   UNL A   1      41.653 -18.180 -38.840  0.00  0.00    -0.048 A 
ATOM     40  C   UNL A   1      42.784 -18.353 -39.652  0.00  0.00    +0.058 A 
BRANCH  35  41
ATOM     41  N   UNL A   1      44.288 -19.820 -40.959  0.00  0.00    -0.314 N 
ATOM     42  H   UNL A   1      44.269 -19.395 -41.847  0.00  0.00    +0.000 HD
BRANCH  41  48
ATOM     43  C   UNL A   1      47.451 -23.562 -41.970  0.00  0.00    -0.039 C 
ATOM     44  C   UNL A   1      46.962 -22.432 -41.104  0.00  0.00    -0.046 A 
ATOM     45  C   UNL A   1      47.614 -22.189 -39.885  0.00  0.00    -0.058 A 
ATOM     46  C   UNL A   1      47.186 -21.170 -39.041  0.00  0.00    -0.060 A 
ATOM     47  C   UNL A   1      46.104 -20.374 -39.408  0.00  0.00    -0.040 A 
ATOM     48  C   UNL A   1      45.458 -20.561 -40.638  0.00  0.00    +0.035 A 
ATOM     49  C   UNL A   1      45.883 -21.604 -41.495  0.00  0.00    -0.026 A 
ATOM     50  C   UNL A   1      45.156 -21.852 -42.794  0.00  0.00    -0.038 C 
ENDBRANCH  41  48
ENDBRANCH  35  41
ENDBRANCH  31  40
ENDBRANCH  30  33
ENDBRANCH  29  30
ENDBRANCH  28  29
ENDBRANCH  27  28
ENDBRANCH   1  27
TORSDOF 15
ENDMDL
MODEL 16
REMARK VINA RESULT:    -5.735      3.127      7.624
REMARK INTER + INTRA:         -16.957
REMARK INTER:                 -12.444
REMARK INTRA:                  -4.512
REMARK UNBOUND:                -6.192
REMARK  Name = cpd12.pdb
REMARK  17 active torsions:
REMARK  status: ('A' for Active; 'I' for Inactive)
REMARK    1  A    between atoms: C_1  and  C_2
REMARK    2  A    between atoms: C_6  and  N_7
REMARK    3  A    between atoms: N_7  and  C_8
REMARK    4  A    between atoms: C_13  and  C_14
REMARK    5  A    between atoms: N_16  and  C_17
REMARK    6  A    between atoms: C_17  and  C_18
REMARK    7  A    between atoms: C_18  and  C_19
REMARK    8  A    between atoms: C_19  and  C_20
REMARK    9  A    between atoms: C_20  and  C_21
REMARK   10  A    between atoms: C_21  and  C_22
REMARK   11  A    between atoms: N_24  and  C_25
REMARK   12  A    between atoms: C_25  and  C_26
REMARK   13  A    between atoms: C_26  and  C_27
REMARK   14  A    between atoms: C_27  and  C_28
REMARK   15  A    between atoms: C_28  and  N_29
REMARK   16  A    between atoms: N_29  and  C_30
REMARK   17  A    between atoms: C_45  and  C_46
REMARK                            x       y       z     vdW  Elec       q    Type
REMARK                         _______ _______ _______ _____ _____    ______ ____
ROOT
ATOM      1  C   UNL A   1      42.412 -16.300 -37.238  0.00  0.00    +0.024 C 
ENDROOT
BRANCH   1   2
ATOM      2  C   UNL A   1      41.615 -16.483 -38.516  0.00  0.00    +0.213 C 
ATOM      3  O   UNL A   1      42.161 -16.648 -39.603  0.00  0.00    -0.276 OA
ATOM      4  N   UNL A   1      40.250 -16.489 -38.343  0.00  0.00    -0.315 N 
ATOM      5  H   UNL A   1      39.880 -16.304 -37.450  0.00  0.00    +0.000 HD
BRANCH   4   6
ATOM      6  C   UNL A   1      39.343 -16.760 -39.440  0.00  0.00    +0.012 C 
BRANCH   6   7
ATOM      7  C   UNL A   1      38.690 -18.129 -39.281  0.00  0.00    -0.036 C 
BRANCH   7   8
ATOM      8  C   UNL A   1      38.018 -18.276 -37.914  0.00  0.00    -0.036 C 
BRANCH   8   9
ATOM      9  C   UNL A   1      38.617 -19.424 -37.099  0.00  0.00    +0.009 C 
BRANCH   9  10
ATOM     10  N   UNL A   1      38.093 -19.377 -35.725  0.00  0.00    -0.343 N 
ATOM     11  H   UNL A   1      37.139 -19.269 -35.504  0.00  0.00    +0.000 HD
BRANCH  10  12
ATOM     12  C   UNL A   1      39.128 -19.507 -34.752  0.00  0.00    +0.041 A 
ATOM     13  C   UNL A   1      39.521 -20.778 -34.283  0.00  0.00    -0.005 A 
ATOM     14  C   UNL A   1      40.574 -20.829 -33.364  0.00  0.00    +0.047 A 
ATOM     15  N   UNL A   1      41.253 -19.733 -32.949  0.00  0.00    -0.251 NA
ATOM     16  C   UNL A   1      40.888 -18.529 -33.406  0.00  0.00    +0.074 A 
ATOM     17  C   UNL A   1      41.592 -17.421 -32.953  0.00  0.00    -0.017 A 
ATOM     18  C   UNL A   1      41.261 -16.134 -33.372  0.00  0.00    +0.043 A 
ATOM     19 CL   UNL A   1      42.155 -14.786 -32.783  0.00  0.00    -0.083 Cl
ATOM     20  C   UNL A   1      40.211 -15.933 -34.254  0.00  0.00    -0.043 A 
ATOM     21  C   UNL A   1      39.495 -17.034 -34.719  0.00  0.00    -0.049 A 
ATOM     22  C   UNL A   1      39.827 -18.349 -34.314  0.00  0.00    +0.022 A 
ATOM     23  C   UNL A   1      41.079 -22.134 -32.804  0.00  0.00    -0.010 C 
ATOM     24  C   UNL A   1      40.072 -23.272 -32.920  0.00  0.00    -0.047 C 
ATOM     25  C   UNL A   1      39.528 -23.331 -34.338  0.00  0.00    -0.049 C 
ATOM     26  C   UNL A   1      38.790 -22.039 -34.681  0.00  0.00    -0.024 C 
ENDBRANCH  10  12
ENDBRANCH   9  10
ENDBRANCH   8   9
ENDBRANCH   7   8
ENDBRANCH   6   7
ENDBRANCH   4   6
ENDBRANCH   1   2
BRANCH   1  27
ATOM     27  C   UNL A   1      43.473 -17.383 -37.046  0.00  0.00    -0.045 C 
BRANCH  27  28
ATOM     28  C   UNL A   1      42.892 -18.799 -37.103  0.00  0.00    -0.051 C 
BRANCH  28  29
ATOM     29  C   UNL A   1      43.259 -19.646 -35.881  0.00  0.00    -0.037 C 
BRANCH  29  30
ATOM     30  C   UNL A   1      44.267 -18.953 -34.960  0.00  0.00    +0.012 C 
BRANCH  30  33
ATOM     31  C   UNL A   1      46.726 -19.500 -35.269  0.00  0.00    +0.246 C 
ATOM     32  O   UNL A   1      47.713 -20.028 -34.766  0.00  0.00    -0.270 OA
ATOM     33  N   UNL A   1      45.477 -19.733 -34.750  0.00  0.00    -0.311 N 
ATOM     34  H   UNL A   1      45.389 -20.521 -34.166  0.00  0.00    +0.000 HD
BRANCH  31  40
ATOM     35  C   UNL A   1      46.968 -19.103 -37.750  0.00  0.00    +0.044 A 
ATOM     36  C   UNL A   1      47.091 -18.163 -38.787  0.00  0.00    -0.040 A 
ATOM     37  C   UNL A   1      47.206 -16.795 -38.519  0.00  0.00    -0.060 A 
ATOM     38  C   UNL A   1      47.185 -16.334 -37.206  0.00  0.00    -0.061 A 
ATOM     39  C   UNL A   1      47.024 -17.239 -36.160  0.00  0.00    -0.048 A 
ATOM     40  C   UNL A   1      46.882 -18.607 -36.433  0.00  0.00    +0.058 A 
BRANCH  35  41
ATOM     41  N   UNL A   1      46.821 -20.483 -38.046  0.00  0.00    -0.314 N 
ATOM     42  H   UNL A   1      47.247 -21.113 -37.421  0.00  0.00    +0.000 HD
BRANCH  41  48
ATOM     43  C   UNL A   1      46.870 -23.161 -42.272  0.00  0.00    -0.039 C 
ATOM     44  C   UNL A   1      46.172 -22.313 -41.244  0.00  0.00    -0.046 A 
ATOM     45  C   UNL A   1      44.822 -21.985 -41.449  0.00  0.00    -0.058 A 
ATOM     46  C   UNL A   1      44.138 -21.187 -40.538  0.00  0.00    -0.060 A 
ATOM     47  C   UNL A   1      44.792 -20.712 -39.404  0.00  0.00    -0.040 A 
ATOM     48  C   UNL A   1      46.126 -21.058 -39.145  0.00  0.00    +0.035 A 
ATOM     49  C   UNL A   1      46.830 -21.860 -40.075  0.00  0.00    -0.026 A 
ATOM     50  C   UNL A   1      48.283 -22.188 -39.837  0.00  0.00    -0.038 C 
ENDBRANCH  41  48
ENDBRANCH  35  41
ENDBRANCH  31  40
ENDBRANCH  30  33
ENDBRANCH  29  30
ENDBRANCH  28  29
ENDBRANCH  27  28
ENDBRANCH   1  27
TORSDOF 15
ENDMDL
MODEL 17
REMARK VINA RESULT:    -5.724      2.747      5.527
REMARK INTER + INTRA:         -16.935
REMARK INTER:                 -10.599
REMARK INTRA:                  -6.336
REMARK UNBOUND:                -6.192
REMARK  Name = cpd12.pdb
REMARK  17 active torsions:
REMARK  status: ('A' for Active; 'I' for Inactive)
REMARK    1  A    between atoms: C_1  and  C_2
REMARK    2  A    between atoms: C_6  and  N_7
REMARK    3  A    between atoms: N_7  and  C_8
REMARK    4  A    between atoms: C_13  and  C_14
REMARK    5  A    between atoms: N_16  and  C_17
REMARK    6  A    between atoms: C_17  and  C_18
REMARK    7  A    between atoms: C_18  and  C_19
REMARK    8  A    between atoms: C_19  and  C_20
REMARK    9  A    between atoms: C_20  and  C_21
REMARK   10  A    between atoms: C_21  and  C_22
REMARK   11  A    between atoms: N_24  and  C_25
REMARK   12  A    between atoms: C_25  and  C_26
REMARK   13  A    between atoms: C_26  and  C_27
REMARK   14  A    between atoms: C_27  and  C_28
REMARK   15  A    between atoms: C_28  and  N_29
REMARK   16  A    between atoms: N_29  and  C_30
REMARK   17  A    between atoms: C_45  and  C_46
REMARK                            x       y       z     vdW  Elec       q    Type
REMARK                         _______ _______ _______ _____ _____    ______ ____
ROOT
ATOM      1  C   UNL A   1      40.498 -16.694 -34.787  0.00  0.00    +0.024 C 
ENDROOT
BRANCH   1   2
ATOM      2  C   UNL A   1      40.007 -16.134 -36.109  0.00  0.00    +0.213 C 
ATOM      3  O   UNL A   1      38.814 -16.092 -36.392  0.00  0.00    -0.276 OA
ATOM      4  N   UNL A   1      41.000 -15.645 -36.927  0.00  0.00    -0.315 N 
ATOM      5  H   UNL A   1      41.940 -15.753 -36.656  0.00  0.00    +0.000 HD
BRANCH   4   6
ATOM      6  C   UNL A   1      40.698 -14.977 -38.176  0.00  0.00    +0.012 C 
BRANCH   6   7
ATOM      7  C   UNL A   1      41.975 -14.517 -38.871  0.00  0.00    -0.036 C 
BRANCH   7   8
ATOM      8  C   UNL A   1      42.030 -14.999 -40.323  0.00  0.00    -0.036 C 
BRANCH   8   9
ATOM      9  C   UNL A   1      42.491 -16.454 -40.430  0.00  0.00    +0.009 C 
BRANCH   9  10
ATOM     10  N   UNL A   1      43.957 -16.514 -40.319  0.00  0.00    -0.343 N 
ATOM     11  H   UNL A   1      44.561 -15.797 -40.620  0.00  0.00    +0.000 HD
BRANCH  10  12
ATOM     12  C   UNL A   1      44.399 -17.733 -39.723  0.00  0.00    +0.041 A 
ATOM     13  C   UNL A   1      44.677 -18.865 -40.518  0.00  0.00    -0.005 A 
ATOM     14  C   UNL A   1      45.150 -20.008 -39.867  0.00  0.00    +0.047 A 
ATOM     15  N   UNL A   1      45.396 -20.060 -38.537  0.00  0.00    -0.251 NA
ATOM     16  C   UNL A   1      45.146 -18.981 -37.785  0.00  0.00    +0.074 A 
ATOM     17  C   UNL A   1      45.394 -19.065 -36.422  0.00  0.00    -0.017 A 
ATOM     18  C   UNL A   1      45.144 -17.989 -35.574  0.00  0.00    +0.043 A 
ATOM     19 CL   UNL A   1      45.460 -18.136 -33.889  0.00  0.00    -0.083 Cl
ATOM     20  C   UNL A   1      44.635 -16.802 -36.079  0.00  0.00    -0.043 A 
ATOM     21  C   UNL A   1      44.383 -16.700 -37.446  0.00  0.00    -0.049 A 
ATOM     22  C   UNL A   1      44.643 -17.780 -38.323  0.00  0.00    +0.022 A 
ATOM     23  C   UNL A   1      45.485 -21.271 -40.621  0.00  0.00    -0.010 C 
ATOM     24  C   UNL A   1      44.815 -21.355 -41.987  0.00  0.00    -0.047 C 
ATOM     25  C   UNL A   1      45.038 -20.057 -42.746  0.00  0.00    -0.049 C 
ATOM     26  C   UNL A   1      44.398 -18.886 -42.002  0.00  0.00    -0.024 C 
ENDBRANCH  10  12
ENDBRANCH   9  10
ENDBRANCH   8   9
ENDBRANCH   7   8
ENDBRANCH   6   7
ENDBRANCH   4   6
ENDBRANCH   1   2
BRANCH   1  27
ATOM     27  C   UNL A   1      41.181 -18.052 -34.941  0.00  0.00    -0.045 C 
BRANCH  27  28
ATOM     28  C   UNL A   1      41.847 -18.530 -33.646  0.00  0.00    -0.051 C 
BRANCH  28  29
ATOM     29  C   UNL A   1      42.481 -19.918 -33.776  0.00  0.00    -0.037 C 
BRANCH  29  30
ATOM     30  C   UNL A   1      41.907 -20.726 -34.943  0.00  0.00    +0.012 C 
BRANCH  30  33
ATOM     31  C   UNL A   1      39.947 -22.204 -34.298  0.00  0.00    +0.246 C 
ATOM     32  O   UNL A   1      39.518 -23.353 -34.267  0.00  0.00    -0.270 OA
ATOM     33  N   UNL A   1      41.281 -21.970 -34.522  0.00  0.00    -0.311 N 
ATOM     34  H   UNL A   1      41.885 -22.733 -34.381  0.00  0.00    +0.000 HD
BRANCH  31  40
ATOM     35  C   UNL A   1      38.324 -20.481 -35.175  0.00  0.00    +0.044 A 
ATOM     36  C   UNL A   1      37.452 -19.421 -34.872  0.00  0.00    -0.040 A 
ATOM     37  C   UNL A   1      37.344 -18.916 -33.572  0.00  0.00    -0.060 A 
ATOM     38  C   UNL A   1      38.096 -19.471 -32.540  0.00  0.00    -0.061 A 
ATOM     39  C   UNL A   1      38.939 -20.547 -32.803  0.00  0.00    -0.048 A 
ATOM     40  C   UNL A   1      39.025 -21.069 -34.102  0.00  0.00    +0.058 A 
BRANCH  35  41
ATOM     41  N   UNL A   1      38.394 -20.998 -36.494  0.00  0.00    -0.314 N 
ATOM     42  H   UNL A   1      37.786 -21.743 -36.704  0.00  0.00    +0.000 HD
BRANCH  41  48
ATOM     43  C   UNL A   1      41.996 -21.960 -39.830  0.00  0.00    -0.039 C 
ATOM     44  C   UNL A   1      41.049 -21.024 -39.129  0.00  0.00    -0.046 A 
ATOM     45  C   UNL A   1      41.100 -19.657 -39.445  0.00  0.00    -0.058 A 
ATOM     46  C   UNL A   1      40.260 -18.749 -38.809  0.00  0.00    -0.060 A 
ATOM     47  C   UNL A   1      39.351 -19.196 -37.854  0.00  0.00    -0.040 A 
ATOM     48  C   UNL A   1      39.243 -20.560 -37.546  0.00  0.00    +0.035 A 
ATOM     49  C   UNL A   1      40.104 -21.486 -38.182  0.00  0.00    -0.026 A 
ATOM     50  C   UNL A   1      40.038 -22.948 -37.815  0.00  0.00    -0.038 C 
ENDBRANCH  41  48
ENDBRANCH  35  41
ENDBRANCH  31  40
ENDBRANCH  30  33
ENDBRANCH  29  30
ENDBRANCH  28  29
ENDBRANCH  27  28
ENDBRANCH   1  27
TORSDOF 15
ENDMDL
MODEL 18
REMARK VINA RESULT:    -5.681      3.179      6.200
REMARK INTER + INTRA:         -16.855
REMARK INTER:                 -10.827
REMARK INTRA:                  -6.028
REMARK UNBOUND:                -6.192
REMARK  Name = cpd12.pdb
REMARK  17 active torsions:
REMARK  status: ('A' for Active; 'I' for Inactive)
REMARK    1  A    between atoms: C_1  and  C_2
REMARK    2  A    between atoms: C_6  and  N_7
REMARK    3  A    between atoms: N_7  and  C_8
REMARK    4  A    between atoms: C_13  and  C_14
REMARK    5  A    between atoms: N_16  and  C_17
REMARK    6  A    between atoms: C_17  and  C_18
REMARK    7  A    between atoms: C_18  and  C_19
REMARK    8  A    between atoms: C_19  and  C_20
REMARK    9  A    between atoms: C_20  and  C_21
REMARK   10  A    between atoms: C_21  and  C_22
REMARK   11  A    between atoms: N_24  and  C_25
REMARK   12  A    between atoms: C_25  and  C_26
REMARK   13  A    between atoms: C_26  and  C_27
REMARK   14  A    between atoms: C_27  and  C_28
REMARK   15  A    between atoms: C_28  and  N_29
REMARK   16  A    between atoms: N_29  and  C_30
REMARK   17  A    between atoms: C_45  and  C_46
REMARK                            x       y       z     vdW  Elec       q    Type
REMARK                         _______ _______ _______ _____ _____    ______ ____
ROOT
ATOM      1  C   UNL A   1      38.819 -14.178 -34.608  0.00  0.00    +0.024 C 
ENDROOT
BRANCH   1   2
ATOM      2  C   UNL A   1      39.589 -15.195 -33.788  0.00  0.00    +0.213 C 
ATOM      3  O   UNL A   1      39.107 -16.283 -33.485  0.00  0.00    -0.276 OA
ATOM      4  N   UNL A   1      40.870 -14.813 -33.459  0.00  0.00    -0.315 N 
ATOM      5  H   UNL A   1      41.175 -13.908 -33.695  0.00  0.00    +0.000 HD
BRANCH   4   6
ATOM      6  C   UNL A   1      41.780 -15.708 -32.774  0.00  0.00    +0.012 C 
BRANCH   6   7
ATOM      7  C   UNL A   1      43.194 -15.137 -32.754  0.00  0.00    -0.036 C 
BRANCH   7   8
ATOM      8  C   UNL A   1      44.159 -16.049 -31.993  0.00  0.00    -0.036 C 
BRANCH   8   9
ATOM      9  C   UNL A   1      45.163 -16.731 -32.925  0.00  0.00    +0.009 C 
BRANCH   9  10
ATOM     10  N   UNL A   1      45.135 -18.184 -32.699  0.00  0.00    -0.343 N 
ATOM     11  H   UNL A   1      45.380 -18.613 -31.847  0.00  0.00    +0.000 HD
BRANCH  10  12
ATOM     12  C   UNL A   1      44.711 -18.899 -33.858  0.00  0.00    +0.041 A 
ATOM     13  C   UNL A   1      45.593 -19.106 -34.940  0.00  0.00    -0.005 A 
ATOM     14  C   UNL A   1      45.121 -19.855 -36.022  0.00  0.00    +0.047 A 
ATOM     15  N   UNL A   1      43.892 -20.423 -36.054  0.00  0.00    -0.251 NA
ATOM     16  C   UNL A   1      43.061 -20.239 -35.021  0.00  0.00    +0.074 A 
ATOM     17  C   UNL A   1      41.803 -20.820 -35.086  0.00  0.00    -0.017 A 
ATOM     18  C   UNL A   1      40.878 -20.659 -34.057  0.00  0.00    +0.043 A 
ATOM     19 CL   UNL A   1      39.325 -21.392 -34.178  0.00  0.00    -0.083 Cl
ATOM     20  C   UNL A   1      41.199 -19.906 -32.938  0.00  0.00    -0.043 A 
ATOM     21  C   UNL A   1      42.459 -19.318 -32.856  0.00  0.00    -0.049 A 
ATOM     22  C   UNL A   1      43.414 -19.482 -33.887  0.00  0.00    +0.022 A 
ATOM     23  C   UNL A   1      45.981 -20.143 -37.226  0.00  0.00    -0.010 C 
ATOM     24  C   UNL A   1      47.148 -19.175 -37.381  0.00  0.00    -0.047 C 
ATOM     25  C   UNL A   1      47.887 -19.050 -36.059  0.00  0.00    -0.049 C 
ATOM     26  C   UNL A   1      46.966 -18.478 -34.983  0.00  0.00    -0.024 C 
ENDBRANCH  10  12
ENDBRANCH   9  10
ENDBRANCH   8   9
ENDBRANCH   7   8
ENDBRANCH   6   7
ENDBRANCH   4   6
ENDBRANCH   1   2
BRANCH   1  27
ATOM     27  C   UNL A   1      38.192 -14.784 -35.863  0.00  0.00    -0.045 C 
BRANCH  27  28
ATOM     28  C   UNL A   1      39.228 -15.109 -36.944  0.00  0.00    -0.051 C 
BRANCH  28  29
ATOM     29  C   UNL A   1      38.692 -16.059 -38.020  0.00  0.00    -0.037 C 
BRANCH  29  30
ATOM     30  C   UNL A   1      39.738 -16.403 -39.083  0.00  0.00    +0.012 C 
BRANCH  30  33
ATOM     31  C   UNL A   1      41.073 -18.477 -38.487  0.00  0.00    +0.246 C 
ATOM     32  O   UNL A   1      41.036 -19.697 -38.352  0.00  0.00    -0.270 OA
ATOM     33  N   UNL A   1      40.054 -17.822 -39.133  0.00  0.00    -0.311 N 
ATOM     34  H   UNL A   1      39.469 -18.377 -39.697  0.00  0.00    +0.000 HD
BRANCH  31  40
ATOM     35  C   UNL A   1      43.426 -17.579 -38.654  0.00  0.00    +0.044 A 
ATOM     36  C   UNL A   1      44.438 -16.808 -38.058  0.00  0.00    -0.040 A 
ATOM     37  C   UNL A   1      44.280 -16.262 -36.780  0.00  0.00    -0.060 A 
ATOM     38  C   UNL A   1      43.098 -16.462 -36.074  0.00  0.00    -0.061 A 
ATOM     39  C   UNL A   1      42.063 -17.189 -36.655  0.00  0.00    -0.048 A 
ATOM     40  C   UNL A   1      42.213 -17.712 -37.947  0.00  0.00    +0.058 A 
BRANCH  35  41
ATOM     41  N   UNL A   1      43.595 -18.097 -39.965  0.00  0.00    -0.314 N 
ATOM     42  H   UNL A   1      42.816 -18.036 -40.562  0.00  0.00    +0.000 HD
BRANCH  41  48
ATOM     43  C   UNL A   1      46.134 -22.190 -41.317  0.00  0.00    -0.039 C 
ATOM     44  C   UNL A   1      46.022 -20.704 -41.107  0.00  0.00    -0.046 A 
ATOM     45  C   UNL A   1      47.152 -19.905 -41.344  0.00  0.00    -0.058 A 
ATOM     46  C   UNL A   1      47.105 -18.529 -41.145  0.00  0.00    -0.060 A 
ATOM     47  C   UNL A   1      45.924 -17.932 -40.713  0.00  0.00    -0.040 A 
ATOM     48  C   UNL A   1      44.764 -18.693 -40.510  0.00  0.00    +0.035 A 
ATOM     49  C   UNL A   1      44.811 -20.095 -40.700  0.00  0.00    -0.026 A 
ATOM     50  C   UNL A   1      43.586 -20.932 -40.425  0.00  0.00    -0.038 C 
ENDBRANCH  41  48
ENDBRANCH  35  41
ENDBRANCH  31  40
ENDBRANCH  30  33
ENDBRANCH  29  30
ENDBRANCH  28  29
ENDBRANCH  27  28
ENDBRANCH   1  27
TORSDOF 15
ENDMDL
MODEL 19
REMARK VINA RESULT:    -5.668      2.687      6.044
REMARK INTER + INTRA:         -16.831
REMARK INTER:                 -11.613
REMARK INTRA:                  -5.218
REMARK UNBOUND:                -6.192
REMARK  Name = cpd12.pdb
REMARK  17 active torsions:
REMARK  status: ('A' for Active; 'I' for Inactive)
REMARK    1  A    between atoms: C_1  and  C_2
REMARK    2  A    between atoms: C_6  and  N_7
REMARK    3  A    between atoms: N_7  and  C_8
REMARK    4  A    between atoms: C_13  and  C_14
REMARK    5  A    between atoms: N_16  and  C_17
REMARK    6  A    between atoms: C_17  and  C_18
REMARK    7  A    between atoms: C_18  and  C_19
REMARK    8  A    between atoms: C_19  and  C_20
REMARK    9  A    between atoms: C_20  and  C_21
REMARK   10  A    between atoms: C_21  and  C_22
REMARK   11  A    between atoms: N_24  and  C_25
REMARK   12  A    between atoms: C_25  and  C_26
REMARK   13  A    between atoms: C_26  and  C_27
REMARK   14  A    between atoms: C_27  and  C_28
REMARK   15  A    between atoms: C_28  and  N_29
REMARK   16  A    between atoms: N_29  and  C_30
REMARK   17  A    between atoms: C_45  and  C_46
REMARK                            x       y       z     vdW  Elec       q    Type
REMARK                         _______ _______ _______ _____ _____    ______ ____
ROOT
ATOM      1  C   UNL A   1      44.196 -14.983 -40.695  0.00  0.00    +0.024 C 
ENDROOT
BRANCH   1   2
ATOM      2  C   UNL A   1      42.679 -14.981 -40.683  0.00  0.00    +0.213 C 
ATOM      3  O   UNL A   1      42.025 -14.476 -41.590  0.00  0.00    -0.276 OA
ATOM      4  N   UNL A   1      42.114 -15.624 -39.605  0.00  0.00    -0.315 N 
ATOM      5  H   UNL A   1      42.700 -15.966 -38.892  0.00  0.00    +0.000 HD
BRANCH   4   6
ATOM      6  C   UNL A   1      40.682 -15.810 -39.494  0.00  0.00    +0.012 C 
BRANCH   6   7
ATOM      7  C   UNL A   1      40.335 -17.289 -39.349  0.00  0.00    -0.036 C 
BRANCH   7   8
ATOM      8  C   UNL A   1      39.128 -17.496 -38.431  0.00  0.00    -0.036 C 
BRANCH   8   9
ATOM      9  C   UNL A   1      39.358 -18.625 -37.424  0.00  0.00    +0.009 C 
BRANCH   9  10
ATOM     10  N   UNL A   1      40.792 -18.717 -37.109  0.00  0.00    -0.343 N 
ATOM     11  H   UNL A   1      41.503 -18.760 -37.789  0.00  0.00    +0.000 HD
BRANCH  10  12
ATOM     12  C   UNL A   1      41.031 -18.739 -35.702  0.00  0.00    +0.041 A 
ATOM     13  C   UNL A   1      41.288 -17.545 -34.996  0.00  0.00    -0.005 A 
ATOM     14  C   UNL A   1      41.467 -17.640 -33.613  0.00  0.00    +0.047 A 
ATOM     15  N   UNL A   1      41.356 -18.802 -32.926  0.00  0.00    -0.251 NA
ATOM     16  C   UNL A   1      41.097 -19.932 -33.595  0.00  0.00    +0.074 A 
ATOM     17  C   UNL A   1      41.003 -21.111 -32.869  0.00  0.00    -0.017 A 
ATOM     18  C   UNL A   1      40.752 -22.329 -33.496  0.00  0.00    +0.043 A 
ATOM     19 CL   UNL A   1      40.647 -23.770 -32.560  0.00  0.00    -0.083 Cl
ATOM     20  C   UNL A   1      40.592 -22.388 -34.872  0.00  0.00    -0.043 A 
ATOM     21  C   UNL A   1      40.681 -21.213 -35.616  0.00  0.00    -0.049 A 
ATOM     22  C   UNL A   1      40.924 -19.967 -34.992  0.00  0.00    +0.022 A 
ATOM     23  C   UNL A   1      41.740 -16.427 -32.760  0.00  0.00    -0.010 C 
ATOM     24  C   UNL A   1      42.284 -15.243 -33.551  0.00  0.00    -0.047 C 
ATOM     25  C   UNL A   1      41.416 -15.005 -34.776  0.00  0.00    -0.049 C 
ATOM     26  C   UNL A   1      41.453 -16.220 -35.702  0.00  0.00    -0.024 C 
ENDBRANCH  10  12
ENDBRANCH   9  10
ENDBRANCH   8   9
ENDBRANCH   7   8
ENDBRANCH   6   7
ENDBRANCH   4   6
ENDBRANCH   1   2
BRANCH   1  27
ATOM     27  C   UNL A   1      44.790 -16.129 -39.879  0.00  0.00    -0.045 C 
BRANCH  27  28
ATOM     28  C   UNL A   1      45.117 -17.358 -40.734  0.00  0.00    -0.051 C 
BRANCH  28  29
ATOM     29  C   UNL A   1      46.609 -17.705 -40.737  0.00  0.00    -0.037 C 
BRANCH  29  30
ATOM     30  C   UNL A   1      46.921 -18.974 -41.534  0.00  0.00    +0.012 C 
BRANCH  30  33
ATOM     31  C   UNL A   1      46.921 -21.029 -40.045  0.00  0.00    +0.246 C 
ATOM     32  O   UNL A   1      47.559 -22.012 -39.681  0.00  0.00    -0.270 OA
ATOM     33  N   UNL A   1      47.542 -20.014 -40.728  0.00  0.00    -0.311 N 
ATOM     34  H   UNL A   1      48.524 -19.986 -40.666  0.00  0.00    +0.000 HD
BRANCH  31  40
ATOM     35  C   UNL A   1      44.990 -20.754 -38.442  0.00  0.00    +0.044 A 
ATOM     36  C   UNL A   1      43.598 -20.659 -38.279  0.00  0.00    -0.040 A 
ATOM     37  C   UNL A   1      42.725 -20.826 -39.359  0.00  0.00    -0.060 A 
ATOM     38  C   UNL A   1      43.227 -21.076 -40.633  0.00  0.00    -0.061 A 
ATOM     39  C   UNL A   1      44.604 -21.136 -40.832  0.00  0.00    -0.048 A 
ATOM     40  C   UNL A   1      45.477 -20.941 -39.751  0.00  0.00    +0.058 A 
BRANCH  35  41
ATOM     41  N   UNL A   1      45.858 -20.549 -37.337  0.00  0.00    -0.314 N 
ATOM     42  H   UNL A   1      46.288 -21.352 -36.965  0.00  0.00    +0.000 HD
BRANCH  41  48
ATOM     43  C   UNL A   1      45.227 -17.327 -33.563  0.00  0.00    -0.039 C 
ATOM     44  C   UNL A   1      45.812 -17.718 -34.894  0.00  0.00    -0.046 A 
ATOM     45  C   UNL A   1      46.594 -16.779 -35.585  0.00  0.00    -0.058 A 
ATOM     46  C   UNL A   1      47.140 -17.086 -36.827  0.00  0.00    -0.060 A 
ATOM     47  C   UNL A   1      46.916 -18.338 -37.393  0.00  0.00    -0.040 A 
ATOM     48  C   UNL A   1      46.176 -19.314 -36.710  0.00  0.00    +0.035 A 
ATOM     49  C   UNL A   1      45.610 -19.003 -35.451  0.00  0.00    -0.026 A 
ATOM     50  C   UNL A   1      44.761 -20.025 -34.735  0.00  0.00    -0.038 C 
ENDBRANCH  41  48
ENDBRANCH  35  41
ENDBRANCH  31  40
ENDBRANCH  30  33
ENDBRANCH  29  30
ENDBRANCH  28  29
ENDBRANCH  27  28
ENDBRANCH   1  27
TORSDOF 15
ENDMDL
MODEL 20
REMARK VINA RESULT:    -5.540      2.513      5.090
REMARK INTER + INTRA:         -16.589
REMARK INTER:                 -10.951
REMARK INTRA:                  -5.638
REMARK UNBOUND:                -6.192
REMARK  Name = cpd12.pdb
REMARK  17 active torsions:
REMARK  status: ('A' for Active; 'I' for Inactive)
REMARK    1  A    between atoms: C_1  and  C_2
REMARK    2  A    between atoms: C_6  and  N_7
REMARK    3  A    between atoms: N_7  and  C_8
REMARK    4  A    between atoms: C_13  and  C_14
REMARK    5  A    between atoms: N_16  and  C_17
REMARK    6  A    between atoms: C_17  and  C_18
REMARK    7  A    between atoms: C_18  and  C_19
REMARK    8  A    between atoms: C_19  and  C_20
REMARK    9  A    between atoms: C_20  and  C_21
REMARK   10  A    between atoms: C_21  and  C_22
REMARK   11  A    between atoms: N_24  and  C_25
REMARK   12  A    between atoms: C_25  and  C_26
REMARK   13  A    between atoms: C_26  and  C_27
REMARK   14  A    between atoms: C_27  and  C_28
REMARK   15  A    between atoms: C_28  and  N_29
REMARK   16  A    between atoms: N_29  and  C_30
REMARK   17  A    between atoms: C_45  and  C_46
REMARK                            x       y       z     vdW  Elec       q    Type
REMARK                         _______ _______ _______ _____ _____    ______ ____
ROOT
ATOM      1  C   UNL A   1      45.812 -14.404 -37.405  0.00  0.00    +0.024 C 
ENDROOT
BRANCH   1   2
ATOM      2  C   UNL A   1      46.017 -14.649 -38.888  0.00  0.00    +0.213 C 
ATOM      3  O   UNL A   1      46.841 -15.458 -39.304  0.00  0.00    -0.276 OA
ATOM      4  N   UNL A   1      45.181 -13.926 -39.709  0.00  0.00    -0.315 N 
ATOM      5  H   UNL A   1      44.576 -13.261 -39.309  0.00  0.00    +0.000 HD
BRANCH   4   6
ATOM      6  C   UNL A   1      45.168 -14.119 -41.144  0.00  0.00    +0.012 C 
BRANCH   6   7
ATOM      7  C   UNL A   1      43.859 -14.758 -41.596  0.00  0.00    -0.036 C 
BRANCH   7   8
ATOM      8  C   UNL A   1      43.948 -16.286 -41.596  0.00  0.00    -0.036 C 
BRANCH   8   9
ATOM      9  C   UNL A   1      43.021 -16.917 -40.555  0.00  0.00    +0.009 C 
BRANCH   9  10
ATOM     10  N   UNL A   1      43.825 -17.601 -39.531  0.00  0.00    -0.343 N 
ATOM     11  H   UNL A   1      44.376 -17.134 -38.862  0.00  0.00    +0.000 HD
BRANCH  10  12
ATOM     12  C   UNL A   1      43.712 -19.020 -39.621  0.00  0.00    +0.041 A 
ATOM     13  C   UNL A   1      42.547 -19.681 -39.176  0.00  0.00    -0.005 A 
ATOM     14  C   UNL A   1      42.491 -21.068 -39.339  0.00  0.00    +0.047 A 
ATOM     15  N   UNL A   1      43.469 -21.787 -39.941  0.00  0.00    -0.251 NA
ATOM     16  C   UNL A   1      44.567 -21.158 -40.376  0.00  0.00    +0.074 A 
ATOM     17  C   UNL A   1      45.560 -21.920 -40.975  0.00  0.00    -0.017 A 
ATOM     18  C   UNL A   1      46.737 -21.339 -41.439  0.00  0.00    +0.043 A 
ATOM     19 CL   UNL A   1      47.946 -22.320 -42.172  0.00  0.00    -0.083 Cl
ATOM     20  C   UNL A   1      46.944 -19.975 -41.306  0.00  0.00    -0.043 A 
ATOM     21  C   UNL A   1      45.957 -19.194 -40.708  0.00  0.00    -0.049 A 
ATOM     22  C   UNL A   1      44.750 -19.768 -40.244  0.00  0.00    +0.022 A 
ATOM     23  C   UNL A   1      41.292 -21.872 -38.906  0.00  0.00    -0.010 C 
ATOM     24  C   UNL A   1      40.428 -21.159 -37.873  0.00  0.00    -0.047 C 
ATOM     25  C   UNL A   1      40.136 -19.743 -38.341  0.00  0.00    -0.049 C 
ATOM     26  C   UNL A   1      41.432 -18.945 -38.471  0.00  0.00    -0.024 C 
ENDBRANCH  10  12
ENDBRANCH   9  10
ENDBRANCH   8   9
ENDBRANCH   7   8
ENDBRANCH   6   7
ENDBRANCH   4   6
ENDBRANCH   1   2
BRANCH   1  27
ATOM     27  C   UNL A   1      45.323 -15.648 -36.665  0.00  0.00    -0.045 C 
BRANCH  27  28
ATOM     28  C   UNL A   1      43.973 -15.434 -35.974  0.00  0.00    -0.051 C 
BRANCH  28  29
ATOM     29  C   UNL A   1      42.948 -16.522 -36.313  0.00  0.00    -0.037 C 
BRANCH  29  30
ATOM     30  C   UNL A   1      41.518 -16.127 -35.939  0.00  0.00    +0.012 C 
BRANCH  30  33
ATOM     31  C   UNL A   1      41.117 -16.747 -33.511  0.00  0.00    +0.246 C 
ATOM     32  O   UNL A   1      41.324 -16.434 -32.342  0.00  0.00    -0.270 OA
ATOM     33  N   UNL A   1      41.356 -15.848 -34.520  0.00  0.00    -0.311 N 
ATOM     34  H   UNL A   1      41.427 -14.904 -34.253  0.00  0.00    +0.000 HD
BRANCH  31  40
ATOM     35  C   UNL A   1      41.464 -19.222 -33.862  0.00  0.00    +0.044 A 
ATOM     36  C   UNL A   1      40.877 -20.465 -34.155  0.00  0.00    -0.040 A 
ATOM     37  C   UNL A   1      39.522 -20.570 -34.486  0.00  0.00    -0.060 A 
ATOM     38  C   UNL A   1      38.718 -19.435 -34.515  0.00  0.00    -0.061 A 
ATOM     39  C   UNL A   1      39.263 -18.196 -34.190  0.00  0.00    -0.048 A 
ATOM     40  C   UNL A   1      40.616 -18.097 -33.833  0.00  0.00    +0.058 A 
BRANCH  35  41
ATOM     41  N   UNL A   1      42.833 -19.143 -33.497  0.00  0.00    -0.314 N 
ATOM     42  H   UNL A   1      43.024 -18.938 -32.554  0.00  0.00    +0.000 HD
BRANCH  41  48
ATOM     43  C   UNL A   1      47.499 -17.910 -34.817  0.00  0.00    -0.039 C 
ATOM     44  C   UNL A   1      46.217 -18.672 -35.021  0.00  0.00    -0.046 A 
ATOM     45  C   UNL A   1      46.098 -19.493 -36.153  0.00  0.00    -0.058 A 
ATOM     46  C   UNL A   1      44.925 -20.201 -36.396  0.00  0.00    -0.060 A 
ATOM     47  C   UNL A   1      43.859 -20.103 -35.507  0.00  0.00    -0.040 A 
ATOM     48  C   UNL A   1      43.960 -19.327 -34.344  0.00  0.00    +0.035 A 
ATOM     49  C   UNL A   1      45.147 -18.596 -34.098  0.00  0.00    -0.026 A 
ATOM     50  C   UNL A   1      45.245 -17.710 -32.880  0.00  0.00    -0.038 C 
ENDBRANCH  41  48
ENDBRANCH  35  41
ENDBRANCH  31  40
ENDBRANCH  30  33
ENDBRANCH  29  30
ENDBRANCH  28  29
ENDBRANCH  27  28
ENDBRANCH   1  27
TORSDOF 15
ENDMDL
