REMARK  Name = cpd12.pdb
REMARK  17 active torsions:
REMARK  status: ('A' for Active; 'I' for Inactive)
REMARK    1  A    between atoms: C_1  and  C_2
REMARK    2  A    between atoms: C_6  and  N_7
REMARK    3  A    between atoms: N_7  and  C_8
REMARK    4  A    between atoms: C_13  and  C_14
REMARK    5  A    between atoms: N_16  and  C_17
REMARK    6  A    between atoms: C_17  and  C_18
REMARK    7  A    between atoms: C_18  and  C_19
REMARK    8  A    between atoms: C_19  and  C_20
REMARK    9  A    between atoms: C_20  and  C_21
REMARK   10  A    between atoms: C_21  and  C_22
REMARK   11  A    between atoms: N_24  and  C_25
REMARK   12  A    between atoms: C_25  and  C_26
REMARK   13  A    between atoms: C_26  and  C_27
REMARK   14  A    between atoms: C_27  and  C_28
REMARK   15  A    between atoms: C_28  and  N_29
REMARK   16  A    between atoms: N_29  and  C_30
REMARK   17  A    between atoms: C_45  and  C_46
REMARK                            x       y       z     vdW  Elec       q    Type
REMARK                         _______ _______ _______ _____ _____    ______ ____
ROOT
ATOM      1  C   UNL A   1      -6.418  -4.281   0.356  0.00  0.00    +0.024 C 
ENDROOT
BRANCH   1   2
ATOM      2  C   UNL A   1      -7.311  -5.394   0.870  0.00  0.00    +0.213 C 
ATOM      3  O   UNL A   1      -7.390  -5.662   2.065  0.00  0.00    -0.276 OA
ATOM      4  N   UNL A   1      -8.044  -6.035  -0.103  0.00  0.00    -0.315 N 
ATOM      5  H   UNL A   1      -7.896  -5.799  -1.047  0.00  0.00    +0.000 HD
BRANCH   4   6
ATOM      6  C   UNL A   1      -9.027  -7.047   0.226  0.00  0.00    +0.012 C 
BRANCH   6   7
ATOM      7  C   UNL A   1     -10.400  -6.421   0.448  0.00  0.00    -0.036 C 
BRANCH   7   8
ATOM      8  C   UNL A   1     -11.436  -7.469   0.861  0.00  0.00    -0.036 C 
BRANCH   8   9
ATOM      9  C   UNL A   1     -12.830  -6.863   1.036  0.00  0.00    +0.009 C 
BRANCH   9  10
ATOM     10  N   UNL A   1     -13.373  -6.492  -0.280  0.00  0.00    -0.343 N 
ATOM     11  H   UNL A   1     -12.937  -6.709  -1.136  0.00  0.00    +0.000 HD
BRANCH  10  12
ATOM     12  C   UNL A   1     -14.605  -5.781  -0.170  0.00  0.00    +0.041 A 
ATOM     13  C   UNL A   1     -15.838  -6.465  -0.206  0.00  0.00    -0.005 A 
ATOM     14  C   UNL A   1     -17.001  -5.706  -0.046  0.00  0.00    +0.047 A 
ATOM     15  N   UNL A   1     -16.993  -4.372   0.188  0.00  0.00    -0.251 NA
ATOM     16  C   UNL A   1     -15.822  -3.726   0.237  0.00  0.00    +0.074 A 
ATOM     17  C   UNL A   1     -15.843  -2.357   0.464  0.00  0.00    -0.017 A 
ATOM     18  C   UNL A   1     -14.666  -1.614   0.513  0.00  0.00    +0.043 A 
ATOM     19 CL   UNL A   1     -14.735   0.083   0.792  0.00  0.00    -0.083 Cl
ATOM     20  C   UNL A   1     -13.439  -2.233   0.331  0.00  0.00    -0.043 A 
ATOM     21  C   UNL A   1     -13.400  -3.607   0.104  0.00  0.00    -0.049 A 
ATOM     22  C   UNL A   1     -14.586  -4.378   0.064  0.00  0.00    +0.022 A 
ATOM     23  C   UNL A   1     -18.371  -6.336  -0.061  0.00  0.00    -0.010 C 
ATOM     24  C   UNL A   1     -18.401  -7.700  -0.740  0.00  0.00    -0.047 C 
ATOM     25  C   UNL A   1     -17.283  -8.570  -0.189  0.00  0.00    -0.049 C 
ATOM     26  C   UNL A   1     -15.922  -7.946  -0.492  0.00  0.00    -0.024 C 
ENDBRANCH  10  12
ENDBRANCH   9  10
ENDBRANCH   8   9
ENDBRANCH   7   8
ENDBRANCH   6   7
ENDBRANCH   4   6
ENDBRANCH   1   2
BRANCH   1  27
ATOM     27  C   UNL A   1      -5.385  -4.774  -0.656  0.00  0.00    -0.045 C 
BRANCH  27  28
ATOM     28  C   UNL A   1      -4.431  -3.667  -1.116  0.00  0.00    -0.051 C 
BRANCH  28  29
ATOM     29  C   UNL A   1      -3.352  -3.338  -0.079  0.00  0.00    -0.037 C 
BRANCH  29  30
ATOM     30  C   UNL A   1      -2.462  -2.166  -0.500  0.00  0.00    +0.012 C 
BRANCH  30  33
ATOM     31  C   UNL A   1      -0.691  -3.199  -1.996  0.00  0.00    +0.246 C 
ATOM     32  O   UNL A   1      -0.418  -3.556  -3.138  0.00  0.00    -0.270 OA
ATOM     33  N   UNL A   1      -1.779  -2.395  -1.764  0.00  0.00    -0.311 N 
ATOM     34  H   UNL A   1      -2.140  -1.917  -2.545  0.00  0.00    +0.000 HD
BRANCH  31  40
ATOM     35  C   UNL A   1       0.915  -2.735  -0.105  0.00  0.00    +0.044 A 
ATOM     36  C   UNL A   1       1.661  -3.260   0.964  0.00  0.00    -0.040 A 
ATOM     37  C   UNL A   1       1.708  -4.636   1.212  0.00  0.00    -0.060 A 
ATOM     38  C   UNL A   1       0.996  -5.518   0.405  0.00  0.00    -0.061 A 
ATOM     39  C   UNL A   1       0.217  -5.023  -0.637  0.00  0.00    -0.048 A 
ATOM     40  C   UNL A   1       0.150  -3.641  -0.867  0.00  0.00    +0.058 A 
BRANCH  35  41
ATOM     41  N   UNL A   1       0.856  -1.333  -0.319  0.00  0.00    -0.314 N 
ATOM     42  H   UNL A   1       0.003  -0.978  -0.657  0.00  0.00    +0.000 HD
BRANCH  41  48
ATOM     43  C   UNL A   1       2.287   3.339   0.755  0.00  0.00    -0.039 C 
ATOM     44  C   UNL A   1       2.580   1.916   0.363  0.00  0.00    -0.046 A 
ATOM     45  C   UNL A   1       3.909   1.555   0.090  0.00  0.00    -0.058 A 
ATOM     46  C   UNL A   1       4.228   0.257  -0.296  0.00  0.00    -0.060 A 
ATOM     47  C   UNL A   1       3.223  -0.700  -0.407  0.00  0.00    -0.040 A 
ATOM     48  C   UNL A   1       1.892  -0.385  -0.099  0.00  0.00    +0.035 A 
ATOM     49  C   UNL A   1       1.561   0.937   0.283  0.00  0.00    -0.026 A 
ATOM     50  C   UNL A   1       0.123   1.302   0.558  0.00  0.00    -0.038 C 
ENDBRANCH  41  48
ENDBRANCH  35  41
ENDBRANCH  31  40
ENDBRANCH  30  33
ENDBRANCH  29  30
ENDBRANCH  28  29
ENDBRANCH  27  28
ENDBRANCH   1  27
TORSDOF 15
