@<TRIPOS>MOLECULE
*****
 29 32 0 0 0
SMALL
GASTEIGER

@<TRIPOS>ATOM
      1 C           3.9781    1.9400    0.0000 C.3     1  UNL1        0.2526
      2 O           2.9781    1.9400    0.0000 O.3     1  UNL1       -0.4684
      3 C           2.4781    1.0739    0.0000 C.ar    1  UNL1        0.1721
      4 C           1.4781    1.0739    0.0000 C.ar    1  UNL1        0.0359
      5 C           0.9781    0.2079    0.0000 C.ar    1  UNL1       -0.0158
      6 C           1.4781   -0.6581    0.0000 C.ar    1  UNL1        0.0340
      7 C           2.4781   -0.6581    0.0000 C.ar    1  UNL1        0.0426
      8 C           2.9781    0.2079    0.0000 C.ar    1  UNL1        0.1725
      9 O           3.9781    0.2079    0.0000 O.3     1  UNL1       -0.4684
     10 C           4.4781   -0.6581    0.0000 C.3     1  UNL1        0.2526
     11 C           0.8090   -1.4013    0.0000 C.2     1  UNL1        0.1727
     12 O           1.0169   -2.3794    0.0000 O.2     1  UNL1       -0.2913
     13 C          -0.1045   -0.9945    0.0000 C.3     1  UNL1        0.0663
     14 C          -0.9706   -1.4945    0.0000 C.3     1  UNL1        0.0080
     15 C          -1.8366   -0.9945    0.0000 C.3     1  UNL1        0.0005
     16 C          -2.7026   -1.4945    0.0000 C.3     1  UNL1        0.0028
     17 C          -2.7026   -2.4945    0.0000 C.3     1  UNL1        0.0174
     18 C          -3.5686   -2.9945    0.0000 C.3     1  UNL1        0.0724
     19 N          -4.4347   -2.4945    0.0000 N.3     1  UNL1       -0.2690
     20 C          -5.3007   -2.9945    0.0000 C.3     1  UNL1        0.0991
     21 C          -6.1667   -2.4945    0.0000 C.ar    1  UNL1       -0.0061
     22 C          -7.0327   -2.9945    0.0000 C.ar    1  UNL1       -0.0029
     23 C          -7.8988   -2.4945    0.0000 C.ar    1  UNL1       -0.0003
     24 C          -7.8988   -1.4945    0.0000 C.ar    1  UNL1       -0.0000
     25 C          -7.0327   -0.9945    0.0000 C.ar    1  UNL1       -0.0003
     26 C          -6.1667   -1.4945    0.0000 C.ar    1  UNL1       -0.0029
     27 C          -4.4347   -1.4945    0.0000 C.3     1  UNL1        0.0724
     28 C          -3.5686   -0.9945    0.0000 C.3     1  UNL1        0.0174
     29 C           0.0000   -0.0000    0.0000 C.3     1  UNL1        0.0342
@<TRIPOS>BOND
     1     1     2    1
     2     2     3    1
     3     3     4   ar
     4     4     5   ar
     5     5     6   ar
     6     6     7   ar
     7     7     8   ar
     8     3     8   ar
     9     8     9    1
    10     9    10    1
    11     6    11    1
    12    11    12    2
    13    11    13    1
    14    13    14    1
    15    14    15    1
    16    15    16    1
    17    16    17    1
    18    17    18    1
    19    18    19    1
    20    19    20    1
    21    20    21    1
    22    21    22   ar
    23    22    23   ar
    24    23    24   ar
    25    24    25   ar
    26    25    26   ar
    27    21    26   ar
    28    19    27    1
    29    27    28    1
    30    16    28    1
    31    13    29    1
    32     5    29    1
