REMARK  Name = cpd6.pdb
REMARK  9 active torsions:
REMARK  status: ('A' for Active; 'I' for Inactive)
REMARK    1  A    between atoms: C_1  and  O_2
REMARK    2  A    between atoms: O_2  and  C_3
REMARK    3  A    between atoms: C_8  and  O_9
REMARK    4  A    between atoms: O_9  and  C_10
REMARK    5  A    between atoms: C_13  and  C_14
REMARK    6  A    between atoms: C_14  and  C_15
REMARK    7  A    between atoms: C_15  and  C_16
REMARK    8  A    between atoms: N_19  and  C_20
REMARK    9  A    between atoms: C_20  and  C_21
REMARK                            x       y       z     vdW  Elec       q    Type
REMARK                         _______ _______ _______ _____ _____    ______ ____
ROOT
ATOM      1  C   UNL     1      -0.531  -1.768  -0.181  0.00  0.00    -0.043 C 
ENDROOT
BRANCH   1  10
ATOM      2  C   UNL     1       4.352   1.758   0.543  0.00  0.00    +0.162 A 
ATOM      3  C   UNL     1       2.948   1.798   0.514  0.00  0.00    -0.012 A 
ATOM      4  C   UNL     1       2.251   0.660   0.155  0.00  0.00    -0.033 A 
ATOM      5  C   UNL     1       2.945  -0.501  -0.148  0.00  0.00    +0.025 A 
ATOM      6  C   UNL     1       4.325  -0.593  -0.093  0.00  0.00    -0.006 A 
ATOM      7  C   UNL     1       5.049   0.551   0.270  0.00  0.00    +0.162 A 
ATOM      8  C   UNL     1       1.975  -1.519  -0.540  0.00  0.00    +0.167 C 
ATOM      9  O   UNL     1       2.265  -2.676  -0.784  0.00  0.00    -0.292 OA
ATOM     10  C   UNL     1       0.608  -0.867  -0.664  0.00  0.00    +0.026 C 
ATOM     11  C   UNL     1       0.770   0.466   0.098  0.00  0.00    -0.017 C 
BRANCH   2  13
ATOM     12  C   UNL     1       6.151   3.286   0.289  0.00  0.00    +0.079 C 
ATOM     13  O   UNL     1       4.914   2.956   0.910  0.00  0.00    -0.491 OA
ENDBRANCH   2  13
BRANCH   7  14
ATOM     14  O   UNL     1       6.414   0.571   0.399  0.00  0.00    -0.491 OA
ATOM     15  C   UNL     1       7.117  -0.652   0.229  0.00  0.00    +0.079 C 
ENDBRANCH   7  14
ENDBRANCH   1  10
BRANCH   1  16
ATOM     16  C   UNL     1      -1.849  -1.008   0.019  0.00  0.00    -0.049 C 
BRANCH  16  17
ATOM     17  C   UNL     1      -3.103  -1.795  -0.393  0.00  0.00    -0.039 C 
ATOM     18  C   UNL     1      -3.290  -3.120   0.350  0.00  0.00    -0.037 C 
ATOM     19  C   UNL     1      -4.579  -3.813  -0.110  0.00  0.00    -0.001 C 
ATOM     20  N   UNL     1      -5.773  -2.968   0.068  0.00  0.00    -0.298 N 
ATOM     21  C   UNL     1      -5.617  -1.673  -0.612  0.00  0.00    -0.001 C 
ATOM     22  C   UNL     1      -4.353  -0.935  -0.171  0.00  0.00    -0.037 C 
ATOM     23  H   UNL     1      -5.894  -2.774   1.062  0.00  0.00    +0.000 HD
BRANCH  20  24
ATOM     24  C   UNL     1      -6.962  -3.688  -0.435  0.00  0.00    +0.024 C 
BRANCH  24  25
ATOM     25  C   UNL     1      -8.276  -3.021  -0.088  0.00  0.00    -0.033 A 
ATOM     26  C   UNL     1      -8.811  -3.136   1.203  0.00  0.00    -0.057 A 
ATOM     27  C   UNL     1     -10.024  -2.525   1.525  0.00  0.00    -0.061 A 
ATOM     28  C   UNL     1     -10.708  -1.782   0.564  0.00  0.00    -0.062 A 
ATOM     29  C   UNL     1     -10.182  -1.650  -0.719  0.00  0.00    -0.061 A 
ATOM     30  C   UNL     1      -8.975  -2.270  -1.046  0.00  0.00    -0.057 A 
ENDBRANCH  24  25
ENDBRANCH  20  24
ENDBRANCH  16  17
ENDBRANCH   1  16
TORSDOF 7
