MODEL 1
REMARK VINA RESULT:    -7.498      0.000      0.000
REMARK INTER + INTRA:         -11.153
REMARK INTER:                 -10.566
REMARK INTRA:                  -0.587
REMARK UNBOUND:                -0.587
REMARK  Name = cpd6.pdb
REMARK  9 active torsions:
REMARK  status: ('A' for Active; 'I' for Inactive)
REMARK    1  A    between atoms: C_1  and  O_2
REMARK    2  A    between atoms: O_2  and  C_3
REMARK    3  A    between atoms: C_8  and  O_9
REMARK    4  A    between atoms: O_9  and  C_10
REMARK    5  A    between atoms: C_13  and  C_14
REMARK    6  A    between atoms: C_14  and  C_15
REMARK    7  A    between atoms: C_15  and  C_16
REMARK    8  A    between atoms: N_19  and  C_20
REMARK    9  A    between atoms: C_20  and  C_21
REMARK                            x       y       z     vdW  Elec       q    Type
REMARK                         _______ _______ _______ _____ _____    ______ ____
ROOT
ATOM      1  C   UNL     1      34.737 -36.390 -28.654  0.00  0.00    -0.043 C 
ENDROOT
BRANCH   1  10
ATOM      2  C   UNL     1      39.848 -36.092 -31.907  0.00  0.00    +0.162 A 
ATOM      3  C   UNL     1      38.486 -35.751 -31.946  0.00  0.00    -0.012 A 
ATOM      4  C   UNL     1      37.655 -36.189 -30.932  0.00  0.00    -0.033 A 
ATOM      5  C   UNL     1      38.181 -36.935 -29.890  0.00  0.00    +0.025 A 
ATOM      6  C   UNL     1      39.524 -37.259 -29.794  0.00  0.00    -0.006 A 
ATOM      7  C   UNL     1      40.382 -36.823 -30.813  0.00  0.00    +0.162 A 
ATOM      8  C   UNL     1      37.085 -37.305 -28.999  0.00  0.00    +0.167 C 
ATOM      9  O   UNL     1      37.236 -37.892 -27.943  0.00  0.00    -0.292 OA
ATOM     10  C   UNL     1      35.772 -36.911 -29.654  0.00  0.00    +0.026 C 
ATOM     11  C   UNL     1      36.197 -35.911 -30.751  0.00  0.00    -0.017 C 
BRANCH   2  13
ATOM     12  C   UNL     1      40.853 -36.523 -34.014  0.00  0.00    +0.079 C 
ATOM     13  O   UNL     1      40.554 -35.597 -32.976  0.00  0.00    -0.491 OA
ENDBRANCH   2  13
BRANCH   7  14
ATOM     14  O   UNL     1      41.735 -37.046 -30.807  0.00  0.00    -0.491 OA
ATOM     15  C   UNL     1      42.593 -35.929 -30.622  0.00  0.00    +0.079 C 
ENDBRANCH   7  14
ENDBRANCH   1  10
BRANCH   1  16
ATOM     16  C   UNL     1      34.413 -34.903 -28.850  0.00  0.00    -0.049 C 
BRANCH  16  17
ATOM     17  C   UNL     1      33.210 -34.632 -29.767  0.00  0.00    -0.039 C 
ATOM     18  C   UNL     1      31.906 -34.328 -29.026  0.00  0.00    -0.037 C 
ATOM     19  C   UNL     1      30.777 -34.045 -30.025  0.00  0.00    -0.001 C 
ATOM     20  N   UNL     1      31.097 -32.940 -30.946  0.00  0.00    -0.298 N 
ATOM     21  C   UNL     1      32.361 -33.187 -31.658  0.00  0.00    -0.001 C 
ATOM     22  C   UNL     1      33.522 -33.456 -30.701  0.00  0.00    -0.037 C 
ATOM     23  H   UNL     1      31.218 -32.084 -30.405  0.00  0.00    +0.000 HD
BRANCH  20  24
ATOM     24  C   UNL     1      29.982 -32.759 -31.899  0.00  0.00    +0.024 C 
BRANCH  24  25
ATOM     25  C   UNL     1      29.429 -31.350 -31.936  0.00  0.00    -0.033 A 
ATOM     26  C   UNL     1      30.091 -30.310 -31.269  0.00  0.00    -0.057 A 
ATOM     27  C   UNL     1      29.582 -29.011 -31.298  0.00  0.00    -0.061 A 
ATOM     28  C   UNL     1      28.412 -28.735 -32.004  0.00  0.00    -0.062 A 
ATOM     29  C   UNL     1      27.750 -29.757 -32.680  0.00  0.00    -0.061 A 
ATOM     30  C   UNL     1      28.252 -31.059 -32.643  0.00  0.00    -0.057 A 
ENDBRANCH  24  25
ENDBRANCH  20  24
ENDBRANCH  16  17
ENDBRANCH   1  16
TORSDOF 7
ENDMDL
MODEL 2
REMARK VINA RESULT:    -7.492      3.266      5.014
REMARK INTER + INTRA:         -11.145
REMARK INTER:                 -10.354
REMARK INTRA:                  -0.791
REMARK UNBOUND:                -0.587
REMARK  Name = cpd6.pdb
REMARK  9 active torsions:
REMARK  status: ('A' for Active; 'I' for Inactive)
REMARK    1  A    between atoms: C_1  and  O_2
REMARK    2  A    between atoms: O_2  and  C_3
REMARK    3  A    between atoms: C_8  and  O_9
REMARK    4  A    between atoms: O_9  and  C_10
REMARK    5  A    between atoms: C_13  and  C_14
REMARK    6  A    between atoms: C_14  and  C_15
REMARK    7  A    between atoms: C_15  and  C_16
REMARK    8  A    between atoms: N_19  and  C_20
REMARK    9  A    between atoms: C_20  and  C_21
REMARK                            x       y       z     vdW  Elec       q    Type
REMARK                         _______ _______ _______ _____ _____    ______ ____
ROOT
ATOM      1  C   UNL     1      32.826 -32.100 -30.312  0.00  0.00    -0.043 C 
ENDROOT
BRANCH   1  10
ATOM      2  C   UNL     1      36.973 -36.507 -29.889  0.00  0.00    +0.162 A 
ATOM      3  C   UNL     1      35.806 -36.019 -29.279  0.00  0.00    -0.012 A 
ATOM      4  C   UNL     1      35.276 -34.817 -29.708  0.00  0.00    -0.033 A 
ATOM      5  C   UNL     1      35.890 -34.129 -30.743  0.00  0.00    +0.025 A 
ATOM      6  C   UNL     1      37.017 -34.595 -31.397  0.00  0.00    -0.006 A 
ATOM      7  C   UNL     1      37.569 -35.813 -30.976  0.00  0.00    +0.162 A 
ATOM      8  C   UNL     1      35.160 -32.882 -30.954  0.00  0.00    +0.167 C 
ATOM      9  O   UNL     1      35.402 -32.096 -31.851  0.00  0.00    -0.292 OA
ATOM     10  C   UNL     1      34.142 -32.719 -29.837  0.00  0.00    +0.026 C 
ATOM     11  C   UNL     1      34.032 -34.137 -29.235  0.00  0.00    -0.017 C 
BRANCH   2  13
ATOM     12  C   UNL     1      37.331 -37.823 -27.946  0.00  0.00    +0.079 C 
ATOM     13  O   UNL     1      37.392 -37.704 -29.363  0.00  0.00    -0.491 OA
ENDBRANCH   2  13
BRANCH   7  14
ATOM     14  O   UNL     1      38.657 -36.395 -31.572  0.00  0.00    -0.491 OA
ATOM     15  C   UNL     1      39.948 -35.923 -31.209  0.00  0.00    +0.079 C 
ENDBRANCH   7  14
ENDBRANCH   1  10
BRANCH   1  16
ATOM     16  C   UNL     1      31.622 -32.538 -29.467  0.00  0.00    -0.049 C 
BRANCH  16  17
ATOM     17  C   UNL     1      30.460 -31.532 -29.450  0.00  0.00    -0.039 C 
ATOM     18  C   UNL     1      30.034 -31.082 -28.051  0.00  0.00    -0.037 C 
ATOM     19  C   UNL     1      28.892 -30.062 -28.143  0.00  0.00    -0.001 C 
ATOM     20  N   UNL     1      29.244 -28.887 -28.960  0.00  0.00    -0.298 N 
ATOM     21  C   UNL     1      29.685 -29.285 -30.305  0.00  0.00    -0.001 C 
ATOM     22  C   UNL     1      30.837 -30.289 -30.265  0.00  0.00    -0.037 C 
ATOM     23  H   UNL     1      30.025 -28.401 -28.518  0.00  0.00    +0.000 HD
BRANCH  20  24
ATOM     24  C   UNL     1      28.083 -27.975 -29.033  0.00  0.00    +0.024 C 
BRANCH  24  25
ATOM     25  C   UNL     1      28.292 -26.656 -28.320  0.00  0.00    -0.033 A 
ATOM     26  C   UNL     1      27.912 -26.507 -26.978  0.00  0.00    -0.057 A 
ATOM     27  C   UNL     1      28.100 -25.291 -26.319  0.00  0.00    -0.061 A 
ATOM     28  C   UNL     1      28.681 -24.216 -26.990  0.00  0.00    -0.062 A 
ATOM     29  C   UNL     1      29.074 -24.354 -28.320  0.00  0.00    -0.061 A 
ATOM     30  C   UNL     1      28.876 -25.566 -28.984  0.00  0.00    -0.057 A 
ENDBRANCH  24  25
ENDBRANCH  20  24
ENDBRANCH  16  17
ENDBRANCH   1  16
TORSDOF 7
ENDMDL
MODEL 3
REMARK VINA RESULT:    -7.478      6.716     10.951
REMARK INTER + INTRA:         -11.125
REMARK INTER:                 -10.129
REMARK INTRA:                  -0.995
REMARK UNBOUND:                -0.587
REMARK  Name = cpd6.pdb
REMARK  9 active torsions:
REMARK  status: ('A' for Active; 'I' for Inactive)
REMARK    1  A    between atoms: C_1  and  O_2
REMARK    2  A    between atoms: O_2  and  C_3
REMARK    3  A    between atoms: C_8  and  O_9
REMARK    4  A    between atoms: O_9  and  C_10
REMARK    5  A    between atoms: C_13  and  C_14
REMARK    6  A    between atoms: C_14  and  C_15
REMARK    7  A    between atoms: C_15  and  C_16
REMARK    8  A    between atoms: N_19  and  C_20
REMARK    9  A    between atoms: C_20  and  C_21
REMARK                            x       y       z     vdW  Elec       q    Type
REMARK                         _______ _______ _______ _____ _____    ______ ____
ROOT
ATOM      1  C   UNL     1      32.923 -37.902 -24.011  0.00  0.00    -0.043 C 
ENDROOT
BRANCH   1  10
ATOM      2  C   UNL     1      35.454 -41.259 -19.638  0.00  0.00    +0.162 A 
ATOM      3  C   UNL     1      34.577 -41.340 -20.733  0.00  0.00    -0.012 A 
ATOM      4  C   UNL     1      34.194 -40.177 -21.374  0.00  0.00    -0.033 A 
ATOM      5  C   UNL     1      34.696 -38.960 -20.941  0.00  0.00    +0.025 A 
ATOM      6  C   UNL     1      35.591 -38.841 -19.892  0.00  0.00    -0.006 A 
ATOM      7  C   UNL     1      35.992 -40.010 -19.230  0.00  0.00    +0.162 A 
ATOM      8  C   UNL     1      34.092 -37.907 -21.752  0.00  0.00    +0.167 C 
ATOM      9  O   UNL     1      34.394 -36.730 -21.673  0.00  0.00    -0.292 OA
ATOM     10  C   UNL     1      33.002 -38.521 -22.614  0.00  0.00    +0.026 C 
ATOM     11  C   UNL     1      33.314 -40.033 -22.573  0.00  0.00    -0.017 C 
BRANCH   2  13
ATOM     12  C   UNL     1      36.768 -43.234 -19.743  0.00  0.00    +0.079 C 
ATOM     13  O   UNL     1      35.745 -42.486 -19.094  0.00  0.00    -0.491 OA
ENDBRANCH   2  13
BRANCH   7  14
ATOM     14  O   UNL     1      36.904 -40.023 -18.206  0.00  0.00    -0.491 OA
ATOM     15  C   UNL     1      38.282 -39.938 -18.541  0.00  0.00    +0.079 C 
ENDBRANCH   7  14
ENDBRANCH   1  10
BRANCH   1  16
ATOM     16  C   UNL     1      32.859 -38.954 -25.127  0.00  0.00    -0.049 C 
BRANCH  16  17
ATOM     17  C   UNL     1      33.552 -38.535 -26.433  0.00  0.00    -0.039 C 
ATOM     18  C   UNL     1      34.491 -37.334 -26.293  0.00  0.00    -0.037 C 
ATOM     19  C   UNL     1      35.153 -37.014 -27.639  0.00  0.00    -0.001 C 
ATOM     20  N   UNL     1      35.890 -38.162 -28.197  0.00  0.00    -0.298 N 
ATOM     21  C   UNL     1      35.024 -39.344 -28.320  0.00  0.00    -0.001 C 
ATOM     22  C   UNL     1      34.355 -39.714 -26.996  0.00  0.00    -0.037 C 
ATOM     23  H   UNL     1      36.647 -38.408 -27.560  0.00  0.00    +0.000 HD
BRANCH  20  24
ATOM     24  C   UNL     1      36.461 -37.787 -29.508  0.00  0.00    +0.024 C 
BRANCH  24  25
ATOM     25  C   UNL     1      37.972 -37.701 -29.518  0.00  0.00    -0.033 A 
ATOM     26  C   UNL     1      38.634 -36.962 -30.508  0.00  0.00    -0.057 A 
ATOM     27  C   UNL     1      40.028 -36.884 -30.522  0.00  0.00    -0.061 A 
ATOM     28  C   UNL     1      40.773 -37.534 -29.539  0.00  0.00    -0.062 A 
ATOM     29  C   UNL     1      40.127 -38.262 -28.543  0.00  0.00    -0.061 A 
ATOM     30  C   UNL     1      38.734 -38.351 -28.534  0.00  0.00    -0.057 A 
ENDBRANCH  24  25
ENDBRANCH  20  24
ENDBRANCH  16  17
ENDBRANCH   1  16
TORSDOF 7
ENDMDL
MODEL 4
REMARK VINA RESULT:    -7.290     25.162     29.444
REMARK INTER + INTRA:         -10.860
REMARK INTER:                  -9.680
REMARK INTRA:                  -1.181
REMARK UNBOUND:                -0.587
REMARK  Name = cpd6.pdb
REMARK  9 active torsions:
REMARK  status: ('A' for Active; 'I' for Inactive)
REMARK    1  A    between atoms: C_1  and  O_2
REMARK    2  A    between atoms: O_2  and  C_3
REMARK    3  A    between atoms: C_8  and  O_9
REMARK    4  A    between atoms: O_9  and  C_10
REMARK    5  A    between atoms: C_13  and  C_14
REMARK    6  A    between atoms: C_14  and  C_15
REMARK    7  A    between atoms: C_15  and  C_16
REMARK    8  A    between atoms: N_19  and  C_20
REMARK    9  A    between atoms: C_20  and  C_21
REMARK                            x       y       z     vdW  Elec       q    Type
REMARK                         _______ _______ _______ _____ _____    ______ ____
ROOT
ATOM      1  C   UNL     1      55.770 -32.232 -54.334  0.00  0.00    -0.043 C 
ENDROOT
BRANCH   1  10
ATOM      2  C   UNL     1      49.742 -32.890 -54.154  0.00  0.00    +0.162 A 
ATOM      3  C   UNL     1      50.913 -33.507 -54.627  0.00  0.00    -0.012 A 
ATOM      4  C   UNL     1      52.117 -32.837 -54.516  0.00  0.00    -0.033 A 
ATOM      5  C   UNL     1      52.151 -31.584 -53.924  0.00  0.00    +0.025 A 
ATOM      6  C   UNL     1      51.027 -30.959 -53.410  0.00  0.00    -0.006 A 
ATOM      7  C   UNL     1      49.797 -31.624 -53.513  0.00  0.00    +0.162 A 
ATOM      8  C   UNL     1      53.523 -31.091 -53.986  0.00  0.00    +0.167 C 
ATOM      9  O   UNL     1      53.897 -30.052 -53.473  0.00  0.00    -0.292 OA
ATOM     10  C   UNL     1      54.342 -32.037 -54.849  0.00  0.00    +0.026 C 
ATOM     11  C   UNL     1      53.477 -33.315 -54.909  0.00  0.00    -0.017 C 
BRANCH   2  13
ATOM     12  C   UNL     1      47.937 -33.502 -55.569  0.00  0.00    +0.079 C 
ATOM     13  O   UNL     1      48.621 -33.663 -54.332  0.00  0.00    -0.491 OA
ENDBRANCH   2  13
BRANCH   7  14
ATOM     14  O   UNL     1      48.625 -31.125 -53.006  0.00  0.00    -0.491 OA
ATOM     15  C   UNL     1      48.097 -29.942 -53.589  0.00  0.00    +0.079 C 
ENDBRANCH   7  14
ENDBRANCH   1  10
BRANCH   1  16
ATOM     16  C   UNL     1      56.165 -33.710 -54.215  0.00  0.00    -0.049 C 
BRANCH  16  17
ATOM     17  C   UNL     1      56.536 -34.154 -52.791  0.00  0.00    -0.039 C 
ATOM     18  C   UNL     1      55.767 -33.430 -51.683  0.00  0.00    -0.037 C 
ATOM     19  C   UNL     1      56.186 -33.962 -50.307  0.00  0.00    -0.001 C 
ATOM     20  N   UNL     1      55.996 -35.418 -50.178  0.00  0.00    -0.298 N 
ATOM     21  C   UNL     1      56.701 -36.145 -51.245  0.00  0.00    -0.001 C 
ATOM     22  C   UNL     1      56.300 -35.662 -52.639  0.00  0.00    -0.037 C 
ATOM     23  H   UNL     1      55.003 -35.630 -50.274  0.00  0.00    +0.000 HD
BRANCH  20  24
ATOM     24  C   UNL     1      56.460 -35.856 -48.845  0.00  0.00    +0.024 C 
BRANCH  24  25
ATOM     25  C   UNL     1      55.533 -35.467 -47.713  0.00  0.00    -0.033 A 
ATOM     26  C   UNL     1      54.271 -36.067 -47.592  0.00  0.00    -0.057 A 
ATOM     27  C   UNL     1      53.412 -35.707 -46.552  0.00  0.00    -0.061 A 
ATOM     28  C   UNL     1      53.811 -34.756 -45.615  0.00  0.00    -0.062 A 
ATOM     29  C   UNL     1      55.066 -34.161 -45.717  0.00  0.00    -0.061 A 
ATOM     30  C   UNL     1      55.922 -34.511 -46.763  0.00  0.00    -0.057 A 
ENDBRANCH  24  25
ENDBRANCH  20  24
ENDBRANCH  16  17
ENDBRANCH   1  16
TORSDOF 7
ENDMDL
MODEL 5
REMARK VINA RESULT:    -7.099     32.799     36.812
REMARK INTER + INTRA:         -10.591
REMARK INTER:                  -9.825
REMARK INTRA:                  -0.766
REMARK UNBOUND:                -0.587
REMARK  Name = cpd6.pdb
REMARK  9 active torsions:
REMARK  status: ('A' for Active; 'I' for Inactive)
REMARK    1  A    between atoms: C_1  and  O_2
REMARK    2  A    between atoms: O_2  and  C_3
REMARK    3  A    between atoms: C_8  and  O_9
REMARK    4  A    between atoms: O_9  and  C_10
REMARK    5  A    between atoms: C_13  and  C_14
REMARK    6  A    between atoms: C_14  and  C_15
REMARK    7  A    between atoms: C_15  and  C_16
REMARK    8  A    between atoms: N_19  and  C_20
REMARK    9  A    between atoms: C_20  and  C_21
REMARK                            x       y       z     vdW  Elec       q    Type
REMARK                         _______ _______ _______ _____ _____    ______ ____
ROOT
ATOM      1  C   UNL     1      62.300 -21.136  -9.945  0.00  0.00    -0.043 C 
ENDROOT
BRANCH   1  10
ATOM      2  C   UNL     1      64.575 -24.792  -5.671  0.00  0.00    +0.162 A 
ATOM      3  C   UNL     1      64.144 -23.472  -5.890  0.00  0.00    -0.012 A 
ATOM      4  C   UNL     1      63.814 -23.078  -7.172  0.00  0.00    -0.033 A 
ATOM      5  C   UNL     1      63.891 -23.991  -8.212  0.00  0.00    +0.025 A 
ATOM      6  C   UNL     1      64.272 -25.310  -8.032  0.00  0.00    -0.006 A 
ATOM      7  C   UNL     1      64.611 -25.729  -6.738  0.00  0.00    +0.162 A 
ATOM      8  C   UNL     1      63.541 -23.301  -9.449  0.00  0.00    +0.167 C 
ATOM      9  O   UNL     1      63.433 -23.853 -10.529  0.00  0.00    -0.292 OA
ATOM     10  C   UNL     1      63.426 -21.813  -9.160  0.00  0.00    +0.026 C 
ATOM     11  C   UNL     1      63.298 -21.749  -7.623  0.00  0.00    -0.017 C 
BRANCH   2  13
ATOM     12  C   UNL     1      65.086 -23.907  -3.528  0.00  0.00    +0.079 C 
ATOM     13  O   UNL     1      64.875 -25.046  -4.356  0.00  0.00    -0.491 OA
ENDBRANCH   2  13
BRANCH   7  14
ATOM     14  O   UNL     1      64.963 -27.018  -6.430  0.00  0.00    -0.491 OA
ATOM     15  C   UNL     1      63.921 -27.969  -6.256  0.00  0.00    +0.079 C 
ENDBRANCH   7  14
ENDBRANCH   1  10
BRANCH   1  16
ATOM     16  C   UNL     1      62.687 -19.745 -10.464  0.00  0.00    -0.049 C 
BRANCH  16  17
ATOM     17  C   UNL     1      61.551 -18.711 -10.412  0.00  0.00    -0.039 C 
ATOM     18  C   UNL     1      61.589 -17.673 -11.536  0.00  0.00    -0.037 C 
ATOM     19  C   UNL     1      60.404 -16.708 -11.412  0.00  0.00    -0.001 C 
ATOM     20  N   UNL     1      59.103 -17.401 -11.416  0.00  0.00    -0.298 N 
ATOM     21  C   UNL     1      59.042 -18.426 -10.363  0.00  0.00    -0.001 C 
ATOM     22  C   UNL     1      60.195 -19.424 -10.457  0.00  0.00    -0.037 C 
ATOM     23  H   UNL     1      58.988 -17.879 -12.309  0.00  0.00    +0.000 HD
BRANCH  20  24
ATOM     24  C   UNL     1      58.019 -16.409 -11.252  0.00  0.00    +0.024 C 
BRANCH  24  25
ATOM     25  C   UNL     1      56.840 -16.631 -12.175  0.00  0.00    -0.033 A 
ATOM     26  C   UNL     1      55.610 -16.009 -11.916  0.00  0.00    -0.057 A 
ATOM     27  C   UNL     1      54.520 -16.214 -12.763  0.00  0.00    -0.061 A 
ATOM     28  C   UNL     1      54.651 -17.031 -13.885  0.00  0.00    -0.062 A 
ATOM     29  C   UNL     1      55.871 -17.645 -14.160  0.00  0.00    -0.061 A 
ATOM     30  C   UNL     1      56.959 -17.451 -13.308  0.00  0.00    -0.057 A 
ENDBRANCH  24  25
ENDBRANCH  20  24
ENDBRANCH  16  17
ENDBRANCH   1  16
TORSDOF 7
ENDMDL
MODEL 6
REMARK VINA RESULT:    -7.070     17.113     19.079
REMARK INTER + INTRA:         -10.550
REMARK INTER:                  -9.330
REMARK INTRA:                  -1.220
REMARK UNBOUND:                -0.587
REMARK  Name = cpd6.pdb
REMARK  9 active torsions:
REMARK  status: ('A' for Active; 'I' for Inactive)
REMARK    1  A    between atoms: C_1  and  O_2
REMARK    2  A    between atoms: O_2  and  C_3
REMARK    3  A    between atoms: C_8  and  O_9
REMARK    4  A    between atoms: O_9  and  C_10
REMARK    5  A    between atoms: C_13  and  C_14
REMARK    6  A    between atoms: C_14  and  C_15
REMARK    7  A    between atoms: C_15  and  C_16
REMARK    8  A    between atoms: N_19  and  C_20
REMARK    9  A    between atoms: C_20  and  C_21
REMARK                            x       y       z     vdW  Elec       q    Type
REMARK                         _______ _______ _______ _____ _____    ______ ____
ROOT
ATOM      1  C   UNL     1      46.486 -17.084 -35.923  0.00  0.00    -0.043 C 
ENDROOT
BRANCH   1  10
ATOM      2  C   UNL     1      46.509 -21.316 -40.269  0.00  0.00    +0.162 A 
ATOM      3  C   UNL     1      47.095 -20.989 -39.035  0.00  0.00    -0.012 A 
ATOM      4  C   UNL     1      46.828 -19.756 -38.471  0.00  0.00    -0.033 A 
ATOM      5  C   UNL     1      45.975 -18.877 -39.119  0.00  0.00    +0.025 A 
ATOM      6  C   UNL     1      45.346 -19.176 -40.315  0.00  0.00    -0.006 A 
ATOM      7  C   UNL     1      45.604 -20.423 -40.902  0.00  0.00    +0.162 A 
ATOM      8  C   UNL     1      45.915 -17.645 -38.337  0.00  0.00    +0.167 C 
ATOM      9  O   UNL     1      45.182 -16.709 -38.599  0.00  0.00    -0.292 OA
ATOM     10  C   UNL     1      46.957 -17.717 -37.234  0.00  0.00    +0.026 C 
ATOM     11  C   UNL     1      47.305 -19.220 -37.160  0.00  0.00    -0.017 C 
BRANCH   2  13
ATOM     12  C   UNL     1      48.166 -22.688 -41.273  0.00  0.00    +0.079 C 
ATOM     13  O   UNL     1      46.862 -22.566 -40.715  0.00  0.00    -0.491 OA
ENDBRANCH   2  13
BRANCH   7  14
ATOM     14  O   UNL     1      45.009 -20.848 -42.062  0.00  0.00    -0.491 OA
ATOM     15  C   UNL     1      44.245 -19.907 -42.803  0.00  0.00    +0.079 C 
ENDBRANCH   7  14
ENDBRANCH   1  10
BRANCH   1  16
ATOM     16  C   UNL     1      46.186 -18.122 -34.833  0.00  0.00    -0.049 C 
BRANCH  16  17
ATOM     17  C   UNL     1      44.690 -18.323 -34.544  0.00  0.00    -0.039 C 
ATOM     18  C   UNL     1      44.096 -19.599 -35.146  0.00  0.00    -0.037 C 
ATOM     19  C   UNL     1      42.612 -19.722 -34.778  0.00  0.00    -0.001 C 
ATOM     20  N   UNL     1      42.383 -19.703 -33.323  0.00  0.00    -0.298 N 
ATOM     21  C   UNL     1      42.966 -18.501 -32.706  0.00  0.00    -0.001 C 
ATOM     22  C   UNL     1      44.452 -18.346 -33.030  0.00  0.00    -0.037 C 
ATOM     23  H   UNL     1      42.847 -20.510 -32.906  0.00  0.00    +0.000 HD
BRANCH  20  24
ATOM     24  C   UNL     1      40.932 -19.783 -33.054  0.00  0.00    +0.024 C 
BRANCH  24  25
ATOM     25  C   UNL     1      40.341 -21.159 -33.276  0.00  0.00    -0.033 A 
ATOM     26  C   UNL     1      40.870 -22.274 -32.610  0.00  0.00    -0.057 A 
ATOM     27  C   UNL     1      40.330 -23.545 -32.816  0.00  0.00    -0.061 A 
ATOM     28  C   UNL     1      39.247 -23.712 -33.678  0.00  0.00    -0.062 A 
ATOM     29  C   UNL     1      38.705 -22.611 -34.337  0.00  0.00    -0.061 A 
ATOM     30  C   UNL     1      39.251 -21.341 -34.142  0.00  0.00    -0.057 A 
ENDBRANCH  24  25
ENDBRANCH  20  24
ENDBRANCH  16  17
ENDBRANCH   1  16
TORSDOF 7
ENDMDL
MODEL 7
REMARK VINA RESULT:    -6.941     24.822     28.897
REMARK INTER + INTRA:         -10.369
REMARK INTER:                  -9.346
REMARK INTRA:                  -1.023
REMARK UNBOUND:                -0.587
REMARK  Name = cpd6.pdb
REMARK  9 active torsions:
REMARK  status: ('A' for Active; 'I' for Inactive)
REMARK    1  A    between atoms: C_1  and  O_2
REMARK    2  A    between atoms: O_2  and  C_3
REMARK    3  A    between atoms: C_8  and  O_9
REMARK    4  A    between atoms: O_9  and  C_10
REMARK    5  A    between atoms: C_13  and  C_14
REMARK    6  A    between atoms: C_14  and  C_15
REMARK    7  A    between atoms: C_15  and  C_16
REMARK    8  A    between atoms: N_19  and  C_20
REMARK    9  A    between atoms: C_20  and  C_21
REMARK                            x       y       z     vdW  Elec       q    Type
REMARK                         _______ _______ _______ _____ _____    ______ ____
ROOT
ATOM      1  C   UNL     1      52.533 -31.438 -53.931  0.00  0.00    -0.043 C 
ENDROOT
BRANCH   1  10
ATOM      2  C   UNL     1      47.597 -34.811 -54.961  0.00  0.00    +0.162 A 
ATOM      3  C   UNL     1      48.928 -34.634 -55.377  0.00  0.00    -0.012 A 
ATOM      4  C   UNL     1      49.647 -33.561 -54.886  0.00  0.00    -0.033 A 
ATOM      5  C   UNL     1      49.054 -32.695 -53.981  0.00  0.00    +0.025 A 
ATOM      6  C   UNL     1      47.760 -32.857 -53.516  0.00  0.00    -0.006 A 
ATOM      7  C   UNL     1      47.015 -33.940 -54.002  0.00  0.00    +0.162 A 
ATOM      8  C   UNL     1      50.010 -31.636 -53.674  0.00  0.00    +0.167 C 
ATOM      9  O   UNL     1      49.818 -30.766 -52.844  0.00  0.00    -0.292 OA
ATOM     10  C   UNL     1      51.201 -31.769 -54.608  0.00  0.00    +0.026 C 
ATOM     11  C   UNL     1      51.074 -33.207 -55.158  0.00  0.00    -0.017 C 
BRANCH   2  13
ATOM     12  C   UNL     1      47.680 -37.150 -55.362  0.00  0.00    +0.079 C 
ATOM     13  O   UNL     1      47.001 -35.910 -55.529  0.00  0.00    -0.491 OA
ENDBRANCH   2  13
BRANCH   7  14
ATOM     14  O   UNL     1      45.741 -34.228 -53.585  0.00  0.00    -0.491 OA
ATOM     15  C   UNL     1      45.581 -34.892 -52.340  0.00  0.00    +0.079 C 
ENDBRANCH   7  14
ENDBRANCH   1  10
BRANCH   1  16
ATOM     16  C   UNL     1      53.721 -32.182 -54.557  0.00  0.00    -0.049 C 
BRANCH  16  17
ATOM     17  C   UNL     1      54.566 -32.983 -53.554  0.00  0.00    -0.039 C 
ATOM     18  C   UNL     1      55.594 -32.150 -52.785  0.00  0.00    -0.037 C 
ATOM     19  C   UNL     1      56.363 -33.033 -51.794  0.00  0.00    -0.001 C 
ATOM     20  N   UNL     1      55.475 -33.729 -50.845  0.00  0.00    -0.298 N 
ATOM     21  C   UNL     1      54.455 -34.520 -51.551  0.00  0.00    -0.001 C 
ATOM     22  C   UNL     1      53.649 -33.677 -52.539  0.00  0.00    -0.037 C 
ATOM     23  H   UNL     1      54.983 -33.034 -50.284  0.00  0.00    +0.000 HD
BRANCH  20  24
ATOM     24  C   UNL     1      56.285 -34.587 -49.955  0.00  0.00    +0.024 C 
BRANCH  24  25
ATOM     25  C   UNL     1      55.926 -34.463 -48.490  0.00  0.00    -0.033 A 
ATOM     26  C   UNL     1      56.477 -33.438 -47.708  0.00  0.00    -0.057 A 
ATOM     27  C   UNL     1      56.150 -33.324 -46.356  0.00  0.00    -0.061 A 
ATOM     28  C   UNL     1      55.259 -34.225 -45.774  0.00  0.00    -0.062 A 
ATOM     29  C   UNL     1      54.696 -35.241 -46.542  0.00  0.00    -0.061 A 
ATOM     30  C   UNL     1      55.030 -35.364 -47.892  0.00  0.00    -0.057 A 
ENDBRANCH  24  25
ENDBRANCH  20  24
ENDBRANCH  16  17
ENDBRANCH   1  16
TORSDOF 7
ENDMDL
MODEL 8
REMARK VINA RESULT:    -6.876     15.448     18.811
REMARK INTER + INTRA:         -10.278
REMARK INTER:                  -9.407
REMARK INTRA:                  -0.871
REMARK UNBOUND:                -0.587
REMARK  Name = cpd6.pdb
REMARK  9 active torsions:
REMARK  status: ('A' for Active; 'I' for Inactive)
REMARK    1  A    between atoms: C_1  and  O_2
REMARK    2  A    between atoms: O_2  and  C_3
REMARK    3  A    between atoms: C_8  and  O_9
REMARK    4  A    between atoms: O_9  and  C_10
REMARK    5  A    between atoms: C_13  and  C_14
REMARK    6  A    between atoms: C_14  and  C_15
REMARK    7  A    between atoms: C_15  and  C_16
REMARK    8  A    between atoms: N_19  and  C_20
REMARK    9  A    between atoms: C_20  and  C_21
REMARK                            x       y       z     vdW  Elec       q    Type
REMARK                         _______ _______ _______ _____ _____    ______ ____
ROOT
ATOM      1  C   UNL     1      41.261 -21.395 -33.638  0.00  0.00    -0.043 C 
ENDROOT
BRANCH   1  10
ATOM      2  C   UNL     1      36.585 -17.693 -32.528  0.00  0.00    +0.162 A 
ATOM      3  C   UNL     1      37.988 -17.720 -32.596  0.00  0.00    -0.012 A 
ATOM      4  C   UNL     1      38.629 -18.932 -32.770  0.00  0.00    -0.033 A 
ATOM      5  C   UNL     1      37.879 -20.091 -32.897  0.00  0.00    +0.025 A 
ATOM      6  C   UNL     1      36.495 -20.102 -32.875  0.00  0.00    -0.006 A 
ATOM      7  C   UNL     1      35.828 -18.882 -32.700  0.00  0.00    +0.162 A 
ATOM      8  C   UNL     1      38.801 -21.217 -33.015  0.00  0.00    +0.167 C 
ATOM      9  O   UNL     1      38.451 -22.364 -33.225  0.00  0.00    -0.292 OA
ATOM     10  C   UNL     1      40.213 -20.719 -32.751  0.00  0.00    +0.026 C 
ATOM     11  C   UNL     1      40.095 -19.188 -32.911  0.00  0.00    -0.017 C 
BRANCH   2  13
ATOM     12  C   UNL     1      35.918 -16.004 -31.000  0.00  0.00    +0.079 C 
ATOM     13  O   UNL     1      36.083 -16.428 -32.348  0.00  0.00    -0.491 OA
ENDBRANCH   2  13
BRANCH   7  14
ATOM     14  O   UNL     1      34.462 -18.762 -32.703  0.00  0.00    -0.491 OA
ATOM     15  C   UNL     1      33.832 -18.358 -33.911  0.00  0.00    +0.079 C 
ENDBRANCH   7  14
ENDBRANCH   1  10
BRANCH   1  16
ATOM     16  C   UNL     1      42.330 -20.420 -34.148  0.00  0.00    -0.049 C 
BRANCH  16  17
ATOM     17  C   UNL     1      42.336 -20.226 -35.672  0.00  0.00    -0.039 C 
ATOM     18  C   UNL     1      43.662 -19.713 -36.239  0.00  0.00    -0.037 C 
ATOM     19  C   UNL     1      43.575 -19.581 -37.765  0.00  0.00    -0.001 C 
ATOM     20  N   UNL     1      43.205 -20.845 -38.425  0.00  0.00    -0.298 N 
ATOM     21  C   UNL     1      41.946 -21.382 -37.885  0.00  0.00    -0.001 C 
ATOM     22  C   UNL     1      41.992 -21.549 -36.366  0.00  0.00    -0.037 C 
ATOM     23  H   UNL     1      43.931 -21.538 -38.241  0.00  0.00    +0.000 HD
BRANCH  20  24
ATOM     24  C   UNL     1      43.101 -20.625 -39.883  0.00  0.00    +0.024 C 
BRANCH  24  25
ATOM     25  C   UNL     1      44.184 -21.313 -40.687  0.00  0.00    -0.033 A 
ATOM     26  C   UNL     1      44.046 -21.474 -42.073  0.00  0.00    -0.057 A 
ATOM     27  C   UNL     1      45.041 -22.111 -42.816  0.00  0.00    -0.061 A 
ATOM     28  C   UNL     1      46.190 -22.583 -42.183  0.00  0.00    -0.062 A 
ATOM     29  C   UNL     1      46.346 -22.420 -40.808  0.00  0.00    -0.061 A 
ATOM     30  C   UNL     1      45.346 -21.793 -40.062  0.00  0.00    -0.057 A 
ENDBRANCH  24  25
ENDBRANCH  20  24
ENDBRANCH  16  17
ENDBRANCH   1  16
TORSDOF 7
ENDMDL
MODEL 9
REMARK VINA RESULT:    -6.813      4.821     11.203
REMARK INTER + INTRA:         -10.189
REMARK INTER:                  -9.448
REMARK INTRA:                  -0.741
REMARK UNBOUND:                -0.587
REMARK  Name = cpd6.pdb
REMARK  9 active torsions:
REMARK  status: ('A' for Active; 'I' for Inactive)
REMARK    1  A    between atoms: C_1  and  O_2
REMARK    2  A    between atoms: O_2  and  C_3
REMARK    3  A    between atoms: C_8  and  O_9
REMARK    4  A    between atoms: O_9  and  C_10
REMARK    5  A    between atoms: C_13  and  C_14
REMARK    6  A    between atoms: C_14  and  C_15
REMARK    7  A    between atoms: C_15  and  C_16
REMARK    8  A    between atoms: N_19  and  C_20
REMARK    9  A    between atoms: C_20  and  C_21
REMARK                            x       y       z     vdW  Elec       q    Type
REMARK                         _______ _______ _______ _____ _____    ______ ____
ROOT
ATOM      1  C   UNL     1      30.911 -32.839 -30.903  0.00  0.00    -0.043 C 
ENDROOT
BRANCH   1  10
ATOM      2  C   UNL     1      27.950 -27.994 -28.767  0.00  0.00    +0.162 A 
ATOM      3  C   UNL     1      28.733 -28.429 -29.850  0.00  0.00    -0.012 A 
ATOM      4  C   UNL     1      29.321 -29.678 -29.795  0.00  0.00    -0.033 A 
ATOM      5  C   UNL     1      29.112 -30.485 -28.687  0.00  0.00    +0.025 A 
ATOM      6  C   UNL     1      28.316 -30.110 -27.618  0.00  0.00    -0.006 A 
ATOM      7  C   UNL     1      27.711 -28.847 -27.657  0.00  0.00    +0.162 A 
ATOM      8  C   UNL     1      29.884 -31.711 -28.868  0.00  0.00    +0.167 C 
ATOM      9  O   UNL     1      29.843 -32.658 -28.105  0.00  0.00    -0.292 OA
ATOM     10  C   UNL     1      30.773 -31.550 -30.089  0.00  0.00    +0.026 C 
ATOM     11  C   UNL     1      30.150 -30.354 -30.839  0.00  0.00    -0.017 C 
BRANCH   2  13
ATOM     12  C   UNL     1      28.317 -25.650 -28.702  0.00  0.00    +0.079 C 
ATOM     13  O   UNL     1      27.433 -26.736 -28.952  0.00  0.00    -0.491 OA
ENDBRANCH   2  13
BRANCH   7  14
ATOM     14  O   UNL     1      26.870 -28.382 -26.678  0.00  0.00    -0.491 OA
ATOM     15  C   UNL     1      27.438 -27.635 -25.612  0.00  0.00    +0.079 C 
ENDBRANCH   7  14
ENDBRANCH   1  10
BRANCH   1  16
ATOM     16  C   UNL     1      32.242 -32.928 -31.661  0.00  0.00    -0.049 C 
BRANCH  16  17
ATOM     17  C   UNL     1      33.149 -34.086 -31.216  0.00  0.00    -0.039 C 
ATOM     18  C   UNL     1      33.738 -34.905 -32.367  0.00  0.00    -0.037 C 
ATOM     19  C   UNL     1      34.646 -36.015 -31.822  0.00  0.00    -0.001 C 
ATOM     20  N   UNL     1      35.732 -35.495 -30.972  0.00  0.00    -0.298 N 
ATOM     21  C   UNL     1      35.202 -34.679 -29.869  0.00  0.00    -0.001 C 
ATOM     22  C   UNL     1      34.304 -33.546 -30.365  0.00  0.00    -0.037 C 
ATOM     23  H   UNL     1      36.330 -34.889 -31.535  0.00  0.00    +0.000 HD
BRANCH  20  24
ATOM     24  C   UNL     1      36.533 -36.624 -30.455  0.00  0.00    +0.024 C 
BRANCH  24  25
ATOM     25  C   UNL     1      37.999 -36.559 -30.828  0.00  0.00    -0.033 A 
ATOM     26  C   UNL     1      38.958 -37.235 -30.061  0.00  0.00    -0.057 A 
ATOM     27  C   UNL     1      40.310 -37.173 -30.400  0.00  0.00    -0.061 A 
ATOM     28  C   UNL     1      40.717 -36.446 -31.518  0.00  0.00    -0.062 A 
ATOM     29  C   UNL     1      39.774 -35.779 -32.296  0.00  0.00    -0.061 A 
ATOM     30  C   UNL     1      38.422 -35.830 -31.951  0.00  0.00    -0.057 A 
ENDBRANCH  24  25
ENDBRANCH  20  24
ENDBRANCH  16  17
ENDBRANCH   1  16
TORSDOF 7
ENDMDL
MODEL 10
REMARK VINA RESULT:    -6.791      4.469     10.781
REMARK INTER + INTRA:         -10.157
REMARK INTER:                  -9.147
REMARK INTRA:                  -1.010
REMARK UNBOUND:                -0.587
REMARK  Name = cpd6.pdb
REMARK  9 active torsions:
REMARK  status: ('A' for Active; 'I' for Inactive)
REMARK    1  A    between atoms: C_1  and  O_2
REMARK    2  A    between atoms: O_2  and  C_3
REMARK    3  A    between atoms: C_8  and  O_9
REMARK    4  A    between atoms: O_9  and  C_10
REMARK    5  A    between atoms: C_13  and  C_14
REMARK    6  A    between atoms: C_14  and  C_15
REMARK    7  A    between atoms: C_15  and  C_16
REMARK    8  A    between atoms: N_19  and  C_20
REMARK    9  A    between atoms: C_20  and  C_21
REMARK                            x       y       z     vdW  Elec       q    Type
REMARK                         _______ _______ _______ _____ _____    ______ ____
ROOT
ATOM      1  C   UNL     1      31.376 -32.288 -28.891  0.00  0.00    -0.043 C 
ENDROOT
BRANCH   1  10
ATOM      2  C   UNL     1      28.287 -28.982 -32.933  0.00  0.00    +0.162 A 
ATOM      3  C   UNL     1      28.999 -28.880 -31.726  0.00  0.00    -0.012 A 
ATOM      4  C   UNL     1      29.429 -30.034 -31.099  0.00  0.00    -0.033 A 
ATOM      5  C   UNL     1      29.171 -31.265 -31.681  0.00  0.00    +0.025 A 
ATOM      6  C   UNL     1      28.508 -31.407 -32.888  0.00  0.00    -0.006 A 
ATOM      7  C   UNL     1      28.065 -30.248 -33.538  0.00  0.00    +0.162 A 
ATOM      8  C   UNL     1      29.684 -32.303 -30.791  0.00  0.00    +0.167 C 
ATOM      9  O   UNL     1      29.686 -33.490 -31.061  0.00  0.00    -0.292 OA
ATOM     10  C   UNL     1      30.116 -31.655 -29.486  0.00  0.00    +0.026 C 
ATOM     11  C   UNL     1      30.230 -30.157 -29.843  0.00  0.00    -0.017 C 
BRANCH   2  13
ATOM     12  C   UNL     1      27.261 -26.878 -32.539  0.00  0.00    +0.079 C 
ATOM     13  O   UNL     1      27.917 -27.761 -33.441  0.00  0.00    -0.491 OA
ENDBRANCH   2  13
BRANCH   7  14
ATOM     14  O   UNL     1      27.435 -30.259 -34.756  0.00  0.00    -0.491 OA
ATOM     15  C   UNL     1      26.873 -31.485 -35.204  0.00  0.00    +0.079 C 
ENDBRANCH   7  14
ENDBRANCH   1  10
BRANCH   1  16
ATOM     16  C   UNL     1      32.640 -31.980 -29.705  0.00  0.00    -0.049 C 
BRANCH  16  17
ATOM     17  C   UNL     1      33.357 -33.222 -30.257  0.00  0.00    -0.039 C 
ATOM     18  C   UNL     1      34.858 -33.036 -30.486  0.00  0.00    -0.037 C 
ATOM     19  C   UNL     1      35.485 -34.335 -31.009  0.00  0.00    -0.001 C 
ATOM     20  N   UNL     1      35.255 -35.479 -30.108  0.00  0.00    -0.298 N 
ATOM     21  C   UNL     1      33.821 -35.671 -29.845  0.00  0.00    -0.001 C 
ATOM     22  C   UNL     1      33.156 -34.406 -29.303  0.00  0.00    -0.037 C 
ATOM     23  H   UNL     1      35.703 -35.288 -29.212  0.00  0.00    +0.000 HD
BRANCH  20  24
ATOM     24  C   UNL     1      35.850 -36.695 -30.700  0.00  0.00    +0.024 C 
BRANCH  24  25
ATOM     25  C   UNL     1      37.205 -37.056 -30.129  0.00  0.00    -0.033 A 
ATOM     26  C   UNL     1      37.301 -37.759 -28.920  0.00  0.00    -0.057 A 
ATOM     27  C   UNL     1      38.548 -38.091 -28.389  0.00  0.00    -0.061 A 
ATOM     28  C   UNL     1      39.713 -37.734 -29.068  0.00  0.00    -0.062 A 
ATOM     29  C   UNL     1      39.632 -37.046 -30.276  0.00  0.00    -0.061 A 
ATOM     30  C   UNL     1      38.385 -36.703 -30.802  0.00  0.00    -0.057 A 
ENDBRANCH  24  25
ENDBRANCH  20  24
ENDBRANCH  16  17
ENDBRANCH   1  16
TORSDOF 7
ENDMDL
MODEL 11
REMARK VINA RESULT:    -6.756     16.889     18.671
REMARK INTER + INTRA:         -10.108
REMARK INTER:                  -8.705
REMARK INTRA:                  -1.403
REMARK UNBOUND:                -0.587
REMARK  Name = cpd6.pdb
REMARK  9 active torsions:
REMARK  status: ('A' for Active; 'I' for Inactive)
REMARK    1  A    between atoms: C_1  and  O_2
REMARK    2  A    between atoms: O_2  and  C_3
REMARK    3  A    between atoms: C_8  and  O_9
REMARK    4  A    between atoms: O_9  and  C_10
REMARK    5  A    between atoms: C_13  and  C_14
REMARK    6  A    between atoms: C_14  and  C_15
REMARK    7  A    between atoms: C_15  and  C_16
REMARK    8  A    between atoms: N_19  and  C_20
REMARK    9  A    between atoms: C_20  and  C_21
REMARK                            x       y       z     vdW  Elec       q    Type
REMARK                         _______ _______ _______ _____ _____    ______ ____
ROOT
ATOM      1  C   UNL     1      44.014 -20.911 -40.949  0.00  0.00    -0.043 C 
ENDROOT
BRANCH   1  10
ATOM      2  C   UNL     1      46.776 -16.939 -37.289  0.00  0.00    +0.162 A 
ATOM      3  C   UNL     1      45.896 -17.017 -38.381  0.00  0.00    -0.012 A 
ATOM      4  C   UNL     1      45.666 -18.244 -38.973  0.00  0.00    -0.033 A 
ATOM      5  C   UNL     1      46.288 -19.375 -38.468  0.00  0.00    +0.025 A 
ATOM      6  C   UNL     1      47.131 -19.348 -37.370  0.00  0.00    -0.006 A 
ATOM      7  C   UNL     1      47.375 -18.112 -36.756  0.00  0.00    +0.162 A 
ATOM      8  C   UNL     1      45.914 -20.510 -39.306  0.00  0.00    +0.167 C 
ATOM      9  O   UNL     1      46.231 -21.662 -39.071  0.00  0.00    -0.292 OA
ATOM     10  C   UNL     1      45.159 -19.992 -40.519  0.00  0.00    +0.026 C 
ATOM     11  C   UNL     1      44.746 -18.563 -40.108  0.00  0.00    -0.017 C 
BRANCH   2  13
ATOM     12  C   UNL     1      45.714 -14.998 -36.430  0.00  0.00    +0.079 C 
ATOM     13  O   UNL     1      46.916 -15.662 -36.804  0.00  0.00    -0.491 OA
ENDBRANCH   2  13
BRANCH   7  14
ATOM     14  O   UNL     1      48.157 -17.965 -35.639  0.00  0.00    -0.491 OA
ATOM     15  C   UNL     1      48.569 -19.141 -34.956  0.00  0.00    +0.079 C 
ENDBRANCH   7  14
ENDBRANCH   1  10
BRANCH   1  16
ATOM     16  C   UNL     1      42.676 -20.545 -40.291  0.00  0.00    -0.049 C 
BRANCH  16  17
ATOM     17  C   UNL     1      42.380 -21.306 -38.990  0.00  0.00    -0.039 C 
ATOM     18  C   UNL     1      42.557 -20.474 -37.717  0.00  0.00    -0.037 C 
ATOM     19  C   UNL     1      42.212 -21.312 -36.479  0.00  0.00    -0.001 C 
ATOM     20  N   UNL     1      40.846 -21.864 -36.529  0.00  0.00    -0.298 N 
ATOM     21  C   UNL     1      40.632 -22.649 -37.755  0.00  0.00    -0.001 C 
ATOM     22  C   UNL     1      40.946 -21.848 -39.019  0.00  0.00    -0.037 C 
ATOM     23  H   UNL     1      40.180 -21.092 -36.545  0.00  0.00    +0.000 HD
BRANCH  20  24
ATOM     24  C   UNL     1      40.607 -22.689 -35.326  0.00  0.00    +0.024 C 
BRANCH  24  25
ATOM     25  C   UNL     1      39.397 -22.264 -34.521  0.00  0.00    -0.033 A 
ATOM     26  C   UNL     1      39.215 -20.919 -34.171  0.00  0.00    -0.057 A 
ATOM     27  C   UNL     1      38.103 -20.524 -33.426  0.00  0.00    -0.061 A 
ATOM     28  C   UNL     1      37.154 -21.468 -33.034  0.00  0.00    -0.062 A 
ATOM     29  C   UNL     1      37.317 -22.806 -33.385  0.00  0.00    -0.061 A 
ATOM     30  C   UNL     1      38.435 -23.204 -34.121  0.00  0.00    -0.057 A 
ENDBRANCH  24  25
ENDBRANCH  20  24
ENDBRANCH  16  17
ENDBRANCH   1  16
TORSDOF 7
ENDMDL
MODEL 12
REMARK VINA RESULT:    -6.752      5.051     11.418
REMARK INTER + INTRA:         -10.103
REMARK INTER:                  -9.333
REMARK INTRA:                  -0.770
REMARK UNBOUND:                -0.587
REMARK  Name = cpd6.pdb
REMARK  9 active torsions:
REMARK  status: ('A' for Active; 'I' for Inactive)
REMARK    1  A    between atoms: C_1  and  O_2
REMARK    2  A    between atoms: O_2  and  C_3
REMARK    3  A    between atoms: C_8  and  O_9
REMARK    4  A    between atoms: O_9  and  C_10
REMARK    5  A    between atoms: C_13  and  C_14
REMARK    6  A    between atoms: C_14  and  C_15
REMARK    7  A    between atoms: C_15  and  C_16
REMARK    8  A    between atoms: N_19  and  C_20
REMARK    9  A    between atoms: C_20  and  C_21
REMARK                            x       y       z     vdW  Elec       q    Type
REMARK                         _______ _______ _______ _____ _____    ______ ____
ROOT
ATOM      1  C   UNL     1      30.925 -32.007 -31.332  0.00  0.00    -0.043 C 
ENDROOT
BRANCH   1  10
ATOM      2  C   UNL     1      27.518 -29.177 -27.187  0.00  0.00    +0.162 A 
ATOM      3  C   UNL     1      27.997 -30.447 -27.551  0.00  0.00    -0.012 A 
ATOM      4  C   UNL     1      28.680 -30.590 -28.744  0.00  0.00    -0.033 A 
ATOM      5  C   UNL     1      28.896 -29.480 -29.547  0.00  0.00    +0.025 A 
ATOM      6  C   UNL     1      28.475 -28.207 -29.205  0.00  0.00    -0.006 A 
ATOM      7  C   UNL     1      27.782 -28.042 -27.998  0.00  0.00    +0.162 A 
ATOM      8  C   UNL     1      29.586 -29.923 -30.755  0.00  0.00    +0.167 C 
ATOM      9  O   UNL     1      29.993 -29.169 -31.620  0.00  0.00    -0.292 OA
ATOM     10  C   UNL     1      29.620 -31.442 -30.767  0.00  0.00    +0.026 C 
ATOM     11  C   UNL     1      29.308 -31.825 -29.305  0.00  0.00    -0.017 C 
BRANCH   2  13
ATOM     12  C   UNL     1      27.540 -28.584 -24.889  0.00  0.00    +0.079 C 
ATOM     13  O   UNL     1      26.856 -29.181 -25.984  0.00  0.00    -0.491 OA
ENDBRANCH   2  13
BRANCH   7  14
ATOM     14  O   UNL     1      27.352 -26.825 -27.534  0.00  0.00    -0.491 OA
ATOM     15  C   UNL     1      26.342 -26.150 -28.272  0.00  0.00    +0.079 C 
ENDBRANCH   7  14
ENDBRANCH   1  10
BRANCH   1  16
ATOM     16  C   UNL     1      32.042 -32.090 -30.284  0.00  0.00    -0.049 C 
BRANCH  16  17
ATOM     17  C   UNL     1      32.833 -33.408 -30.304  0.00  0.00    -0.039 C 
ATOM     18  C   UNL     1      33.181 -33.915 -31.706  0.00  0.00    -0.037 C 
ATOM     19  C   UNL     1      33.991 -35.214 -31.618  0.00  0.00    -0.001 C 
ATOM     20  N   UNL     1      35.222 -35.063 -30.823  0.00  0.00    -0.298 N 
ATOM     21  C   UNL     1      34.928 -34.551 -29.476  0.00  0.00    -0.001 C 
ATOM     22  C   UNL     1      34.136 -33.244 -29.512  0.00  0.00    -0.037 C 
ATOM     23  H   UNL     1      35.828 -34.381 -31.279  0.00  0.00    +0.000 HD
BRANCH  20  24
ATOM     24  C   UNL     1      35.922 -36.364 -30.752  0.00  0.00    +0.024 C 
BRANCH  24  25
ATOM     25  C   UNL     1      37.431 -36.252 -30.794  0.00  0.00    -0.033 A 
ATOM     26  C   UNL     1      38.229 -37.133 -30.051  0.00  0.00    -0.057 A 
ATOM     27  C   UNL     1      39.621 -37.031 -30.086  0.00  0.00    -0.061 A 
ATOM     28  C   UNL     1      40.229 -36.055 -30.873  0.00  0.00    -0.062 A 
ATOM     29  C   UNL     1      39.449 -35.180 -31.625  0.00  0.00    -0.061 A 
ATOM     30  C   UNL     1      38.057 -35.274 -31.583  0.00  0.00    -0.057 A 
ENDBRANCH  24  25
ENDBRANCH  20  24
ENDBRANCH  16  17
ENDBRANCH   1  16
TORSDOF 7
ENDMDL
MODEL 13
REMARK VINA RESULT:    -6.750     26.503     31.883
REMARK INTER + INTRA:         -10.100
REMARK INTER:                  -9.294
REMARK INTRA:                  -0.806
REMARK UNBOUND:                -0.587
REMARK  Name = cpd6.pdb
REMARK  9 active torsions:
REMARK  status: ('A' for Active; 'I' for Inactive)
REMARK    1  A    between atoms: C_1  and  O_2
REMARK    2  A    between atoms: O_2  and  C_3
REMARK    3  A    between atoms: C_8  and  O_9
REMARK    4  A    between atoms: O_9  and  C_10
REMARK    5  A    between atoms: C_13  and  C_14
REMARK    6  A    between atoms: C_14  and  C_15
REMARK    7  A    between atoms: C_15  and  C_16
REMARK    8  A    between atoms: N_19  and  C_20
REMARK    9  A    between atoms: C_20  and  C_21
REMARK                            x       y       z     vdW  Elec       q    Type
REMARK                         _______ _______ _______ _____ _____    ______ ____
ROOT
ATOM      1  C   UNL     1      54.665 -32.371 -55.495  0.00  0.00    -0.043 C 
ENDROOT
BRANCH   1  10
ATOM      2  C   UNL     1      59.898 -29.337 -55.955  0.00  0.00    +0.162 A 
ATOM      3  C   UNL     1      59.297 -30.568 -56.265  0.00  0.00    -0.012 A 
ATOM      4  C   UNL     1      58.025 -30.833 -55.795  0.00  0.00    -0.033 A 
ATOM      5  C   UNL     1      57.359 -29.875 -55.047  0.00  0.00    +0.025 A 
ATOM      6  C   UNL     1      57.899 -28.635 -54.753  0.00  0.00    -0.006 A 
ATOM      7  C   UNL     1      59.188 -28.348 -55.223  0.00  0.00    +0.162 A 
ATOM      8  C   UNL     1      56.072 -30.432 -54.640  0.00  0.00    +0.167 C 
ATOM      9  O   UNL     1      55.218 -29.804 -54.043  0.00  0.00    -0.292 OA
ATOM     10  C   UNL     1      56.040 -31.905 -55.012  0.00  0.00    +0.026 C 
ATOM     11  C   UNL     1      57.188 -32.047 -56.036  0.00  0.00    -0.017 C 
BRANCH   2  13
ATOM     12  C   UNL     1      61.744 -30.395 -57.008  0.00  0.00    +0.079 C 
ATOM     13  O   UNL     1      61.160 -29.209 -56.480  0.00  0.00    -0.491 OA
ENDBRANCH   2  13
BRANCH   7  14
ATOM     14  O   UNL     1      59.810 -27.141 -55.031  0.00  0.00    -0.491 OA
ATOM     15  C   UNL     1      60.422 -26.900 -53.771  0.00  0.00    +0.079 C 
ENDBRANCH   7  14
ENDBRANCH   1  10
BRANCH   1  16
ATOM     16  C   UNL     1      53.932 -33.238 -54.463  0.00  0.00    -0.049 C 
BRANCH  16  17
ATOM     17  C   UNL     1      54.809 -33.705 -53.291  0.00  0.00    -0.039 C 
ATOM     18  C   UNL     1      54.462 -33.063 -51.946  0.00  0.00    -0.037 C 
ATOM     19  C   UNL     1      55.372 -33.614 -50.840  0.00  0.00    -0.001 C 
ATOM     20  N   UNL     1      55.301 -35.081 -50.725  0.00  0.00    -0.298 N 
ATOM     21  C   UNL     1      55.603 -35.733 -52.009  0.00  0.00    -0.001 C 
ATOM     22  C   UNL     1      54.708 -35.228 -53.140  0.00  0.00    -0.037 C 
ATOM     23  H   UNL     1      54.350 -35.346 -50.469  0.00  0.00    +0.000 HD
BRANCH  20  24
ATOM     24  C   UNL     1      56.233 -35.536 -49.671  0.00  0.00    +0.024 C 
BRANCH  24  25
ATOM     25  C   UNL     1      55.911 -34.997 -48.294  0.00  0.00    -0.033 A 
ATOM     26  C   UNL     1      54.980 -35.653 -47.475  0.00  0.00    -0.057 A 
ATOM     27  C   UNL     1      54.678 -35.158 -46.206  0.00  0.00    -0.061 A 
ATOM     28  C   UNL     1      55.314 -34.009 -45.736  0.00  0.00    -0.062 A 
ATOM     29  C   UNL     1      56.249 -33.354 -46.534  0.00  0.00    -0.061 A 
ATOM     30  C   UNL     1      56.543 -33.842 -47.808  0.00  0.00    -0.057 A 
ENDBRANCH  24  25
ENDBRANCH  20  24
ENDBRANCH  16  17
ENDBRANCH   1  16
TORSDOF 7
ENDMDL
MODEL 14
REMARK VINA RESULT:    -6.740     18.779     20.936
REMARK INTER + INTRA:         -10.085
REMARK INTER:                  -8.599
REMARK INTRA:                  -1.487
REMARK UNBOUND:                -0.587
REMARK  Name = cpd6.pdb
REMARK  9 active torsions:
REMARK  status: ('A' for Active; 'I' for Inactive)
REMARK    1  A    between atoms: C_1  and  O_2
REMARK    2  A    between atoms: O_2  and  C_3
REMARK    3  A    between atoms: C_8  and  O_9
REMARK    4  A    between atoms: O_9  and  C_10
REMARK    5  A    between atoms: C_13  and  C_14
REMARK    6  A    between atoms: C_14  and  C_15
REMARK    7  A    between atoms: C_15  and  C_16
REMARK    8  A    between atoms: N_19  and  C_20
REMARK    9  A    between atoms: C_20  and  C_21
REMARK                            x       y       z     vdW  Elec       q    Type
REMARK                         _______ _______ _______ _____ _____    ______ ____
ROOT
ATOM      1  C   UNL     1      46.209 -15.520 -39.283  0.00  0.00    -0.043 C 
ENDROOT
BRANCH   1  10
ATOM      2  C   UNL     1      46.001 -21.031 -41.811  0.00  0.00    +0.162 A 
ATOM      3  C   UNL     1      46.900 -20.054 -41.348  0.00  0.00    -0.012 A 
ATOM      4  C   UNL     1      46.409 -18.824 -40.953  0.00  0.00    -0.033 A 
ATOM      5  C   UNL     1      45.045 -18.584 -41.000  0.00  0.00    +0.025 A 
ATOM      6  C   UNL     1      44.124 -19.531 -41.411  0.00  0.00    -0.006 A 
ATOM      7  C   UNL     1      44.602 -20.785 -41.815  0.00  0.00    +0.162 A 
ATOM      8  C   UNL     1      44.814 -17.204 -40.582  0.00  0.00    +0.167 C 
ATOM      9  O   UNL     1      43.709 -16.714 -40.436  0.00  0.00    -0.292 OA
ATOM     10  C   UNL     1      46.156 -16.502 -40.455  0.00  0.00    +0.026 C 
ATOM     11  C   UNL     1      47.170 -17.665 -40.395  0.00  0.00    -0.017 C 
BRANCH   2  13
ATOM     12  C   UNL     1      47.316 -22.890 -41.141  0.00  0.00    +0.079 C 
ATOM     13  O   UNL     1      46.623 -22.200 -42.174  0.00  0.00    -0.491 OA
ENDBRANCH   2  13
BRANCH   7  14
ATOM     14  O   UNL     1      43.785 -21.816 -42.202  0.00  0.00    -0.491 OA
ATOM     15  C   UNL     1      42.415 -21.754 -41.834  0.00  0.00    +0.079 C 
ENDBRANCH   7  14
ENDBRANCH   1  10
BRANCH   1  16
ATOM     16  C   UNL     1      47.265 -15.897 -38.236  0.00  0.00    -0.049 C 
BRANCH  16  17
ATOM     17  C   UNL     1      46.686 -16.403 -36.905  0.00  0.00    -0.039 C 
ATOM     18  C   UNL     1      45.162 -16.538 -36.890  0.00  0.00    -0.037 C 
ATOM     19  C   UNL     1      44.687 -17.075 -35.534  0.00  0.00    -0.001 C 
ATOM     20  N   UNL     1      45.306 -18.365 -35.185  0.00  0.00    -0.298 N 
ATOM     21  C   UNL     1      46.774 -18.279 -35.216  0.00  0.00    -0.001 C 
ATOM     22  C   UNL     1      47.297 -17.765 -36.557  0.00  0.00    -0.037 C 
ATOM     23  H   UNL     1      45.031 -19.061 -35.878  0.00  0.00    +0.000 HD
BRANCH  20  24
ATOM     24  C   UNL     1      44.831 -18.792 -33.852  0.00  0.00    +0.024 C 
BRANCH  24  25
ATOM     25  C   UNL     1      43.460 -19.434 -33.866  0.00  0.00    -0.033 A 
ATOM     26  C   UNL     1      42.547 -19.179 -32.832  0.00  0.00    -0.057 A 
ATOM     27  C   UNL     1      41.283 -19.772 -32.841  0.00  0.00    -0.061 A 
ATOM     28  C   UNL     1      40.914 -20.615 -33.888  0.00  0.00    -0.062 A 
ATOM     29  C   UNL     1      41.808 -20.868 -34.926  0.00  0.00    -0.061 A 
ATOM     30  C   UNL     1      43.076 -20.285 -34.914  0.00  0.00    -0.057 A 
ENDBRANCH  24  25
ENDBRANCH  20  24
ENDBRANCH  16  17
ENDBRANCH   1  16
TORSDOF 7
ENDMDL
MODEL 15
REMARK VINA RESULT:    -6.665     25.312     28.046
REMARK INTER + INTRA:          -9.979
REMARK INTER:                  -8.616
REMARK INTRA:                  -1.363
REMARK UNBOUND:                -0.587
REMARK  Name = cpd6.pdb
REMARK  9 active torsions:
REMARK  status: ('A' for Active; 'I' for Inactive)
REMARK    1  A    between atoms: C_1  and  O_2
REMARK    2  A    between atoms: O_2  and  C_3
REMARK    3  A    between atoms: C_8  and  O_9
REMARK    4  A    between atoms: O_9  and  C_10
REMARK    5  A    between atoms: C_13  and  C_14
REMARK    6  A    between atoms: C_14  and  C_15
REMARK    7  A    between atoms: C_15  and  C_16
REMARK    8  A    between atoms: N_19  and  C_20
REMARK    9  A    between atoms: C_20  and  C_21
REMARK                            x       y       z     vdW  Elec       q    Type
REMARK                         _______ _______ _______ _____ _____    ______ ____
ROOT
ATOM      1  C   UNL     1      54.946 -32.584 -54.572  0.00  0.00    -0.043 C 
ENDROOT
BRANCH   1  10
ATOM      2  C   UNL     1      55.802 -34.796 -48.989  0.00  0.00    +0.162 A 
ATOM      3  C   UNL     1      56.280 -33.824 -49.883  0.00  0.00    -0.012 A 
ATOM      4  C   UNL     1      55.802 -33.812 -51.180  0.00  0.00    -0.033 A 
ATOM      5  C   UNL     1      54.849 -34.741 -51.567  0.00  0.00    +0.025 A 
ATOM      6  C   UNL     1      54.324 -35.689 -50.706  0.00  0.00    -0.006 A 
ATOM      7  C   UNL     1      54.796 -35.716 -49.387  0.00  0.00    +0.162 A 
ATOM      8  C   UNL     1      54.567 -34.535 -52.985  0.00  0.00    +0.167 C 
ATOM      9  O   UNL     1      53.708 -35.140 -53.601  0.00  0.00    -0.292 OA
ATOM     10  C   UNL     1      55.562 -33.530 -53.539  0.00  0.00    +0.026 C 
ATOM     11  C   UNL     1      56.137 -32.852 -52.276  0.00  0.00    -0.017 C 
BRANCH   2  13
ATOM     12  C   UNL     1      56.345 -33.405 -47.144  0.00  0.00    +0.079 C 
ATOM     13  O   UNL     1      56.364 -34.697 -47.740  0.00  0.00    -0.491 OA
ENDBRANCH   2  13
BRANCH   7  14
ATOM     14  O   UNL     1      54.322 -36.580 -48.434  0.00  0.00    -0.491 OA
ATOM     15  C   UNL     1      54.743 -37.936 -48.495  0.00  0.00    +0.079 C 
ENDBRANCH   7  14
ENDBRANCH   1  10
BRANCH   1  16
ATOM     16  C   UNL     1      54.327 -31.331 -53.939  0.00  0.00    -0.049 C 
BRANCH  16  17
ATOM     17  C   UNL     1      52.818 -31.175 -54.185  0.00  0.00    -0.039 C 
ATOM     18  C   UNL     1      52.205 -32.269 -55.063  0.00  0.00    -0.037 C 
ATOM     19  C   UNL     1      50.697 -32.041 -55.225  0.00  0.00    -0.001 C 
ATOM     20  N   UNL     1      49.989 -31.983 -53.933  0.00  0.00    -0.298 N 
ATOM     21  C   UNL     1      50.570 -30.959 -53.052  0.00  0.00    -0.001 C 
ATOM     22  C   UNL     1      52.072 -31.156 -52.845  0.00  0.00    -0.037 C 
ATOM     23  H   UNL     1      50.092 -32.881 -53.461  0.00  0.00    +0.000 HD
BRANCH  20  24
ATOM     24  C   UNL     1      48.554 -31.721 -54.172  0.00  0.00    +0.024 C 
BRANCH  24  25
ATOM     25  C   UNL     1      47.645 -32.857 -53.757  0.00  0.00    -0.033 A 
ATOM     26  C   UNL     1      46.264 -32.651 -53.628  0.00  0.00    -0.057 A 
ATOM     27  C   UNL     1      45.423 -33.696 -53.242  0.00  0.00    -0.061 A 
ATOM     28  C   UNL     1      45.952 -34.961 -52.993  0.00  0.00    -0.062 A 
ATOM     29  C   UNL     1      47.321 -35.183 -53.129  0.00  0.00    -0.061 A 
ATOM     30  C   UNL     1      48.164 -34.137 -53.503  0.00  0.00    -0.057 A 
ENDBRANCH  24  25
ENDBRANCH  20  24
ENDBRANCH  16  17
ENDBRANCH   1  16
TORSDOF 7
ENDMDL
MODEL 16
REMARK VINA RESULT:    -6.644     16.718     19.359
REMARK INTER + INTRA:          -9.950
REMARK INTER:                  -8.691
REMARK INTRA:                  -1.259
REMARK UNBOUND:                -0.587
REMARK  Name = cpd6.pdb
REMARK  9 active torsions:
REMARK  status: ('A' for Active; 'I' for Inactive)
REMARK    1  A    between atoms: C_1  and  O_2
REMARK    2  A    between atoms: O_2  and  C_3
REMARK    3  A    between atoms: C_8  and  O_9
REMARK    4  A    between atoms: O_9  and  C_10
REMARK    5  A    between atoms: C_13  and  C_14
REMARK    6  A    between atoms: C_14  and  C_15
REMARK    7  A    between atoms: C_15  and  C_16
REMARK    8  A    between atoms: N_19  and  C_20
REMARK    9  A    between atoms: C_20  and  C_21
REMARK                            x       y       z     vdW  Elec       q    Type
REMARK                         _______ _______ _______ _____ _____    ______ ____
ROOT
ATOM      1  C   UNL     1      43.824 -16.915 -34.413  0.00  0.00    -0.043 C 
ENDROOT
BRANCH   1  10
ATOM      2  C   UNL     1      40.608 -21.813 -35.986  0.00  0.00    +0.162 A 
ATOM      3  C   UNL     1      41.092 -20.594 -36.489  0.00  0.00    -0.012 A 
ATOM      4  C   UNL     1      41.706 -19.707 -35.625  0.00  0.00    -0.033 A 
ATOM      5  C   UNL     1      41.851 -20.043 -34.288  0.00  0.00    +0.025 A 
ATOM      6  C   UNL     1      41.424 -21.250 -33.761  0.00  0.00    -0.006 A 
ATOM      7  C   UNL     1      40.800 -22.162 -34.622  0.00  0.00    +0.162 A 
ATOM      8  C   UNL     1      42.477 -18.916 -33.604  0.00  0.00    +0.167 C 
ATOM      9  O   UNL     1      42.817 -18.934 -32.434  0.00  0.00    -0.292 OA
ATOM     10  C   UNL     1      42.542 -17.739 -34.563  0.00  0.00    +0.026 C 
ATOM     11  C   UNL     1      42.325 -18.386 -35.948  0.00  0.00    -0.017 C 
BRANCH   2  13
ATOM     12  C   UNL     1      39.701 -21.945 -38.176  0.00  0.00    +0.079 C 
ATOM     13  O   UNL     1      40.018 -22.593 -36.949  0.00  0.00    -0.491 OA
ENDBRANCH   2  13
BRANCH   7  14
ATOM     14  O   UNL     1      40.373 -23.403 -34.226  0.00  0.00    -0.491 OA
ATOM     15  C   UNL     1      39.212 -23.479 -33.410  0.00  0.00    +0.079 C 
ENDBRANCH   7  14
ENDBRANCH   1  10
BRANCH   1  16
ATOM     16  C   UNL     1      44.995 -17.731 -33.851  0.00  0.00    -0.049 C 
BRANCH  16  17
ATOM     17  C   UNL     1      45.898 -18.364 -34.921  0.00  0.00    -0.039 C 
ATOM     18  C   UNL     1      45.546 -19.812 -35.269  0.00  0.00    -0.037 C 
ATOM     19  C   UNL     1      46.483 -20.342 -36.363  0.00  0.00    -0.001 C 
ATOM     20  N   UNL     1      46.458 -19.514 -37.582  0.00  0.00    -0.298 N 
ATOM     21  C   UNL     1      46.767 -18.108 -37.279  0.00  0.00    -0.001 C 
ATOM     22  C   UNL     1      45.845 -17.530 -36.206  0.00  0.00    -0.037 C 
ATOM     23  H   UNL     1      45.518 -19.539 -37.977  0.00  0.00    +0.000 HD
BRANCH  20  24
ATOM     24  C   UNL     1      47.414 -20.064 -38.566  0.00  0.00    +0.024 C 
BRANCH  24  25
ATOM     25  C   UNL     1      46.760 -20.835 -39.693  0.00  0.00    -0.033 A 
ATOM     26  C   UNL     1      47.325 -22.032 -40.156  0.00  0.00    -0.057 A 
ATOM     27  C   UNL     1      46.725 -22.743 -41.197  0.00  0.00    -0.061 A 
ATOM     28  C   UNL     1      45.548 -22.272 -41.777  0.00  0.00    -0.062 A 
ATOM     29  C   UNL     1      44.970 -21.091 -41.319  0.00  0.00    -0.061 A 
ATOM     30  C   UNL     1      45.574 -20.372 -40.286  0.00  0.00    -0.057 A 
ENDBRANCH  24  25
ENDBRANCH  20  24
ENDBRANCH  16  17
ENDBRANCH   1  16
TORSDOF 7
ENDMDL
MODEL 17
REMARK VINA RESULT:    -6.636     16.136     19.417
REMARK INTER + INTRA:          -9.940
REMARK INTER:                  -9.227
REMARK INTRA:                  -0.712
REMARK UNBOUND:                -0.587
REMARK  Name = cpd6.pdb
REMARK  9 active torsions:
REMARK  status: ('A' for Active; 'I' for Inactive)
REMARK    1  A    between atoms: C_1  and  O_2
REMARK    2  A    between atoms: O_2  and  C_3
REMARK    3  A    between atoms: C_8  and  O_9
REMARK    4  A    between atoms: O_9  and  C_10
REMARK    5  A    between atoms: C_13  and  C_14
REMARK    6  A    between atoms: C_14  and  C_15
REMARK    7  A    between atoms: C_15  and  C_16
REMARK    8  A    between atoms: N_19  and  C_20
REMARK    9  A    between atoms: C_20  and  C_21
REMARK                            x       y       z     vdW  Elec       q    Type
REMARK                         _______ _______ _______ _____ _____    ______ ____
ROOT
ATOM      1  C   UNL     1      43.528 -18.775 -33.407  0.00  0.00    -0.043 C 
ENDROOT
BRANCH   1  10
ATOM      2  C   UNL     1      38.281 -21.804 -33.108  0.00  0.00    +0.162 A 
ATOM      3  C   UNL     1      39.649 -21.977 -33.379  0.00  0.00    -0.012 A 
ATOM      4  C   UNL     1      40.465 -20.864 -33.448  0.00  0.00    -0.033 A 
ATOM      5  C   UNL     1      39.927 -19.605 -33.228  0.00  0.00    +0.025 A 
ATOM      6  C   UNL     1      38.594 -19.396 -32.920  0.00  0.00    -0.006 A 
ATOM      7  C   UNL     1      37.750 -20.513 -32.845  0.00  0.00    +0.162 A 
ATOM      8  C   UNL     1      40.989 -18.621 -33.412  0.00  0.00    +0.167 C 
ATOM      9  O   UNL     1      40.853 -17.429 -33.206  0.00  0.00    -0.292 OA
ATOM     10  C   UNL     1      42.215 -19.325 -33.969  0.00  0.00    +0.026 C 
ATOM     11  C   UNL     1      41.941 -20.817 -33.679  0.00  0.00    -0.017 C 
BRANCH   2  13
ATOM     12  C   UNL     1      38.350 -24.169 -33.306  0.00  0.00    +0.079 C 
ATOM     13  O   UNL     1      37.589 -22.990 -33.074  0.00  0.00    -0.491 OA
ENDBRANCH   2  13
BRANCH   7  14
ATOM     14  O   UNL     1      36.424 -20.436 -32.508  0.00  0.00    -0.491 OA
ATOM     15  C   UNL     1      35.732 -19.229 -32.796  0.00  0.00    +0.079 C 
ENDBRANCH   7  14
ENDBRANCH   1  10
BRANCH   1  16
ATOM     16  C   UNL     1      44.754 -19.579 -33.860  0.00  0.00    -0.049 C 
BRANCH  16  17
ATOM     17  C   UNL     1      45.244 -19.244 -35.278  0.00  0.00    -0.039 C 
ATOM     18  C   UNL     1      46.740 -19.475 -35.500  0.00  0.00    -0.037 C 
ATOM     19  C   UNL     1      47.122 -19.140 -36.948  0.00  0.00    -0.001 C 
ATOM     20  N   UNL     1      46.346 -19.912 -37.934  0.00  0.00    -0.298 N 
ATOM     21  C   UNL     1      44.900 -19.734 -37.732  0.00  0.00    -0.001 C 
ATOM     22  C   UNL     1      44.467 -20.075 -36.306  0.00  0.00    -0.037 C 
ATOM     23  H   UNL     1      46.548 -20.904 -37.809  0.00  0.00    +0.000 HD
BRANCH  20  24
ATOM     24  C   UNL     1      46.742 -19.503 -39.298  0.00  0.00    +0.024 C 
BRANCH  24  25
ATOM     25  C   UNL     1      47.218 -20.647 -40.168  0.00  0.00    -0.033 A 
ATOM     26  C   UNL     1      47.379 -21.931 -39.627  0.00  0.00    -0.057 A 
ATOM     27  C   UNL     1      47.821 -22.987 -40.426  0.00  0.00    -0.061 A 
ATOM     28  C   UNL     1      48.094 -22.774 -41.776  0.00  0.00    -0.062 A 
ATOM     29  C   UNL     1      47.927 -21.506 -42.329  0.00  0.00    -0.061 A 
ATOM     30  C   UNL     1      47.497 -20.447 -41.529  0.00  0.00    -0.057 A 
ENDBRANCH  24  25
ENDBRANCH  20  24
ENDBRANCH  16  17
ENDBRANCH   1  16
TORSDOF 7
ENDMDL
MODEL 18
REMARK VINA RESULT:    -6.503     22.678     25.338
REMARK INTER + INTRA:          -9.751
REMARK INTER:                  -8.501
REMARK INTRA:                  -1.250
REMARK UNBOUND:                -0.587
REMARK  Name = cpd6.pdb
REMARK  9 active torsions:
REMARK  status: ('A' for Active; 'I' for Inactive)
REMARK    1  A    between atoms: C_1  and  O_2
REMARK    2  A    between atoms: O_2  and  C_3
REMARK    3  A    between atoms: C_8  and  O_9
REMARK    4  A    between atoms: O_9  and  C_10
REMARK    5  A    between atoms: C_13  and  C_14
REMARK    6  A    between atoms: C_14  and  C_15
REMARK    7  A    between atoms: C_15  and  C_16
REMARK    8  A    between atoms: N_19  and  C_20
REMARK    9  A    between atoms: C_20  and  C_21
REMARK                            x       y       z     vdW  Elec       q    Type
REMARK                         _______ _______ _______ _____ _____    ______ ____
ROOT
ATOM      1  C   UNL     1      47.224 -13.869 -38.131  0.00  0.00    -0.043 C 
ENDROOT
BRANCH   1  10
ATOM      2  C   UNL     1      50.028 -14.034 -43.508  0.00  0.00    +0.162 A 
ATOM      3  C   UNL     1      50.257 -14.194 -42.131  0.00  0.00    -0.012 A 
ATOM      4  C   UNL     1      49.240 -13.899 -41.243  0.00  0.00    -0.033 A 
ATOM      5  C   UNL     1      48.012 -13.473 -41.724  0.00  0.00    +0.025 A 
ATOM      6  C   UNL     1      47.734 -13.341 -43.074  0.00  0.00    -0.006 A 
ATOM      7  C   UNL     1      48.753 -13.636 -43.990  0.00  0.00    +0.162 A 
ATOM      8  C   UNL     1      47.152 -13.186 -40.581  0.00  0.00    +0.167 C 
ATOM      9  O   UNL     1      45.979 -12.872 -40.674  0.00  0.00    -0.292 OA
ATOM     10  C   UNL     1      47.986 -13.264 -39.313  0.00  0.00    +0.026 C 
ATOM     11  C   UNL     1      49.249 -14.035 -39.754  0.00  0.00    -0.017 C 
BRANCH   2  13
ATOM     12  C   UNL     1      52.076 -15.225 -43.671  0.00  0.00    +0.079 C 
ATOM     13  O   UNL     1      51.122 -14.357 -44.273  0.00  0.00    -0.491 OA
ENDBRANCH   2  13
BRANCH   7  14
ATOM     14  O   UNL     1      48.584 -13.582 -45.350  0.00  0.00    -0.491 OA
ATOM     15  C   UNL     1      47.824 -12.508 -45.885  0.00  0.00    +0.079 C 
ENDBRANCH   7  14
ENDBRANCH   1  10
BRANCH   1  16
ATOM     16  C   UNL     1      47.793 -15.222 -37.684  0.00  0.00    -0.049 C 
BRANCH  16  17
ATOM     17  C   UNL     1      46.933 -16.433 -38.077  0.00  0.00    -0.039 C 
ATOM     18  C   UNL     1      47.142 -16.917 -39.514  0.00  0.00    -0.037 C 
ATOM     19  C   UNL     1      46.262 -18.141 -39.799  0.00  0.00    -0.001 C 
ATOM     20  N   UNL     1      46.509 -19.248 -38.858  0.00  0.00    -0.298 N 
ATOM     21  C   UNL     1      46.342 -18.811 -37.463  0.00  0.00    -0.001 C 
ATOM     22  C   UNL     1      47.215 -17.602 -37.127  0.00  0.00    -0.037 C 
ATOM     23  H   UNL     1      47.474 -19.561 -38.963  0.00  0.00    +0.000 HD
BRANCH  20  24
ATOM     24  C   UNL     1      45.597 -20.369 -39.172  0.00  0.00    +0.024 C 
BRANCH  24  25
ATOM     25  C   UNL     1      46.167 -21.365 -40.159  0.00  0.00    -0.033 A 
ATOM     26  C   UNL     1      45.485 -21.653 -41.350  0.00  0.00    -0.057 A 
ATOM     27  C   UNL     1      46.006 -22.573 -42.261  0.00  0.00    -0.061 A 
ATOM     28  C   UNL     1      47.219 -23.206 -41.997  0.00  0.00    -0.062 A 
ATOM     29  C   UNL     1      47.913 -22.922 -40.823  0.00  0.00    -0.061 A 
ATOM     30  C   UNL     1      47.388 -22.010 -39.906  0.00  0.00    -0.057 A 
ENDBRANCH  24  25
ENDBRANCH  20  24
ENDBRANCH  16  17
ENDBRANCH   1  16
TORSDOF 7
ENDMDL
MODEL 19
REMARK VINA RESULT:    -6.476     18.403     20.319
REMARK INTER + INTRA:          -9.714
REMARK INTER:                  -8.758
REMARK INTRA:                  -0.955
REMARK UNBOUND:                -0.587
REMARK  Name = cpd6.pdb
REMARK  9 active torsions:
REMARK  status: ('A' for Active; 'I' for Inactive)
REMARK    1  A    between atoms: C_1  and  O_2
REMARK    2  A    between atoms: O_2  and  C_3
REMARK    3  A    between atoms: C_8  and  O_9
REMARK    4  A    between atoms: O_9  and  C_10
REMARK    5  A    between atoms: C_13  and  C_14
REMARK    6  A    between atoms: C_14  and  C_15
REMARK    7  A    between atoms: C_15  and  C_16
REMARK    8  A    between atoms: N_19  and  C_20
REMARK    9  A    between atoms: C_20  and  C_21
REMARK                            x       y       z     vdW  Elec       q    Type
REMARK                         _______ _______ _______ _____ _____    ______ ____
ROOT
ATOM      1  C   UNL     1      44.471 -20.878 -41.375  0.00  0.00    -0.043 C 
ENDROOT
BRANCH   1  10
ATOM      2  C   UNL     1      45.864 -14.999 -40.832  0.00  0.00    +0.162 A 
ATOM      3  C   UNL     1      44.818 -15.863 -41.196  0.00  0.00    -0.012 A 
ATOM      4  C   UNL     1      45.067 -17.219 -41.282  0.00  0.00    -0.033 A 
ATOM      5  C   UNL     1      46.332 -17.703 -40.989  0.00  0.00    +0.025 A 
ATOM      6  C   UNL     1      47.378 -16.890 -40.589  0.00  0.00    -0.006 A 
ATOM      7  C   UNL     1      47.144 -15.512 -40.495  0.00  0.00    +0.162 A 
ATOM      8  C   UNL     1      46.327 -19.146 -41.211  0.00  0.00    +0.167 C 
ATOM      9  O   UNL     1      47.269 -19.876 -40.959  0.00  0.00    -0.292 OA
ATOM     10  C   UNL     1      45.013 -19.534 -41.868  0.00  0.00    +0.026 C 
ATOM     11  C   UNL     1      44.102 -18.314 -41.607  0.00  0.00    -0.017 C 
BRANCH   2  13
ATOM     12  C   UNL     1      44.147 -13.402 -41.206  0.00  0.00    +0.079 C 
ATOM     13  O   UNL     1      45.479 -13.681 -40.790  0.00  0.00    -0.491 OA
ENDBRANCH   2  13
BRANCH   7  14
ATOM     14  O   UNL     1      48.089 -14.613 -40.070  0.00  0.00    -0.491 OA
ATOM     15  C   UNL     1      48.273 -14.452 -38.670  0.00  0.00    +0.079 C 
ENDBRANCH   7  14
ENDBRANCH   1  10
BRANCH   1  16
ATOM     16  C   UNL     1      44.308 -20.933 -39.850  0.00  0.00    -0.049 C 
BRANCH  16  17
ATOM     17  C   UNL     1      42.853 -20.840 -39.365  0.00  0.00    -0.039 C 
ATOM     18  C   UNL     1      41.946 -21.966 -39.867  0.00  0.00    -0.037 C 
ATOM     19  C   UNL     1      40.528 -21.800 -39.307  0.00  0.00    -0.001 C 
ATOM     20  N   UNL     1      40.500 -21.756 -37.835  0.00  0.00    -0.298 N 
ATOM     21  C   UNL     1      41.383 -20.700 -37.315  0.00  0.00    -0.001 C 
ATOM     22  C   UNL     1      42.815 -20.835 -37.832  0.00  0.00    -0.037 C 
ATOM     23  H   UNL     1      40.846 -22.644 -37.472  0.00  0.00    +0.000 HD
BRANCH  20  24
ATOM     24  C   UNL     1      39.109 -21.553 -37.377  0.00  0.00    +0.024 C 
BRANCH  24  25
ATOM     25  C   UNL     1      38.913 -21.774 -35.892  0.00  0.00    -0.033 A 
ATOM     26  C   UNL     1      39.252 -23.002 -35.307  0.00  0.00    -0.057 A 
ATOM     27  C   UNL     1      39.069 -23.210 -33.938  0.00  0.00    -0.061 A 
ATOM     28  C   UNL     1      38.558 -22.188 -33.139  0.00  0.00    -0.062 A 
ATOM     29  C   UNL     1      38.228 -20.959 -33.706  0.00  0.00    -0.061 A 
ATOM     30  C   UNL     1      38.400 -20.754 -35.076  0.00  0.00    -0.057 A 
ENDBRANCH  24  25
ENDBRANCH  20  24
ENDBRANCH  16  17
ENDBRANCH   1  16
TORSDOF 7
ENDMDL
MODEL 20
REMARK VINA RESULT:    -6.447     17.482     19.980
REMARK INTER + INTRA:          -9.672
REMARK INTER:                  -8.064
REMARK INTRA:                  -1.608
REMARK UNBOUND:                -0.587
REMARK  Name = cpd6.pdb
REMARK  9 active torsions:
REMARK  status: ('A' for Active; 'I' for Inactive)
REMARK    1  A    between atoms: C_1  and  O_2
REMARK    2  A    between atoms: O_2  and  C_3
REMARK    3  A    between atoms: C_8  and  O_9
REMARK    4  A    between atoms: O_9  and  C_10
REMARK    5  A    between atoms: C_13  and  C_14
REMARK    6  A    between atoms: C_14  and  C_15
REMARK    7  A    between atoms: C_15  and  C_16
REMARK    8  A    between atoms: N_19  and  C_20
REMARK    9  A    between atoms: C_20  and  C_21
REMARK                            x       y       z     vdW  Elec       q    Type
REMARK                         _______ _______ _______ _____ _____    ______ ____
ROOT
ATOM      1  C   UNL     1      45.258 -17.098 -33.333  0.00  0.00    -0.043 C 
ENDROOT
BRANCH   1  10
ATOM      2  C   UNL     1      40.114 -20.311 -33.212  0.00  0.00    +0.162 A 
ATOM      3  C   UNL     1      40.683 -19.110 -32.759  0.00  0.00    -0.012 A 
ATOM      4  C   UNL     1      42.033 -18.888 -32.959  0.00  0.00    -0.033 A 
ATOM      5  C   UNL     1      42.793 -19.842 -33.619  0.00  0.00    +0.025 A 
ATOM      6  C   UNL     1      42.262 -21.020 -34.115  0.00  0.00    -0.006 A 
ATOM      7  C   UNL     1      40.895 -21.262 -33.923  0.00  0.00    +0.162 A 
ATOM      8  C   UNL     1      44.177 -19.379 -33.644  0.00  0.00    +0.167 C 
ATOM      9  O   UNL     1      45.076 -19.956 -34.228  0.00  0.00    -0.292 OA
ATOM     10  C   UNL     1      44.293 -18.143 -32.768  0.00  0.00    +0.026 C 
ATOM     11  C   UNL     1      42.831 -17.676 -32.601  0.00  0.00    -0.017 C 
BRANCH   2  13
ATOM     12  C   UNL     1      37.929 -19.482 -33.630  0.00  0.00    +0.079 C 
ATOM     13  O   UNL     1      38.770 -20.402 -32.944  0.00  0.00    -0.491 OA
ENDBRANCH   2  13
BRANCH   7  14
ATOM     14  O   UNL     1      40.249 -22.371 -34.404  0.00  0.00    -0.491 OA
ATOM     15  C   UNL     1      39.724 -22.316 -35.723  0.00  0.00    +0.079 C 
ENDBRANCH   7  14
ENDBRANCH   1  10
BRANCH   1  16
ATOM     16  C   UNL     1      44.598 -16.175 -34.367  0.00  0.00    -0.049 C 
BRANCH  16  17
ATOM     17  C   UNL     1      45.084 -16.390 -35.809  0.00  0.00    -0.039 C 
ATOM     18  C   UNL     1      46.452 -17.068 -35.921  0.00  0.00    -0.037 C 
ATOM     19  C   UNL     1      46.833 -17.263 -37.394  0.00  0.00    -0.001 C 
ATOM     20  N   UNL     1      45.828 -18.038 -38.143  0.00  0.00    -0.298 N 
ATOM     21  C   UNL     1      44.494 -17.428 -38.036  0.00  0.00    -0.001 C 
ATOM     22  C   UNL     1      44.062 -17.231 -36.583  0.00  0.00    -0.037 C 
ATOM     23  H   UNL     1      45.766 -18.973 -37.740  0.00  0.00    +0.000 HD
BRANCH  20  24
ATOM     24  C   UNL     1      46.247 -18.145 -39.557  0.00  0.00    +0.024 C 
BRANCH  24  25
ATOM     25  C   UNL     1      45.978 -19.500 -40.176  0.00  0.00    -0.033 A 
ATOM     26  C   UNL     1      45.377 -19.596 -41.440  0.00  0.00    -0.057 A 
ATOM     27  C   UNL     1      45.125 -20.844 -42.012  0.00  0.00    -0.061 A 
ATOM     28  C   UNL     1      45.482 -22.008 -41.332  0.00  0.00    -0.062 A 
ATOM     29  C   UNL     1      46.089 -21.927 -40.082  0.00  0.00    -0.061 A 
ATOM     30  C   UNL     1      46.332 -20.680 -39.503  0.00  0.00    -0.057 A 
ENDBRANCH  24  25
ENDBRANCH  20  24
ENDBRANCH  16  17
ENDBRANCH   1  16
TORSDOF 7
ENDMDL
