REMARK  Name = cpd132.pdb
REMARK  5 active torsions:
REMARK  status: ('A' for Active; 'I' for Inactive)
REMARK    1  A    between atoms: C_2  and  C_3
REMARK    2  A    between atoms: C_2  and  C_19
REMARK    3  A    between atoms: C_4  and  C_5
REMARK    4  A    between atoms: N_9  and  C_10
REMARK    5  A    between atoms: C_10  and  C_11
REMARK                            x       y       z     vdW  Elec       q    Type
REMARK                         _______ _______ _______ _____ _____    ______ ____
ROOT
ATOM      1  C   UNL A   1      -3.358  -0.075   0.704  0.00  0.00    -0.009 A 
ATOM      2  C   UNL A   1      -4.567   0.590   0.906  0.00  0.00    -0.052 A 
ATOM      3  C   UNL A   1      -5.698  -0.127   1.283  0.00  0.00    -0.045 A 
ATOM      4  C   UNL A   1      -5.612  -1.503   1.441  0.00  0.00    +0.005 A 
ATOM      5  N   UNL A   1      -4.444  -2.150   1.219  0.00  0.00    -0.348 N 
ATOM      6  C   UNL A   1      -3.332  -1.463   0.859  0.00  0.00    +0.012 A 
ENDROOT
BRANCH   1   8
ATOM      7  C   UNL A   1      -1.785   1.843   0.724  0.00  0.00    -0.011 C 
ATOM      8  C   UNL A   1      -2.133   0.622   0.287  0.00  0.00    -0.049 C 
BRANCH   7  10
ATOM      9  O   UNL A   1      -0.651   3.824   0.320  0.00  0.00    -0.284 OA
ATOM     10  C   UNL A   1      -0.560   2.596   0.308  0.00  0.00    +0.221 C 
BRANCH  10  11
ATOM     11  C   UNL A   1       0.658   1.907  -0.063  0.00  0.00    +0.176 A 
ATOM     12  C   UNL A   1       1.821   2.403  -0.625  0.00  0.00    -0.005 A 
ATOM     13  C   UNL A   1       2.724   1.317  -0.748  0.00  0.00    +0.021 A 
ATOM     14  C   UNL A   1       4.034   1.148  -1.227  0.00  0.00    -0.051 A 
ATOM     15  C   UNL A   1       4.612  -0.128  -1.167  0.00  0.00    -0.061 A 
ATOM     16  C   UNL A   1       3.907  -1.215  -0.643  0.00  0.00    -0.058 A 
ATOM     17  C   UNL A   1       2.602  -1.066  -0.161  0.00  0.00    -0.019 A 
ATOM     18  C   UNL A   1       2.055   0.213  -0.236  0.00  0.00    +0.136 A 
ATOM     19  O   UNL A   1       0.806   0.565   0.180  0.00  0.00    -0.452 OA
ENDBRANCH  10  11
ENDBRANCH   7  10
ENDBRANCH   1   8
BRANCH   5  20
ATOM     20  C   UNL A   1      -4.377  -3.626   1.395  0.00  0.00    +0.049 C 
BRANCH  20  21
ATOM     21  C   UNL A   1      -5.123  -4.340   0.296  0.00  0.00    -0.014 A 
ATOM     22  C   UNL A   1      -4.600  -4.296  -1.013  0.00  0.00    -0.056 A 
ATOM     23  C   UNL A   1      -5.255  -4.930  -2.070  0.00  0.00    -0.061 A 
ATOM     24  C   UNL A   1      -6.440  -5.621  -1.842  0.00  0.00    -0.061 A 
ATOM     25  C   UNL A   1      -6.971  -5.683  -0.556  0.00  0.00    -0.047 A 
ATOM     26  C   UNL A   1      -6.319  -5.049   0.507  0.00  0.00    +0.023 A 
ATOM     27 BR   UNL A   1      -7.135  -5.197   2.216  0.00  0.00    -0.050 Br
ENDBRANCH  20  21
ENDBRANCH   5  20
TORSDOF 5
