MODEL 1
REMARK VINA RESULT:   -11.214      0.000      0.000
REMARK INTER + INTRA:         -15.392
REMARK INTER:                 -14.492
REMARK INTRA:                  -0.901
REMARK UNBOUND:                -0.901
REMARK  Name = cpd132.pdb
REMARK  5 active torsions:
REMARK  status: ('A' for Active; 'I' for Inactive)
REMARK    1  A    between atoms: C_2  and  C_3
REMARK    2  A    between atoms: C_2  and  C_19
REMARK    3  A    between atoms: C_4  and  C_5
REMARK    4  A    between atoms: N_9  and  C_10
REMARK    5  A    between atoms: C_10  and  C_11
REMARK                            x       y       z     vdW  Elec       q    Type
REMARK                         _______ _______ _______ _____ _____    ______ ____
ROOT
ATOM      1  C   UNL A   1      45.143 -36.230 -30.446  0.00  0.00    -0.009 A 
ATOM      2  C   UNL A   1      46.114 -35.258 -30.689  0.00  0.00    -0.052 A 
ATOM      3  C   UNL A   1      47.441 -35.507 -30.354  0.00  0.00    -0.045 A 
ATOM      4  C   UNL A   1      47.782 -36.717 -29.768  0.00  0.00    +0.005 A 
ATOM      5  N   UNL A   1      46.834 -37.648 -29.509  0.00  0.00    -0.348 N 
ATOM      6  C   UNL A   1      45.538 -37.423 -29.838  0.00  0.00    +0.012 A 
ENDROOT
BRANCH   1   8
ATOM      7  C   UNL A   1      43.007 -36.835 -31.553  0.00  0.00    -0.011 C 
ATOM      8  C   UNL A   1      43.722 -36.022 -30.760  0.00  0.00    -0.049 C 
BRANCH   7  10
ATOM      9  O   UNL A   1      41.345 -36.245 -33.058  0.00  0.00    -0.284 OA
ATOM     10  C   UNL A   1      41.567 -36.648 -31.915  0.00  0.00    +0.221 C 
BRANCH  10  11
ATOM     11  C   UNL A   1      40.509 -36.946 -30.973  0.00  0.00    +0.176 A 
ATOM     12  C   UNL A   1      40.507 -37.796 -29.882  0.00  0.00    -0.005 A 
ATOM     13  C   UNL A   1      39.233 -37.690 -29.269  0.00  0.00    +0.021 A 
ATOM     14  C   UNL A   1      38.601 -38.270 -28.156  0.00  0.00    -0.051 A 
ATOM     15  C   UNL A   1      37.288 -37.885 -27.853  0.00  0.00    -0.061 A 
ATOM     16  C   UNL A   1      36.613 -36.945 -28.636  0.00  0.00    -0.058 A 
ATOM     17  C   UNL A   1      37.226 -36.356 -29.748  0.00  0.00    -0.019 A 
ATOM     18  C   UNL A   1      38.530 -36.761 -30.024  0.00  0.00    +0.136 A 
ATOM     19  O   UNL A   1      39.297 -36.307 -31.055  0.00  0.00    -0.452 OA
ENDBRANCH  10  11
ENDBRANCH   7  10
ENDBRANCH   1   8
BRANCH   5  20
ATOM     20  C   UNL A   1      47.224 -38.939 -28.880  0.00  0.00    +0.049 C 
BRANCH  20  21
ATOM     21  C   UNL A   1      47.273 -40.049 -29.900  0.00  0.00    -0.014 A 
ATOM     22  C   UNL A   1      48.430 -40.186 -30.694  0.00  0.00    -0.056 A 
ATOM     23  C   UNL A   1      48.524 -41.189 -31.660  0.00  0.00    -0.061 A 
ATOM     24  C   UNL A   1      47.469 -42.075 -31.850  0.00  0.00    -0.061 A 
ATOM     25  C   UNL A   1      46.319 -41.962 -31.073  0.00  0.00    -0.047 A 
ATOM     26  C   UNL A   1      46.220 -40.959 -30.103  0.00  0.00    +0.023 A 
ATOM     27 BR   UNL A   1      44.605 -40.898 -29.104  0.00  0.00    -0.050 Br
ENDBRANCH  20  21
ENDBRANCH   5  20
TORSDOF 5
ENDMDL
MODEL 2
REMARK VINA RESULT:   -10.629      1.339      1.990
REMARK INTER + INTRA:         -14.636
REMARK INTER:                 -14.315
REMARK INTRA:                  -0.320
REMARK UNBOUND:                -0.901
REMARK  Name = cpd132.pdb
REMARK  5 active torsions:
REMARK  status: ('A' for Active; 'I' for Inactive)
REMARK    1  A    between atoms: C_2  and  C_3
REMARK    2  A    between atoms: C_2  and  C_19
REMARK    3  A    between atoms: C_4  and  C_5
REMARK    4  A    between atoms: N_9  and  C_10
REMARK    5  A    between atoms: C_10  and  C_11
REMARK                            x       y       z     vdW  Elec       q    Type
REMARK                         _______ _______ _______ _____ _____    ______ ____
ROOT
ATOM      1  C   UNL A   1      44.168 -36.831 -30.462  0.00  0.00    -0.009 A 
ATOM      2  C   UNL A   1      45.027 -35.734 -30.527  0.00  0.00    -0.052 A 
ATOM      3  C   UNL A   1      46.334 -35.850 -30.067  0.00  0.00    -0.045 A 
ATOM      4  C   UNL A   1      46.766 -37.057 -29.535  0.00  0.00    +0.005 A 
ATOM      5  N   UNL A   1      45.923 -38.113 -29.449  0.00  0.00    -0.348 N 
ATOM      6  C   UNL A   1      44.648 -38.016 -29.901  0.00  0.00    +0.012 A 
ENDROOT
BRANCH   1   8
ATOM      7  C   UNL A   1      42.390 -36.234 -32.086  0.00  0.00    -0.011 C 
ATOM      8  C   UNL A   1      42.770 -36.768 -30.914  0.00  0.00    -0.049 C 
BRANCH   7  10
ATOM      9  O   UNL A   1      40.836 -35.936 -33.780  0.00  0.00    -0.284 OA
ATOM     10  C   UNL A   1      40.978 -36.130 -32.573  0.00  0.00    +0.221 C 
BRANCH  10  11
ATOM     11  C   UNL A   1      39.857 -36.272 -31.668  0.00  0.00    +0.176 A 
ATOM     12  C   UNL A   1      38.615 -35.662 -31.692  0.00  0.00    -0.005 A 
ATOM     13  C   UNL A   1      37.871 -36.181 -30.603  0.00  0.00    +0.021 A 
ATOM     14  C   UNL A   1      36.581 -35.984 -30.082  0.00  0.00    -0.051 A 
ATOM     15  C   UNL A   1      36.192 -36.722 -28.955  0.00  0.00    -0.061 A 
ATOM     16  C   UNL A   1      37.062 -37.637 -28.356  0.00  0.00    -0.058 A 
ATOM     17  C   UNL A   1      38.350 -37.847 -28.861  0.00  0.00    -0.019 A 
ATOM     18  C   UNL A   1      38.707 -37.098 -29.980  0.00  0.00    +0.136 A 
ATOM     19  O   UNL A   1      39.909 -37.157 -30.621  0.00  0.00    -0.452 OA
ENDBRANCH  10  11
ENDBRANCH   7  10
ENDBRANCH   1   8
BRANCH   5  20
ATOM     20  C   UNL A   1      46.410 -39.396 -28.875  0.00  0.00    +0.049 C 
BRANCH  20  21
ATOM     21  C   UNL A   1      46.642 -40.423 -29.955  0.00  0.00    -0.014 A 
ATOM     22  C   UNL A   1      45.599 -41.318 -30.270  0.00  0.00    -0.056 A 
ATOM     23  C   UNL A   1      45.763 -42.295 -31.253  0.00  0.00    -0.061 A 
ATOM     24  C   UNL A   1      46.967 -42.396 -31.942  0.00  0.00    -0.061 A 
ATOM     25  C   UNL A   1      48.008 -41.517 -31.653  0.00  0.00    -0.047 A 
ATOM     26  C   UNL A   1      47.849 -40.537 -30.668  0.00  0.00    +0.023 A 
ATOM     27 BR   UNL A   1      49.336 -39.396 -30.354  0.00  0.00    -0.050 Br
ENDBRANCH  20  21
ENDBRANCH   5  20
TORSDOF 5
ENDMDL
MODEL 3
REMARK VINA RESULT:    -9.545      2.517      4.608
REMARK INTER + INTRA:         -13.236
REMARK INTER:                 -12.863
REMARK INTRA:                  -0.373
REMARK UNBOUND:                -0.901
REMARK  Name = cpd132.pdb
REMARK  5 active torsions:
REMARK  status: ('A' for Active; 'I' for Inactive)
REMARK    1  A    between atoms: C_2  and  C_3
REMARK    2  A    between atoms: C_2  and  C_19
REMARK    3  A    between atoms: C_4  and  C_5
REMARK    4  A    between atoms: N_9  and  C_10
REMARK    5  A    between atoms: C_10  and  C_11
REMARK                            x       y       z     vdW  Elec       q    Type
REMARK                         _______ _______ _______ _____ _____    ______ ____
ROOT
ATOM      1  C   UNL A   1      40.928 -37.977 -29.670  0.00  0.00    -0.009 A 
ATOM      2  C   UNL A   1      41.308 -37.165 -30.738  0.00  0.00    -0.052 A 
ATOM      3  C   UNL A   1      42.489 -37.431 -31.424  0.00  0.00    -0.045 A 
ATOM      4  C   UNL A   1      43.283 -38.497 -31.027  0.00  0.00    +0.005 A 
ATOM      5  N   UNL A   1      42.926 -39.268 -29.974  0.00  0.00    -0.348 N 
ATOM      6  C   UNL A   1      41.774 -39.025 -29.301  0.00  0.00    +0.012 A 
ENDROOT
BRANCH   1   8
ATOM      7  C   UNL A   1      38.466 -37.834 -29.404  0.00  0.00    -0.011 C 
ATOM      8  C   UNL A   1      39.703 -37.737 -28.893  0.00  0.00    -0.049 C 
BRANCH   7  10
ATOM      9  O   UNL A   1      36.964 -38.332 -27.710  0.00  0.00    -0.284 OA
ATOM     10  C   UNL A   1      37.196 -37.577 -28.655  0.00  0.00    +0.221 C 
BRANCH  10  11
ATOM     11  C   UNL A   1      36.313 -36.488 -29.019  0.00  0.00    +0.176 A 
ATOM     12  C   UNL A   1      35.087 -36.127 -28.489  0.00  0.00    -0.005 A 
ATOM     13  C   UNL A   1      34.662 -34.961 -29.174  0.00  0.00    +0.021 A 
ATOM     14  C   UNL A   1      33.541 -34.116 -29.121  0.00  0.00    -0.051 A 
ATOM     15  C   UNL A   1      33.488 -33.013 -29.986  0.00  0.00    -0.061 A 
ATOM     16  C   UNL A   1      34.525 -32.752 -30.885  0.00  0.00    -0.058 A 
ATOM     17  C   UNL A   1      35.650 -33.582 -30.953  0.00  0.00    -0.019 A 
ATOM     18  C   UNL A   1      35.672 -34.670 -30.082  0.00  0.00    +0.136 A 
ATOM     19  O   UNL A   1      36.672 -35.590 -29.991  0.00  0.00    -0.452 OA
ENDBRANCH  10  11
ENDBRANCH   7  10
ENDBRANCH   1   8
BRANCH   5  20
ATOM     20  C   UNL A   1      43.794 -40.405 -29.567  0.00  0.00    +0.049 C 
BRANCH  20  21
ATOM     21  C   UNL A   1      45.252 -40.022 -29.616  0.00  0.00    -0.014 A 
ATOM     22  C   UNL A   1      45.648 -38.798 -29.039  0.00  0.00    -0.056 A 
ATOM     23  C   UNL A   1      46.982 -38.389 -29.065  0.00  0.00    -0.061 A 
ATOM     24  C   UNL A   1      47.946 -39.192 -29.665  0.00  0.00    -0.061 A 
ATOM     25  C   UNL A   1      47.578 -40.408 -30.236  0.00  0.00    -0.047 A 
ATOM     26  C   UNL A   1      46.242 -40.823 -30.213  0.00  0.00    +0.023 A 
ATOM     27 BR   UNL A   1      45.856 -42.497 -31.024  0.00  0.00    -0.050 Br
ENDBRANCH  20  21
ENDBRANCH   5  20
TORSDOF 5
ENDMDL
MODEL 4
REMARK VINA RESULT:    -9.251      4.048     10.077
REMARK INTER + INTRA:         -12.856
REMARK INTER:                 -12.138
REMARK INTRA:                  -0.717
REMARK UNBOUND:                -0.901
REMARK  Name = cpd132.pdb
REMARK  5 active torsions:
REMARK  status: ('A' for Active; 'I' for Inactive)
REMARK    1  A    between atoms: C_2  and  C_3
REMARK    2  A    between atoms: C_2  and  C_19
REMARK    3  A    between atoms: C_4  and  C_5
REMARK    4  A    between atoms: N_9  and  C_10
REMARK    5  A    between atoms: C_10  and  C_11
REMARK                            x       y       z     vdW  Elec       q    Type
REMARK                         _______ _______ _______ _____ _____    ______ ____
ROOT
ATOM      1  C   UNL A   1      38.775 -37.187 -29.727  0.00  0.00    -0.009 A 
ATOM      2  C   UNL A   1      38.147 -37.826 -28.658  0.00  0.00    -0.052 A 
ATOM      3  C   UNL A   1      36.761 -37.786 -28.545  0.00  0.00    -0.045 A 
ATOM      4  C   UNL A   1      36.018 -37.097 -29.494  0.00  0.00    +0.005 A 
ATOM      5  N   UNL A   1      36.632 -36.455 -30.515  0.00  0.00    -0.348 N 
ATOM      6  C   UNL A   1      37.981 -36.492 -30.642  0.00  0.00    +0.012 A 
ENDROOT
BRANCH   1   8
ATOM      7  C   UNL A   1      40.855 -36.798 -31.023  0.00  0.00    -0.011 C 
ATOM      8  C   UNL A   1      40.236 -37.175 -29.892  0.00  0.00    -0.049 C 
BRANCH   7  10
ATOM      9  O   UNL A   1      42.787 -35.832 -31.863  0.00  0.00    -0.284 OA
ATOM     10  C   UNL A   1      42.336 -36.794 -31.240  0.00  0.00    +0.221 C 
BRANCH  10  11
ATOM     11  C   UNL A   1      43.176 -37.853 -30.723  0.00  0.00    +0.176 A 
ATOM     12  C   UNL A   1      42.939 -39.214 -30.644  0.00  0.00    -0.005 A 
ATOM     13  C   UNL A   1      44.102 -39.811 -30.096  0.00  0.00    +0.021 A 
ATOM     14  C   UNL A   1      44.501 -41.117 -29.765  0.00  0.00    -0.051 A 
ATOM     15  C   UNL A   1      45.784 -41.314 -29.234  0.00  0.00    -0.061 A 
ATOM     16  C   UNL A   1      46.654 -40.239 -29.035  0.00  0.00    -0.058 A 
ATOM     17  C   UNL A   1      46.275 -38.932 -29.359  0.00  0.00    -0.019 A 
ATOM     18  C   UNL A   1      44.994 -38.769 -29.882  0.00  0.00    +0.136 A 
ATOM     19  O   UNL A   1      44.439 -37.583 -30.261  0.00  0.00    -0.452 OA
ENDBRANCH  10  11
ENDBRANCH   7  10
ENDBRANCH   1   8
BRANCH   5  20
ATOM     20  C   UNL A   1      35.814 -35.723 -31.520  0.00  0.00    +0.049 C 
BRANCH  20  21
ATOM     21  C   UNL A   1      34.878 -34.747 -30.853  0.00  0.00    -0.014 A 
ATOM     22  C   UNL A   1      35.410 -33.547 -30.337  0.00  0.00    -0.056 A 
ATOM     23  C   UNL A   1      34.591 -32.613 -29.700  0.00  0.00    -0.061 A 
ATOM     24  C   UNL A   1      33.228 -32.856 -29.568  0.00  0.00    -0.061 A 
ATOM     25  C   UNL A   1      32.680 -34.031 -30.076  0.00  0.00    -0.047 A 
ATOM     26  C   UNL A   1      33.497 -34.971 -30.714  0.00  0.00    +0.023 A 
ATOM     27 BR   UNL A   1      32.642 -36.538 -31.365  0.00  0.00    -0.050 Br
ENDBRANCH  20  21
ENDBRANCH   5  20
TORSDOF 5
ENDMDL
MODEL 5
REMARK VINA RESULT:    -8.326      4.549     10.518
REMARK INTER + INTRA:         -11.660
REMARK INTER:                 -11.001
REMARK INTRA:                  -0.659
REMARK UNBOUND:                -0.901
REMARK  Name = cpd132.pdb
REMARK  5 active torsions:
REMARK  status: ('A' for Active; 'I' for Inactive)
REMARK    1  A    between atoms: C_2  and  C_3
REMARK    2  A    between atoms: C_2  and  C_19
REMARK    3  A    between atoms: C_4  and  C_5
REMARK    4  A    between atoms: N_9  and  C_10
REMARK    5  A    between atoms: C_10  and  C_11
REMARK                            x       y       z     vdW  Elec       q    Type
REMARK                         _______ _______ _______ _____ _____    ______ ____
ROOT
ATOM      1  C   UNL A   1      37.451 -36.949 -29.900  0.00  0.00    -0.009 A 
ATOM      2  C   UNL A   1      37.279 -37.332 -28.570  0.00  0.00    -0.052 A 
ATOM      3  C   UNL A   1      36.016 -37.276 -27.991  0.00  0.00    -0.045 A 
ATOM      4  C   UNL A   1      34.940 -36.824 -28.742  0.00  0.00    +0.005 A 
ATOM      5  N   UNL A   1      35.113 -36.428 -30.024  0.00  0.00    -0.348 N 
ATOM      6  C   UNL A   1      36.337 -36.484 -30.604  0.00  0.00    +0.012 A 
ENDROOT
BRANCH   1   8
ATOM      7  C   UNL A   1      39.120 -36.105 -31.530  0.00  0.00    -0.011 C 
ATOM      8  C   UNL A   1      38.762 -36.967 -30.564  0.00  0.00    -0.049 C 
BRANCH   7  10
ATOM      9  O   UNL A   1      40.451 -35.543 -33.343  0.00  0.00    -0.284 OA
ATOM     10  C   UNL A   1      40.434 -36.103 -32.246  0.00  0.00    +0.221 C 
BRANCH  10  11
ATOM     11  C   UNL A   1      41.612 -36.709 -31.661  0.00  0.00    +0.176 A 
ATOM     12  C   UNL A   1      42.842 -36.150 -31.363  0.00  0.00    -0.005 A 
ATOM     13  C   UNL A   1      43.630 -37.164 -30.764  0.00  0.00    +0.021 A 
ATOM     14  C   UNL A   1      44.933 -37.251 -30.247  0.00  0.00    -0.051 A 
ATOM     15  C   UNL A   1      45.362 -38.472 -29.707  0.00  0.00    -0.061 A 
ATOM     16  C   UNL A   1      44.518 -39.584 -29.679  0.00  0.00    -0.058 A 
ATOM     17  C   UNL A   1      43.216 -39.517 -30.189  0.00  0.00    -0.019 A 
ATOM     18  C   UNL A   1      42.820 -38.292 -30.720  0.00  0.00    +0.136 A 
ATOM     19  O   UNL A   1      41.599 -38.021 -31.261  0.00  0.00    -0.452 OA
ENDBRANCH  10  11
ENDBRANCH   7  10
ENDBRANCH   1   8
BRANCH   5  20
ATOM     20  C   UNL A   1      33.944 -35.947 -30.809  0.00  0.00    +0.049 C 
BRANCH  20  21
ATOM     21  C   UNL A   1      33.632 -34.506 -30.494  0.00  0.00    -0.014 A 
ATOM     22  C   UNL A   1      34.459 -33.502 -31.040  0.00  0.00    -0.056 A 
ATOM     23  C   UNL A   1      34.222 -32.152 -30.772  0.00  0.00    -0.061 A 
ATOM     24  C   UNL A   1      33.158 -31.779 -29.959  0.00  0.00    -0.061 A 
ATOM     25  C   UNL A   1      32.325 -32.753 -29.415  0.00  0.00    -0.047 A 
ATOM     26  C   UNL A   1      32.557 -34.107 -29.679  0.00  0.00    +0.023 A 
ATOM     27 BR   UNL A   1      31.360 -35.348 -28.882  0.00  0.00    -0.050 Br
ENDBRANCH  20  21
ENDBRANCH   5  20
TORSDOF 5
ENDMDL
MODEL 6
REMARK VINA RESULT:    -8.000      7.436     10.426
REMARK INTER + INTRA:         -11.239
REMARK INTER:                 -10.608
REMARK INTRA:                  -0.631
REMARK UNBOUND:                -0.901
REMARK  Name = cpd132.pdb
REMARK  5 active torsions:
REMARK  status: ('A' for Active; 'I' for Inactive)
REMARK    1  A    between atoms: C_2  and  C_3
REMARK    2  A    between atoms: C_2  and  C_19
REMARK    3  A    between atoms: C_4  and  C_5
REMARK    4  A    between atoms: N_9  and  C_10
REMARK    5  A    between atoms: C_10  and  C_11
REMARK                            x       y       z     vdW  Elec       q    Type
REMARK                         _______ _______ _______ _____ _____    ______ ____
ROOT
ATOM      1  C   UNL A   1      35.381 -39.805 -31.039  0.00  0.00    -0.009 A 
ATOM      2  C   UNL A   1      35.618 -40.869 -30.170  0.00  0.00    -0.052 A 
ATOM      3  C   UNL A   1      36.422 -40.684 -29.050  0.00  0.00    -0.045 A 
ATOM      4  C   UNL A   1      36.992 -39.440 -28.818  0.00  0.00    +0.005 A 
ATOM      5  N   UNL A   1      36.782 -38.415 -29.677  0.00  0.00    -0.348 N 
ATOM      6  C   UNL A   1      35.994 -38.580 -30.768  0.00  0.00    +0.012 A 
ENDROOT
BRANCH   1   8
ATOM      7  C   UNL A   1      34.262 -41.120 -32.820  0.00  0.00    -0.011 C 
ATOM      8  C   UNL A   1      34.557 -39.942 -32.248  0.00  0.00    -0.049 C 
BRANCH   7  10
ATOM      9  O   UNL A   1      32.844 -40.305 -34.463  0.00  0.00    -0.284 OA
ATOM     10  C   UNL A   1      33.447 -41.301 -34.062  0.00  0.00    +0.221 C 
BRANCH  10  11
ATOM     11  C   UNL A   1      33.397 -42.573 -34.752  0.00  0.00    +0.176 A 
ATOM     12  C   UNL A   1      32.504 -43.030 -35.705  0.00  0.00    -0.005 A 
ATOM     13  C   UNL A   1      32.927 -44.328 -36.088  0.00  0.00    +0.021 A 
ATOM     14  C   UNL A   1      32.473 -45.310 -36.985  0.00  0.00    -0.051 A 
ATOM     15  C   UNL A   1      33.197 -46.506 -37.095  0.00  0.00    -0.061 A 
ATOM     16  C   UNL A   1      34.347 -46.725 -36.333  0.00  0.00    -0.058 A 
ATOM     17  C   UNL A   1      34.815 -45.759 -35.436  0.00  0.00    -0.019 A 
ATOM     18  C   UNL A   1      34.074 -44.583 -35.347  0.00  0.00    +0.136 A 
ATOM     19  O   UNL A   1      34.362 -43.524 -34.539  0.00  0.00    -0.452 OA
ENDBRANCH  10  11
ENDBRANCH   7  10
ENDBRANCH   1   8
BRANCH   5  20
ATOM     20  C   UNL A   1      37.404 -37.091 -29.407  0.00  0.00    +0.049 C 
BRANCH  20  21
ATOM     21  C   UNL A   1      38.475 -36.775 -30.421  0.00  0.00    -0.014 A 
ATOM     22  C   UNL A   1      38.123 -36.022 -31.561  0.00  0.00    -0.056 A 
ATOM     23  C   UNL A   1      39.072 -35.710 -32.536  0.00  0.00    -0.061 A 
ATOM     24  C   UNL A   1      40.386 -36.140 -32.393  0.00  0.00    -0.061 A 
ATOM     25  C   UNL A   1      40.757 -36.879 -31.273  0.00  0.00    -0.047 A 
ATOM     26  C   UNL A   1      39.811 -37.195 -30.292  0.00  0.00    +0.023 A 
ATOM     27 BR   UNL A   1      40.428 -38.209 -28.809  0.00  0.00    -0.050 Br
ENDBRANCH  20  21
ENDBRANCH   5  20
TORSDOF 5
ENDMDL
MODEL 7
REMARK VINA RESULT:    -7.902      6.967     13.036
REMARK INTER + INTRA:         -11.112
REMARK INTER:                 -10.409
REMARK INTRA:                  -0.703
REMARK UNBOUND:                -0.901
REMARK  Name = cpd132.pdb
REMARK  5 active torsions:
REMARK  status: ('A' for Active; 'I' for Inactive)
REMARK    1  A    between atoms: C_2  and  C_3
REMARK    2  A    between atoms: C_2  and  C_19
REMARK    3  A    between atoms: C_4  and  C_5
REMARK    4  A    between atoms: N_9  and  C_10
REMARK    5  A    between atoms: C_10  and  C_11
REMARK                            x       y       z     vdW  Elec       q    Type
REMARK                         _______ _______ _______ _____ _____    ______ ____
ROOT
ATOM      1  C   UNL A   1      34.468 -34.182 -30.345  0.00  0.00    -0.009 A 
ATOM      2  C   UNL A   1      35.053 -32.997 -30.789  0.00  0.00    -0.052 A 
ATOM      3  C   UNL A   1      34.316 -31.817 -30.789  0.00  0.00    -0.045 A 
ATOM      4  C   UNL A   1      32.997 -31.837 -30.358  0.00  0.00    +0.005 A 
ATOM      5  N   UNL A   1      32.423 -32.993 -29.952  0.00  0.00    -0.348 N 
ATOM      6  C   UNL A   1      33.131 -34.149 -29.939  0.00  0.00    +0.012 A 
ENDROOT
BRANCH   1   8
ATOM      7  C   UNL A   1      36.203 -35.744 -29.507  0.00  0.00    -0.011 C 
ATOM      8  C   UNL A   1      35.186 -35.464 -30.338  0.00  0.00    -0.049 C 
BRANCH   7  10
ATOM      9  O   UNL A   1      36.410 -37.986 -28.957  0.00  0.00    -0.284 OA
ATOM     10  C   UNL A   1      36.975 -37.027 -29.482  0.00  0.00    +0.221 C 
BRANCH  10  11
ATOM     11  C   UNL A   1      38.296 -37.122 -30.066  0.00  0.00    +0.176 A 
ATOM     12  C   UNL A   1      38.813 -36.510 -31.194  0.00  0.00    -0.005 A 
ATOM     13  C   UNL A   1      40.171 -36.905 -31.301  0.00  0.00    +0.021 A 
ATOM     14  C   UNL A   1      41.226 -36.647 -32.192  0.00  0.00    -0.051 A 
ATOM     15  C   UNL A   1      42.474 -37.236 -31.944  0.00  0.00    -0.061 A 
ATOM     16  C   UNL A   1      42.674 -38.063 -30.835  0.00  0.00    -0.058 A 
ATOM     17  C   UNL A   1      41.635 -38.331 -29.937  0.00  0.00    -0.019 A 
ATOM     18  C   UNL A   1      40.407 -37.733 -30.211  0.00  0.00    +0.136 A 
ATOM     19  O   UNL A   1      39.277 -37.867 -29.462  0.00  0.00    -0.452 OA
ENDBRANCH  10  11
ENDBRANCH   7  10
ENDBRANCH   1   8
BRANCH   5  20
ATOM     20  C   UNL A   1      31.007 -32.989 -29.494  0.00  0.00    +0.049 C 
BRANCH  20  21
ATOM     21  C   UNL A   1      30.128 -32.221 -30.450  0.00  0.00    -0.014 A 
ATOM     22  C   UNL A   1      29.900 -32.757 -31.734  0.00  0.00    -0.056 A 
ATOM     23  C   UNL A   1      29.104 -32.083 -32.662  0.00  0.00    -0.061 A 
ATOM     24  C   UNL A   1      28.519 -30.867 -32.327  0.00  0.00    -0.061 A 
ATOM     25  C   UNL A   1      28.725 -30.324 -31.061  0.00  0.00    -0.047 A 
ATOM     26  C   UNL A   1      29.522 -30.994 -30.128  0.00  0.00    +0.023 A 
ATOM     27 BR   UNL A   1      29.736 -30.158 -28.435  0.00  0.00    -0.050 Br
ENDBRANCH  20  21
ENDBRANCH   5  20
TORSDOF 5
ENDMDL
MODEL 8
REMARK VINA RESULT:    -7.852      5.943     11.664
REMARK INTER + INTRA:         -11.048
REMARK INTER:                 -10.291
REMARK INTRA:                  -0.757
REMARK UNBOUND:                -0.901
REMARK  Name = cpd132.pdb
REMARK  5 active torsions:
REMARK  status: ('A' for Active; 'I' for Inactive)
REMARK    1  A    between atoms: C_2  and  C_3
REMARK    2  A    between atoms: C_2  and  C_19
REMARK    3  A    between atoms: C_4  and  C_5
REMARK    4  A    between atoms: N_9  and  C_10
REMARK    5  A    between atoms: C_10  and  C_11
REMARK                            x       y       z     vdW  Elec       q    Type
REMARK                         _______ _______ _______ _____ _____    ______ ____
ROOT
ATOM      1  C   UNL A   1      34.086 -37.757 -26.505  0.00  0.00    -0.009 A 
ATOM      2  C   UNL A   1      33.577 -36.563 -27.015  0.00  0.00    -0.052 A 
ATOM      3  C   UNL A   1      32.520 -35.929 -26.370  0.00  0.00    -0.045 A 
ATOM      4  C   UNL A   1      31.974 -36.502 -25.230  0.00  0.00    +0.005 A 
ATOM      5  N   UNL A   1      32.453 -37.674 -24.752  0.00  0.00    -0.348 N 
ATOM      6  C   UNL A   1      33.488 -38.299 -25.365  0.00  0.00    +0.012 A 
ENDROOT
BRANCH   1   8
ATOM      7  C   UNL A   1      36.299 -37.893 -27.619  0.00  0.00    -0.011 C 
ATOM      8  C   UNL A   1      35.189 -38.485 -27.150  0.00  0.00    -0.049 C 
BRANCH   7  10
ATOM      9  O   UNL A   1      37.454 -39.820 -28.190  0.00  0.00    -0.284 OA
ATOM     10  C   UNL A   1      37.433 -38.593 -28.300  0.00  0.00    +0.221 C 
BRANCH  10  11
ATOM     11  C   UNL A   1      38.425 -37.860 -29.058  0.00  0.00    +0.176 A 
ATOM     12  C   UNL A   1      39.806 -37.906 -28.987  0.00  0.00    -0.005 A 
ATOM     13  C   UNL A   1      40.306 -37.021 -29.976  0.00  0.00    +0.021 A 
ATOM     14  C   UNL A   1      41.579 -36.617 -30.413  0.00  0.00    -0.051 A 
ATOM     15  C   UNL A   1      41.667 -35.698 -31.468  0.00  0.00    -0.061 A 
ATOM     16  C   UNL A   1      40.518 -35.189 -32.078  0.00  0.00    -0.058 A 
ATOM     17  C   UNL A   1      39.242 -35.580 -31.658  0.00  0.00    -0.019 A 
ATOM     18  C   UNL A   1      39.187 -36.493 -30.607  0.00  0.00    +0.136 A 
ATOM     19  O   UNL A   1      38.048 -36.997 -30.056  0.00  0.00    -0.452 OA
ENDBRANCH  10  11
ENDBRANCH   7  10
ENDBRANCH   1   8
BRANCH   5  20
ATOM     20  C   UNL A   1      31.851 -38.268 -23.527  0.00  0.00    +0.049 C 
BRANCH  20  21
ATOM     21  C   UNL A   1      32.911 -38.613 -22.512  0.00  0.00    -0.014 A 
ATOM     22  C   UNL A   1      33.564 -37.562 -21.835  0.00  0.00    -0.056 A 
ATOM     23  C   UNL A   1      34.560 -37.824 -20.893  0.00  0.00    -0.061 A 
ATOM     24  C   UNL A   1      34.921 -39.136 -20.606  0.00  0.00    -0.061 A 
ATOM     25  C   UNL A   1      34.284 -40.189 -21.258  0.00  0.00    -0.047 A 
ATOM     26  C   UNL A   1      33.286 -39.933 -22.203  0.00  0.00    +0.023 A 
ATOM     27 BR   UNL A   1      32.488 -41.446 -23.030  0.00  0.00    -0.050 Br
ENDBRANCH  20  21
ENDBRANCH   5  20
TORSDOF 5
ENDMDL
MODEL 9
REMARK VINA RESULT:    -7.672     17.248     18.620
REMARK INTER + INTRA:         -10.815
REMARK INTER:                  -9.857
REMARK INTRA:                  -0.958
REMARK UNBOUND:                -0.901
REMARK  Name = cpd132.pdb
REMARK  5 active torsions:
REMARK  status: ('A' for Active; 'I' for Inactive)
REMARK    1  A    between atoms: C_2  and  C_3
REMARK    2  A    between atoms: C_2  and  C_19
REMARK    3  A    between atoms: C_4  and  C_5
REMARK    4  A    between atoms: N_9  and  C_10
REMARK    5  A    between atoms: C_10  and  C_11
REMARK                            x       y       z     vdW  Elec       q    Type
REMARK                         _______ _______ _______ _____ _____    ______ ____
ROOT
ATOM      1  C   UNL A   1      43.982 -20.361 -36.876  0.00  0.00    -0.009 A 
ATOM      2  C   UNL A   1      44.649 -19.892 -35.745  0.00  0.00    -0.052 A 
ATOM      3  C   UNL A   1      45.865 -19.229 -35.882  0.00  0.00    -0.045 A 
ATOM      4  C   UNL A   1      46.407 -19.054 -37.147  0.00  0.00    +0.005 A 
ATOM      5  N   UNL A   1      45.771 -19.533 -38.242  0.00  0.00    -0.348 N 
ATOM      6  C   UNL A   1      44.582 -20.174 -38.123  0.00  0.00    +0.012 A 
ENDROOT
BRANCH   1   8
ATOM      7  C   UNL A   1      42.079 -21.610 -37.861  0.00  0.00    -0.011 C 
ATOM      8  C   UNL A   1      42.705 -21.084 -36.796  0.00  0.00    -0.049 C 
BRANCH   7  10
ATOM      9  O   UNL A   1      40.528 -23.060 -38.792  0.00  0.00    -0.284 OA
ATOM     10  C   UNL A   1      40.769 -22.334 -37.827  0.00  0.00    +0.221 C 
BRANCH  10  11
ATOM     11  C   UNL A   1      39.860 -22.193 -36.709  0.00  0.00    +0.176 A 
ATOM     12  C   UNL A   1      39.554 -23.087 -35.698  0.00  0.00    -0.005 A 
ATOM     13  C   UNL A   1      38.637 -22.441 -34.831  0.00  0.00    +0.021 A 
ATOM     14  C   UNL A   1      37.956 -22.785 -33.651  0.00  0.00    -0.051 A 
ATOM     15  C   UNL A   1      37.112 -21.834 -33.060  0.00  0.00    -0.061 A 
ATOM     16  C   UNL A   1      36.946 -20.567 -33.626  0.00  0.00    -0.058 A 
ATOM     17  C   UNL A   1      37.617 -20.206 -34.800  0.00  0.00    -0.019 A 
ATOM     18  C   UNL A   1      38.446 -21.173 -35.364  0.00  0.00    +0.136 A 
ATOM     19  O   UNL A   1      39.184 -21.018 -36.499  0.00  0.00    -0.452 OA
ENDBRANCH  10  11
ENDBRANCH   7  10
ENDBRANCH   1   8
BRANCH   5  20
ATOM     20  C   UNL A   1      46.372 -19.333 -39.588  0.00  0.00    +0.049 C 
BRANCH  20  21
ATOM     21  C   UNL A   1      46.508 -20.643 -40.324  0.00  0.00    -0.014 A 
ATOM     22  C   UNL A   1      47.438 -21.591 -39.847  0.00  0.00    -0.056 A 
ATOM     23  C   UNL A   1      47.612 -22.814 -40.496  0.00  0.00    -0.061 A 
ATOM     24  C   UNL A   1      46.863 -23.117 -41.628  0.00  0.00    -0.061 A 
ATOM     25  C   UNL A   1      45.935 -22.198 -42.112  0.00  0.00    -0.047 A 
ATOM     26  C   UNL A   1      45.756 -20.970 -41.466  0.00  0.00    +0.023 A 
ATOM     27 BR   UNL A   1      44.466 -19.794 -42.215  0.00  0.00    -0.050 Br
ENDBRANCH  20  21
ENDBRANCH   5  20
TORSDOF 5
ENDMDL
MODEL 10
REMARK VINA RESULT:    -7.638     17.620     18.935
REMARK INTER + INTRA:         -10.772
REMARK INTER:                  -9.927
REMARK INTRA:                  -0.845
REMARK UNBOUND:                -0.901
REMARK  Name = cpd132.pdb
REMARK  5 active torsions:
REMARK  status: ('A' for Active; 'I' for Inactive)
REMARK    1  A    between atoms: C_2  and  C_3
REMARK    2  A    between atoms: C_2  and  C_19
REMARK    3  A    between atoms: C_4  and  C_5
REMARK    4  A    between atoms: N_9  and  C_10
REMARK    5  A    between atoms: C_10  and  C_11
REMARK                            x       y       z     vdW  Elec       q    Type
REMARK                         _______ _______ _______ _____ _____    ______ ____
ROOT
ATOM      1  C   UNL A   1      42.255 -21.049 -39.139  0.00  0.00    -0.009 A 
ATOM      2  C   UNL A   1      41.319 -21.661 -39.972  0.00  0.00    -0.052 A 
ATOM      3  C   UNL A   1      41.618 -21.870 -41.314  0.00  0.00    -0.045 A 
ATOM      4  C   UNL A   1      42.844 -21.453 -41.813  0.00  0.00    +0.005 A 
ATOM      5  N   UNL A   1      43.741 -20.835 -41.009  0.00  0.00    -0.348 N 
ATOM      6  C   UNL A   1      43.466 -20.632 -39.697  0.00  0.00    +0.012 A 
ENDROOT
BRANCH   1   8
ATOM      7  C   UNL A   1      42.927 -20.874 -36.757  0.00  0.00    -0.011 C 
ATOM      8  C   UNL A   1      41.992 -20.783 -37.717  0.00  0.00    -0.049 C 
BRANCH   7  10
ATOM      9  O   UNL A   1      43.692 -20.339 -34.635  0.00  0.00    -0.284 OA
ATOM     10  C   UNL A   1      42.697 -20.634 -35.298  0.00  0.00    +0.221 C 
BRANCH  10  11
ATOM     11  C   UNL A   1      41.373 -20.725 -34.719  0.00  0.00    +0.176 A 
ATOM     12  C   UNL A   1      40.601 -21.840 -34.443  0.00  0.00    -0.005 A 
ATOM     13  C   UNL A   1      39.403 -21.382 -33.840  0.00  0.00    +0.021 A 
ATOM     14  C   UNL A   1      38.237 -21.984 -33.337  0.00  0.00    -0.051 A 
ATOM     15  C   UNL A   1      37.242 -21.164 -32.785  0.00  0.00    -0.061 A 
ATOM     16  C   UNL A   1      37.399 -19.776 -32.732  0.00  0.00    -0.058 A 
ATOM     17  C   UNL A   1      38.553 -19.159 -33.227  0.00  0.00    -0.019 A 
ATOM     18  C   UNL A   1      39.522 -20.000 -33.770  0.00  0.00    +0.136 A 
ATOM     19  O   UNL A   1      40.711 -19.599 -34.300  0.00  0.00    -0.452 OA
ENDBRANCH  10  11
ENDBRANCH   7  10
ENDBRANCH   1   8
BRANCH   5  20
ATOM     20  C   UNL A   1      45.048 -20.397 -41.567  0.00  0.00    +0.049 C 
BRANCH  20  21
ATOM     21  C   UNL A   1      46.092 -21.475 -41.420  0.00  0.00    -0.014 A 
ATOM     22  C   UNL A   1      46.159 -22.487 -42.401  0.00  0.00    -0.056 A 
ATOM     23  C   UNL A   1      47.098 -23.515 -42.309  0.00  0.00    -0.061 A 
ATOM     24  C   UNL A   1      47.989 -23.553 -41.242  0.00  0.00    -0.061 A 
ATOM     25  C   UNL A   1      47.945 -22.560 -40.266  0.00  0.00    -0.047 A 
ATOM     26  C   UNL A   1      47.006 -21.528 -40.352  0.00  0.00    +0.023 A 
ATOM     27 BR   UNL A   1      47.035 -20.231 -38.964  0.00  0.00    -0.050 Br
ENDBRANCH  20  21
ENDBRANCH   5  20
TORSDOF 5
ENDMDL
MODEL 11
REMARK VINA RESULT:    -7.542     17.370     20.155
REMARK INTER + INTRA:         -10.647
REMARK INTER:                  -9.832
REMARK INTRA:                  -0.815
REMARK UNBOUND:                -0.901
REMARK  Name = cpd132.pdb
REMARK  5 active torsions:
REMARK  status: ('A' for Active; 'I' for Inactive)
REMARK    1  A    between atoms: C_2  and  C_3
REMARK    2  A    between atoms: C_2  and  C_19
REMARK    3  A    between atoms: C_4  and  C_5
REMARK    4  A    between atoms: N_9  and  C_10
REMARK    5  A    between atoms: C_10  and  C_11
REMARK                            x       y       z     vdW  Elec       q    Type
REMARK                         _______ _______ _______ _____ _____    ______ ____
ROOT
ATOM      1  C   UNL A   1      41.614 -21.227 -37.943  0.00  0.00    -0.009 A 
ATOM      2  C   UNL A   1      40.409 -21.159 -38.642  0.00  0.00    -0.052 A 
ATOM      3  C   UNL A   1      39.219 -21.500 -38.007  0.00  0.00    -0.045 A 
ATOM      4  C   UNL A   1      39.248 -21.919 -36.684  0.00  0.00    +0.005 A 
ATOM      5  N   UNL A   1      40.421 -22.010 -36.016  0.00  0.00    -0.348 N 
ATOM      6  C   UNL A   1      41.587 -21.672 -36.620  0.00  0.00    +0.012 A 
ENDROOT
BRANCH   1   8
ATOM      7  C   UNL A   1      43.418 -19.657 -38.604  0.00  0.00    -0.011 C 
ATOM      8  C   UNL A   1      42.906 -20.898 -38.562  0.00  0.00    -0.049 C 
BRANCH   7  10
ATOM      9  O   UNL A   1      44.999 -18.078 -39.219  0.00  0.00    -0.284 OA
ATOM     10  C   UNL A   1      44.717 -19.277 -39.243  0.00  0.00    +0.221 C 
BRANCH  10  11
ATOM     11  C   UNL A   1      45.588 -20.273 -39.829  0.00  0.00    +0.176 A 
ATOM     12  C   UNL A   1      46.780 -20.796 -39.359  0.00  0.00    -0.005 A 
ATOM     13  C   UNL A   1      47.207 -21.772 -40.294  0.00  0.00    +0.021 A 
ATOM     14  C   UNL A   1      48.304 -22.643 -40.408  0.00  0.00    -0.051 A 
ATOM     15  C   UNL A   1      48.369 -23.501 -41.515  0.00  0.00    -0.061 A 
ATOM     16  C   UNL A   1      47.368 -23.496 -42.490  0.00  0.00    -0.058 A 
ATOM     17  C   UNL A   1      46.268 -22.637 -42.394  0.00  0.00    -0.019 A 
ATOM     18  C   UNL A   1      46.233 -21.796 -41.284  0.00  0.00    +0.136 A 
ATOM     19  O   UNL A   1      45.252 -20.891 -41.007  0.00  0.00    -0.452 OA
ENDBRANCH  10  11
ENDBRANCH   7  10
ENDBRANCH   1   8
BRANCH   5  20
ATOM     20  C   UNL A   1      40.426 -22.461 -34.598  0.00  0.00    +0.049 C 
BRANCH  20  21
ATOM     21  C   UNL A   1      40.142 -21.315 -33.660  0.00  0.00    -0.014 A 
ATOM     22  C   UNL A   1      41.184 -20.410 -33.367  0.00  0.00    -0.056 A 
ATOM     23  C   UNL A   1      40.980 -19.338 -32.497  0.00  0.00    -0.061 A 
ATOM     24  C   UNL A   1      39.736 -19.145 -31.907  0.00  0.00    -0.061 A 
ATOM     25  C   UNL A   1      38.691 -20.023 -32.188  0.00  0.00    -0.047 A 
ATOM     26  C   UNL A   1      38.890 -21.100 -33.058  0.00  0.00    +0.023 A 
ATOM     27 BR   UNL A   1      37.396 -22.232 -33.366  0.00  0.00    -0.050 Br
ENDBRANCH  20  21
ENDBRANCH   5  20
TORSDOF 5
ENDMDL
MODEL 12
REMARK VINA RESULT:    -7.462      5.232     11.143
REMARK INTER + INTRA:         -10.543
REMARK INTER:                  -9.637
REMARK INTRA:                  -0.906
REMARK UNBOUND:                -0.901
REMARK  Name = cpd132.pdb
REMARK  5 active torsions:
REMARK  status: ('A' for Active; 'I' for Inactive)
REMARK    1  A    between atoms: C_2  and  C_3
REMARK    2  A    between atoms: C_2  and  C_19
REMARK    3  A    between atoms: C_4  and  C_5
REMARK    4  A    between atoms: N_9  and  C_10
REMARK    5  A    between atoms: C_10  and  C_11
REMARK                            x       y       z     vdW  Elec       q    Type
REMARK                         _______ _______ _______ _____ _____    ______ ____
ROOT
ATOM      1  C   UNL A   1      34.979 -39.313 -29.397  0.00  0.00    -0.009 A 
ATOM      2  C   UNL A   1      35.142 -40.695 -29.489  0.00  0.00    -0.052 A 
ATOM      3  C   UNL A   1      34.278 -41.542 -28.803  0.00  0.00    -0.045 A 
ATOM      4  C   UNL A   1      33.268 -40.999 -28.022  0.00  0.00    +0.005 A 
ATOM      5  N   UNL A   1      33.128 -39.657 -27.912  0.00  0.00    -0.348 N 
ATOM      6  C   UNL A   1      33.958 -38.820 -28.582  0.00  0.00    +0.012 A 
ENDROOT
BRANCH   1   8
ATOM      7  C   UNL A   1      36.170 -37.147 -29.603  0.00  0.00    -0.011 C 
ATOM      8  C   UNL A   1      35.870 -38.365 -30.082  0.00  0.00    -0.049 C 
BRANCH   7  10
ATOM      9  O   UNL A   1      36.557 -35.034 -30.476  0.00  0.00    -0.284 OA
ATOM     10  C   UNL A   1      37.053 -36.144 -30.279  0.00  0.00    +0.221 C 
BRANCH  10  11
ATOM     11  C   UNL A   1      38.414 -36.469 -30.652  0.00  0.00    +0.176 A 
ATOM     12  C   UNL A   1      39.187 -35.985 -31.692  0.00  0.00    -0.005 A 
ATOM     13  C   UNL A   1      40.462 -36.596 -31.587  0.00  0.00    +0.021 A 
ATOM     14  C   UNL A   1      41.666 -36.540 -32.309  0.00  0.00    -0.051 A 
ATOM     15  C   UNL A   1      42.750 -37.313 -31.868  0.00  0.00    -0.061 A 
ATOM     16  C   UNL A   1      42.643 -38.126 -30.736  0.00  0.00    -0.058 A 
ATOM     17  C   UNL A   1      41.452 -38.194 -30.005  0.00  0.00    -0.019 A 
ATOM     18  C   UNL A   1      40.393 -37.416 -30.469  0.00  0.00    +0.136 A 
ATOM     19  O   UNL A   1      39.158 -37.342 -29.900  0.00  0.00    -0.452 OA
ENDBRANCH  10  11
ENDBRANCH   7  10
ENDBRANCH   1   8
BRANCH   5  20
ATOM     20  C   UNL A   1      32.037 -39.099 -27.068  0.00  0.00    +0.049 C 
BRANCH  20  21
ATOM     21  C   UNL A   1      32.590 -38.451 -25.823  0.00  0.00    -0.014 A 
ATOM     22  C   UNL A   1      33.038 -39.280 -24.773  0.00  0.00    -0.056 A 
ATOM     23  C   UNL A   1      33.548 -38.734 -23.595  0.00  0.00    -0.061 A 
ATOM     24  C   UNL A   1      33.624 -37.354 -23.441  0.00  0.00    -0.061 A 
ATOM     25  C   UNL A   1      33.194 -36.517 -24.468  0.00  0.00    -0.047 A 
ATOM     26  C   UNL A   1      32.681 -37.059 -25.651  0.00  0.00    +0.023 A 
ATOM     27 BR   UNL A   1      32.122 -35.823 -26.981  0.00  0.00    -0.050 Br
ENDBRANCH  20  21
ENDBRANCH   5  20
TORSDOF 5
ENDMDL
MODEL 13
REMARK VINA RESULT:    -7.333      5.550     11.468
REMARK INTER + INTRA:         -10.377
REMARK INTER:                  -9.452
REMARK INTRA:                  -0.926
REMARK UNBOUND:                -0.901
REMARK  Name = cpd132.pdb
REMARK  5 active torsions:
REMARK  status: ('A' for Active; 'I' for Inactive)
REMARK    1  A    between atoms: C_2  and  C_3
REMARK    2  A    between atoms: C_2  and  C_19
REMARK    3  A    between atoms: C_4  and  C_5
REMARK    4  A    between atoms: N_9  and  C_10
REMARK    5  A    between atoms: C_10  and  C_11
REMARK                            x       y       z     vdW  Elec       q    Type
REMARK                         _______ _______ _______ _____ _____    ______ ____
ROOT
ATOM      1  C   UNL A   1      33.751 -38.435 -28.391  0.00  0.00    -0.009 A 
ATOM      2  C   UNL A   1      32.813 -38.951 -27.497  0.00  0.00    -0.052 A 
ATOM      3  C   UNL A   1      31.509 -38.465 -27.505  0.00  0.00    -0.045 A 
ATOM      4  C   UNL A   1      31.160 -37.461 -28.397  0.00  0.00    +0.005 A 
ATOM      5  N   UNL A   1      32.079 -36.944 -29.245  0.00  0.00    -0.348 N 
ATOM      6  C   UNL A   1      33.352 -37.413 -29.254  0.00  0.00    +0.012 A 
ENDROOT
BRANCH   1   8
ATOM      7  C   UNL A   1      36.182 -38.105 -28.758  0.00  0.00    -0.011 C 
ATOM      8  C   UNL A   1      35.148 -38.892 -28.419  0.00  0.00    -0.049 C 
BRANCH   7  10
ATOM      9  O   UNL A   1      37.920 -39.500 -28.120  0.00  0.00    -0.284 OA
ATOM     10  C   UNL A   1      37.614 -38.536 -28.821  0.00  0.00    +0.221 C 
BRANCH  10  11
ATOM     11  C   UNL A   1      38.566 -37.861 -29.678  0.00  0.00    +0.176 A 
ATOM     12  C   UNL A   1      38.369 -36.842 -30.593  0.00  0.00    -0.005 A 
ATOM     13  C   UNL A   1      39.637 -36.513 -31.135  0.00  0.00    +0.021 A 
ATOM     14  C   UNL A   1      40.117 -35.594 -32.084  0.00  0.00    -0.051 A 
ATOM     15  C   UNL A   1      41.493 -35.561 -32.350  0.00  0.00    -0.061 A 
ATOM     16  C   UNL A   1      42.376 -36.420 -31.690  0.00  0.00    -0.058 A 
ATOM     17  C   UNL A   1      41.917 -37.341 -30.743  0.00  0.00    -0.019 A 
ATOM     18  C   UNL A   1      40.545 -37.351 -30.502  0.00  0.00    +0.136 A 
ATOM     19  O   UNL A   1      39.902 -38.167 -29.619  0.00  0.00    -0.452 OA
ENDBRANCH  10  11
ENDBRANCH   7  10
ENDBRANCH   1   8
BRANCH   5  20
ATOM     20  C   UNL A   1      31.681 -35.867 -30.192  0.00  0.00    +0.049 C 
BRANCH  20  21
ATOM     21  C   UNL A   1      32.708 -34.762 -30.223  0.00  0.00    -0.014 A 
ATOM     22  C   UNL A   1      32.853 -33.945 -29.083  0.00  0.00    -0.056 A 
ATOM     23  C   UNL A   1      33.780 -32.901 -29.061  0.00  0.00    -0.061 A 
ATOM     24  C   UNL A   1      34.579 -32.655 -30.172  0.00  0.00    -0.061 A 
ATOM     25  C   UNL A   1      34.456 -33.454 -31.307  0.00  0.00    -0.047 A 
ATOM     26  C   UNL A   1      33.529 -34.501 -31.334  0.00  0.00    +0.023 A 
ATOM     27 BR   UNL A   1      33.446 -35.522 -32.934  0.00  0.00    -0.050 Br
ENDBRANCH  20  21
ENDBRANCH   5  20
TORSDOF 5
ENDMDL
MODEL 14
REMARK VINA RESULT:    -7.280      4.851     10.594
REMARK INTER + INTRA:         -10.309
REMARK INTER:                  -9.499
REMARK INTRA:                  -0.810
REMARK UNBOUND:                -0.901
REMARK  Name = cpd132.pdb
REMARK  5 active torsions:
REMARK  status: ('A' for Active; 'I' for Inactive)
REMARK    1  A    between atoms: C_2  and  C_3
REMARK    2  A    between atoms: C_2  and  C_19
REMARK    3  A    between atoms: C_4  and  C_5
REMARK    4  A    between atoms: N_9  and  C_10
REMARK    5  A    between atoms: C_10  and  C_11
REMARK                            x       y       z     vdW  Elec       q    Type
REMARK                         _______ _______ _______ _____ _____    ______ ____
ROOT
ATOM      1  C   UNL A   1      34.679 -37.142 -28.116  0.00  0.00    -0.009 A 
ATOM      2  C   UNL A   1      33.960 -36.670 -27.018  0.00  0.00    -0.052 A 
ATOM      3  C   UNL A   1      32.920 -37.430 -26.491  0.00  0.00    -0.045 A 
ATOM      4  C   UNL A   1      32.602 -38.647 -27.075  0.00  0.00    +0.005 A 
ATOM      5  N   UNL A   1      33.283 -39.092 -28.157  0.00  0.00    -0.348 N 
ATOM      6  C   UNL A   1      34.304 -38.366 -28.676  0.00  0.00    +0.012 A 
ENDROOT
BRANCH   1   8
ATOM      7  C   UNL A   1      36.044 -36.390 -30.046  0.00  0.00    -0.011 C 
ATOM      8  C   UNL A   1      35.774 -36.379 -28.731  0.00  0.00    -0.049 C 
BRANCH   7  10
ATOM      9  O   UNL A   1      36.893 -34.514 -31.111  0.00  0.00    -0.284 OA
ATOM     10  C   UNL A   1      37.161 -35.646 -30.708  0.00  0.00    +0.221 C 
BRANCH  10  11
ATOM     11  C   UNL A   1      38.480 -36.230 -30.840  0.00  0.00    +0.176 A 
ATOM     12  C   UNL A   1      39.178 -37.048 -29.970  0.00  0.00    -0.005 A 
ATOM     13  C   UNL A   1      40.408 -37.374 -30.596  0.00  0.00    +0.021 A 
ATOM     14  C   UNL A   1      41.535 -38.142 -30.259  0.00  0.00    -0.051 A 
ATOM     15  C   UNL A   1      42.585 -38.236 -31.183  0.00  0.00    -0.061 A 
ATOM     16  C   UNL A   1      42.520 -37.583 -32.417  0.00  0.00    -0.058 A 
ATOM     17  C   UNL A   1      41.406 -36.814 -32.770  0.00  0.00    -0.019 A 
ATOM     18  C   UNL A   1      40.381 -36.738 -31.830  0.00  0.00    +0.136 A 
ATOM     19  O   UNL A   1      39.217 -36.046 -31.982  0.00  0.00    -0.452 OA
ENDBRANCH  10  11
ENDBRANCH   7  10
ENDBRANCH   1   8
BRANCH   5  20
ATOM     20  C   UNL A   1      32.923 -40.401 -28.765  0.00  0.00    +0.049 C 
BRANCH  20  21
ATOM     21  C   UNL A   1      32.744 -40.277 -30.258  0.00  0.00    -0.014 A 
ATOM     22  C   UNL A   1      31.489 -39.870 -30.755  0.00  0.00    -0.056 A 
ATOM     23  C   UNL A   1      31.265 -39.749 -32.128  0.00  0.00    -0.061 A 
ATOM     24  C   UNL A   1      32.287 -40.029 -33.028  0.00  0.00    -0.061 A 
ATOM     25  C   UNL A   1      33.537 -40.426 -32.559  0.00  0.00    -0.047 A 
ATOM     26  C   UNL A   1      33.766 -40.549 -31.184  0.00  0.00    +0.023 A 
ATOM     27 BR   UNL A   1      35.506 -41.101 -30.658  0.00  0.00    -0.050 Br
ENDBRANCH  20  21
ENDBRANCH   5  20
TORSDOF 5
ENDMDL
MODEL 15
REMARK VINA RESULT:    -7.198      6.273     12.574
REMARK INTER + INTRA:         -10.203
REMARK INTER:                  -9.313
REMARK INTRA:                  -0.889
REMARK UNBOUND:                -0.901
REMARK  Name = cpd132.pdb
REMARK  5 active torsions:
REMARK  status: ('A' for Active; 'I' for Inactive)
REMARK    1  A    between atoms: C_2  and  C_3
REMARK    2  A    between atoms: C_2  and  C_19
REMARK    3  A    between atoms: C_4  and  C_5
REMARK    4  A    between atoms: N_9  and  C_10
REMARK    5  A    between atoms: C_10  and  C_11
REMARK                            x       y       z     vdW  Elec       q    Type
REMARK                         _______ _______ _______ _____ _____    ______ ____
ROOT
ATOM      1  C   UNL A   1      34.052 -33.759 -29.979  0.00  0.00    -0.009 A 
ATOM      2  C   UNL A   1      34.293 -32.386 -29.997  0.00  0.00    -0.052 A 
ATOM      3  C   UNL A   1      33.268 -31.506 -30.331  0.00  0.00    -0.045 A 
ATOM      4  C   UNL A   1      32.017 -32.010 -30.657  0.00  0.00    +0.005 A 
ATOM      5  N   UNL A   1      31.792 -33.344 -30.665  0.00  0.00    -0.348 N 
ATOM      6  C   UNL A   1      32.779 -34.213 -30.334  0.00  0.00    +0.012 A 
ENDROOT
BRANCH   1   8
ATOM      7  C   UNL A   1      35.149 -35.975 -30.179  0.00  0.00    -0.011 C 
ATOM      8  C   UNL A   1      35.097 -34.741 -29.654  0.00  0.00    -0.049 C 
BRANCH   7  10
ATOM      9  O   UNL A   1      35.798 -37.961 -29.175  0.00  0.00    -0.284 OA
ATOM     10  C   UNL A   1      36.181 -37.011 -29.858  0.00  0.00    +0.221 C 
BRANCH  10  11
ATOM     11  C   UNL A   1      37.539 -36.898 -30.347  0.00  0.00    +0.176 A 
ATOM     12  C   UNL A   1      38.716 -37.400 -29.819  0.00  0.00    -0.005 A 
ATOM     13  C   UNL A   1      39.760 -37.042 -30.708  0.00  0.00    +0.021 A 
ATOM     14  C   UNL A   1      41.151 -37.237 -30.756  0.00  0.00    -0.051 A 
ATOM     15  C   UNL A   1      41.865 -36.723 -31.848  0.00  0.00    -0.061 A 
ATOM     16  C   UNL A   1      41.214 -36.030 -32.872  0.00  0.00    -0.058 A 
ATOM     17  C   UNL A   1      39.830 -35.826 -32.842  0.00  0.00    -0.019 A 
ATOM     18  C   UNL A   1      39.150 -36.347 -31.744  0.00  0.00    +0.136 A 
ATOM     19  O   UNL A   1      37.807 -36.258 -31.530  0.00  0.00    -0.452 OA
ENDBRANCH  10  11
ENDBRANCH   7  10
ENDBRANCH   1   8
BRANCH   5  20
ATOM     20  C   UNL A   1      30.442 -33.860 -31.019  0.00  0.00    +0.049 C 
BRANCH  20  21
ATOM     21  C   UNL A   1      29.869 -34.696 -29.902  0.00  0.00    -0.014 A 
ATOM     22  C   UNL A   1      29.372 -34.042 -28.756  0.00  0.00    -0.056 A 
ATOM     23  C   UNL A   1      28.840 -34.768 -27.689  0.00  0.00    -0.061 A 
ATOM     24  C   UNL A   1      28.791 -36.156 -27.745  0.00  0.00    -0.061 A 
ATOM     25  C   UNL A   1      29.270 -36.823 -28.870  0.00  0.00    -0.047 A 
ATOM     26  C   UNL A   1      29.804 -36.101 -29.943  0.00  0.00    +0.023 A 
ATOM     27 BR   UNL A   1      30.430 -37.113 -31.423  0.00  0.00    -0.050 Br
ENDBRANCH  20  21
ENDBRANCH   5  20
TORSDOF 5
ENDMDL
MODEL 16
REMARK VINA RESULT:    -7.148     17.175     19.379
REMARK INTER + INTRA:         -10.137
REMARK INTER:                  -9.370
REMARK INTRA:                  -0.767
REMARK UNBOUND:                -0.901
REMARK  Name = cpd132.pdb
REMARK  5 active torsions:
REMARK  status: ('A' for Active; 'I' for Inactive)
REMARK    1  A    between atoms: C_2  and  C_3
REMARK    2  A    between atoms: C_2  and  C_19
REMARK    3  A    between atoms: C_4  and  C_5
REMARK    4  A    between atoms: N_9  and  C_10
REMARK    5  A    between atoms: C_10  and  C_11
REMARK                            x       y       z     vdW  Elec       q    Type
REMARK                         _______ _______ _______ _____ _____    ______ ____
ROOT
ATOM      1  C   UNL A   1      43.791 -20.800 -40.349  0.00  0.00    -0.009 A 
ATOM      2  C   UNL A   1      44.119 -20.456 -41.660  0.00  0.00    -0.052 A 
ATOM      3  C   UNL A   1      45.401 -20.007 -41.959  0.00  0.00    -0.045 A 
ATOM      4  C   UNL A   1      46.339 -19.894 -40.943  0.00  0.00    +0.005 A 
ATOM      5  N   UNL A   1      46.011 -20.203 -39.666  0.00  0.00    -0.348 N 
ATOM      6  C   UNL A   1      44.768 -20.649 -39.362  0.00  0.00    +0.012 A 
ENDROOT
BRANCH   1   8
ATOM      7  C   UNL A   1      42.226 -22.297 -39.139  0.00  0.00    -0.011 C 
ATOM      8  C   UNL A   1      42.450 -21.262 -39.965  0.00  0.00    -0.049 C 
BRANCH   7  10
ATOM      9  O   UNL A   1      40.302 -23.514 -39.573  0.00  0.00    -0.284 OA
ATOM     10  C   UNL A   1      40.879 -22.813 -38.741  0.00  0.00    +0.221 C 
BRANCH  10  11
ATOM     11  C   UNL A   1      40.311 -22.514 -37.443  0.00  0.00    +0.176 A 
ATOM     12  C   UNL A   1      39.241 -21.703 -37.109  0.00  0.00    -0.005 A 
ATOM     13  C   UNL A   1      39.071 -21.790 -35.704  0.00  0.00    +0.021 A 
ATOM     14  C   UNL A   1      38.193 -21.230 -34.761  0.00  0.00    -0.051 A 
ATOM     15  C   UNL A   1      38.341 -21.583 -33.412  0.00  0.00    -0.061 A 
ATOM     16  C   UNL A   1      39.340 -22.472 -33.005  0.00  0.00    -0.058 A 
ATOM     17  C   UNL A   1      40.223 -23.040 -33.930  0.00  0.00    -0.019 A 
ATOM     18  C   UNL A   1      40.051 -22.669 -35.261  0.00  0.00    +0.136 A 
ATOM     19  O   UNL A   1      40.803 -23.109 -36.309  0.00  0.00    -0.452 OA
ENDBRANCH  10  11
ENDBRANCH   7  10
ENDBRANCH   1   8
BRANCH   5  20
ATOM     20  C   UNL A   1      47.034 -20.074 -38.593  0.00  0.00    +0.049 C 
BRANCH  20  21
ATOM     21  C   UNL A   1      46.866 -18.782 -37.834  0.00  0.00    -0.014 A 
ATOM     22  C   UNL A   1      47.048 -17.565 -38.523  0.00  0.00    -0.056 A 
ATOM     23  C   UNL A   1      46.916 -16.341 -37.867  0.00  0.00    -0.061 A 
ATOM     24  C   UNL A   1      46.596 -16.305 -36.514  0.00  0.00    -0.061 A 
ATOM     25  C   UNL A   1      46.405 -17.495 -35.815  0.00  0.00    -0.047 A 
ATOM     26  C   UNL A   1      46.537 -18.725 -36.468  0.00  0.00    +0.023 A 
ATOM     27 BR   UNL A   1      46.257 -20.281 -35.415  0.00  0.00    -0.050 Br
ENDBRANCH  20  21
ENDBRANCH   5  20
TORSDOF 5
ENDMDL
MODEL 17
REMARK VINA RESULT:    -7.119     17.228     20.337
REMARK INTER + INTRA:         -10.100
REMARK INTER:                  -9.258
REMARK INTRA:                  -0.842
REMARK UNBOUND:                -0.901
REMARK  Name = cpd132.pdb
REMARK  5 active torsions:
REMARK  status: ('A' for Active; 'I' for Inactive)
REMARK    1  A    between atoms: C_2  and  C_3
REMARK    2  A    between atoms: C_2  and  C_19
REMARK    3  A    between atoms: C_4  and  C_5
REMARK    4  A    between atoms: N_9  and  C_10
REMARK    5  A    between atoms: C_10  and  C_11
REMARK                            x       y       z     vdW  Elec       q    Type
REMARK                         _______ _______ _______ _____ _____    ______ ____
ROOT
ATOM      1  C   UNL A   1      41.818 -20.060 -38.254  0.00  0.00    -0.009 A 
ATOM      2  C   UNL A   1      40.855 -20.360 -39.218  0.00  0.00    -0.052 A 
ATOM      3  C   UNL A   1      39.514 -20.438 -38.857  0.00  0.00    -0.045 A 
ATOM      4  C   UNL A   1      39.150 -20.231 -37.534  0.00  0.00    +0.005 A 
ATOM      5  N   UNL A   1      40.089 -19.966 -36.596  0.00  0.00    -0.348 N 
ATOM      6  C   UNL A   1      41.399 -19.879 -36.934  0.00  0.00    +0.012 A 
ENDROOT
BRANCH   1   8
ATOM      7  C   UNL A   1      43.785 -19.062 -39.388  0.00  0.00    -0.011 C 
ATOM      8  C   UNL A   1      43.252 -19.981 -38.567  0.00  0.00    -0.049 C 
BRANCH   7  10
ATOM      9  O   UNL A   1      45.759 -17.861 -39.576  0.00  0.00    -0.284 OA
ATOM     10  C   UNL A   1      45.234 -18.961 -39.751  0.00  0.00    +0.221 C 
BRANCH  10  11
ATOM     11  C   UNL A   1      45.966 -20.104 -40.256  0.00  0.00    +0.176 A 
ATOM     12  C   UNL A   1      47.124 -20.695 -39.781  0.00  0.00    -0.005 A 
ATOM     13  C   UNL A   1      47.397 -21.809 -40.614  0.00  0.00    +0.021 A 
ATOM     14  C   UNL A   1      48.393 -22.799 -40.674  0.00  0.00    -0.051 A 
ATOM     15  C   UNL A   1      48.308 -23.777 -41.674  0.00  0.00    -0.061 A 
ATOM     16  C   UNL A   1      47.259 -23.776 -42.597  0.00  0.00    -0.058 A 
ATOM     17  C   UNL A   1      46.258 -22.799 -42.553  0.00  0.00    -0.019 A 
ATOM     18  C   UNL A   1      46.371 -21.840 -41.549  0.00  0.00    +0.136 A 
ATOM     19  O   UNL A   1      45.503 -20.811 -41.336  0.00  0.00    -0.452 OA
ENDBRANCH  10  11
ENDBRANCH   7  10
ENDBRANCH   1   8
BRANCH   5  20
ATOM     20  C   UNL A   1      39.674 -19.747 -35.183  0.00  0.00    +0.049 C 
BRANCH  20  21
ATOM     21  C   UNL A   1      39.961 -20.962 -34.337  0.00  0.00    -0.014 A 
ATOM     22  C   UNL A   1      39.157 -22.108 -34.508  0.00  0.00    -0.056 A 
ATOM     23  C   UNL A   1      39.371 -23.256 -33.743  0.00  0.00    -0.061 A 
ATOM     24  C   UNL A   1      40.391 -23.284 -32.798  0.00  0.00    -0.061 A 
ATOM     25  C   UNL A   1      41.201 -22.166 -32.617  0.00  0.00    -0.047 A 
ATOM     26  C   UNL A   1      40.990 -21.012 -33.380  0.00  0.00    +0.023 A 
ATOM     27 BR   UNL A   1      42.152 -19.547 -33.047  0.00  0.00    -0.050 Br
ENDBRANCH  20  21
ENDBRANCH   5  20
TORSDOF 5
ENDMDL
MODEL 18
REMARK VINA RESULT:    -7.087     18.618     20.013
REMARK INTER + INTRA:         -10.059
REMARK INTER:                  -9.634
REMARK INTRA:                  -0.425
REMARK UNBOUND:                -0.901
REMARK  Name = cpd132.pdb
REMARK  5 active torsions:
REMARK  status: ('A' for Active; 'I' for Inactive)
REMARK    1  A    between atoms: C_2  and  C_3
REMARK    2  A    between atoms: C_2  and  C_19
REMARK    3  A    between atoms: C_4  and  C_5
REMARK    4  A    between atoms: N_9  and  C_10
REMARK    5  A    between atoms: C_10  and  C_11
REMARK                            x       y       z     vdW  Elec       q    Type
REMARK                         _______ _______ _______ _____ _____    ______ ____
ROOT
ATOM      1  C   UNL A   1      45.402 -18.499 -36.292  0.00  0.00    -0.009 A 
ATOM      2  C   UNL A   1      46.300 -17.506 -36.681  0.00  0.00    -0.052 A 
ATOM      3  C   UNL A   1      47.102 -17.697 -37.802  0.00  0.00    -0.045 A 
ATOM      4  C   UNL A   1      47.008 -18.884 -38.514  0.00  0.00    +0.005 A 
ATOM      5  N   UNL A   1      46.154 -19.857 -38.120  0.00  0.00    -0.348 N 
ATOM      6  C   UNL A   1      45.361 -19.682 -37.034  0.00  0.00    +0.012 A 
ENDROOT
BRANCH   1   8
ATOM      7  C   UNL A   1      44.987 -18.481 -33.847  0.00  0.00    -0.011 C 
ATOM      8  C   UNL A   1      44.541 -18.366 -35.108  0.00  0.00    -0.049 C 
BRANCH   7  10
ATOM      9  O   UNL A   1      44.707 -17.953 -31.607  0.00  0.00    -0.284 OA
ATOM     10  C   UNL A   1      44.141 -18.375 -32.616  0.00  0.00    +0.221 C 
BRANCH  10  11
ATOM     11  C   UNL A   1      42.738 -18.732 -32.633  0.00  0.00    +0.176 A 
ATOM     12  C   UNL A   1      42.139 -19.965 -32.823  0.00  0.00    -0.005 A 
ATOM     13  C   UNL A   1      40.740 -19.774 -32.702  0.00  0.00    +0.021 A 
ATOM     14  C   UNL A   1      39.602 -20.595 -32.785  0.00  0.00    -0.051 A 
ATOM     15  C   UNL A   1      38.340 -20.017 -32.587  0.00  0.00    -0.061 A 
ATOM     16  C   UNL A   1      38.207 -18.653 -32.313  0.00  0.00    -0.058 A 
ATOM     17  C   UNL A   1      39.328 -17.820 -32.227  0.00  0.00    -0.019 A 
ATOM     18  C   UNL A   1      40.567 -18.423 -32.430  0.00  0.00    +0.136 A 
ATOM     19  O   UNL A   1      41.772 -17.790 -32.386  0.00  0.00    -0.452 OA
ENDBRANCH  10  11
ENDBRANCH   7  10
ENDBRANCH   1   8
BRANCH   5  20
ATOM     20  C   UNL A   1      46.071 -21.121 -38.900  0.00  0.00    +0.049 C 
BRANCH  20  21
ATOM     21  C   UNL A   1      45.552 -20.868 -40.293  0.00  0.00    -0.014 A 
ATOM     22  C   UNL A   1      44.774 -19.715 -40.524  0.00  0.00    -0.056 A 
ATOM     23  C   UNL A   1      44.259 -19.437 -41.792  0.00  0.00    -0.061 A 
ATOM     24  C   UNL A   1      44.513 -20.301 -42.852  0.00  0.00    -0.061 A 
ATOM     25  C   UNL A   1      45.285 -21.442 -42.648  0.00  0.00    -0.047 A 
ATOM     26  C   UNL A   1      45.802 -21.726 -41.380  0.00  0.00    +0.023 A 
ATOM     27 BR   UNL A   1      46.838 -23.310 -41.218  0.00  0.00    -0.050 Br
ENDBRANCH  20  21
ENDBRANCH   5  20
TORSDOF 5
ENDMDL
MODEL 19
REMARK VINA RESULT:    -6.827     18.172     20.787
REMARK INTER + INTRA:          -9.723
REMARK INTER:                  -9.167
REMARK INTRA:                  -0.556
REMARK UNBOUND:                -0.901
REMARK  Name = cpd132.pdb
REMARK  5 active torsions:
REMARK  status: ('A' for Active; 'I' for Inactive)
REMARK    1  A    between atoms: C_2  and  C_3
REMARK    2  A    between atoms: C_2  and  C_19
REMARK    3  A    between atoms: C_4  and  C_5
REMARK    4  A    between atoms: N_9  and  C_10
REMARK    5  A    between atoms: C_10  and  C_11
REMARK                            x       y       z     vdW  Elec       q    Type
REMARK                         _______ _______ _______ _____ _____    ______ ____
ROOT
ATOM      1  C   UNL A   1      41.116 -20.752 -36.831  0.00  0.00    -0.009 A 
ATOM      2  C   UNL A   1      40.184 -21.633 -37.378  0.00  0.00    -0.052 A 
ATOM      3  C   UNL A   1      39.162 -22.143 -36.584  0.00  0.00    -0.045 A 
ATOM      4  C   UNL A   1      39.091 -21.777 -35.247  0.00  0.00    +0.005 A 
ATOM      5  N   UNL A   1      40.012 -20.942 -34.711  0.00  0.00    -0.348 N 
ATOM      6  C   UNL A   1      41.008 -20.431 -35.476  0.00  0.00    +0.012 A 
ENDROOT
BRANCH   1   8
ATOM      7  C   UNL A   1      42.423 -20.444 -38.917  0.00  0.00    -0.011 C 
ATOM      8  C   UNL A   1      42.229 -20.194 -37.612  0.00  0.00    -0.049 C 
BRANCH   7  10
ATOM      9  O   UNL A   1      43.598 -18.692 -39.878  0.00  0.00    -0.284 OA
ATOM     10  C   UNL A   1      43.554 -19.915 -39.743  0.00  0.00    +0.221 C 
BRANCH  10  11
ATOM     11  C   UNL A   1      44.541 -20.800 -40.324  0.00  0.00    +0.176 A 
ATOM     12  C   UNL A   1      44.564 -21.408 -41.567  0.00  0.00    -0.005 A 
ATOM     13  C   UNL A   1      45.775 -22.139 -41.654  0.00  0.00    +0.021 A 
ATOM     14  C   UNL A   1      46.391 -22.953 -42.620  0.00  0.00    -0.051 A 
ATOM     15  C   UNL A   1      47.645 -23.510 -42.328  0.00  0.00    -0.061 A 
ATOM     16  C   UNL A   1      48.275 -23.266 -41.105  0.00  0.00    -0.058 A 
ATOM     17  C   UNL A   1      47.678 -22.459 -40.132  0.00  0.00    -0.019 A 
ATOM     18  C   UNL A   1      46.432 -21.921 -40.450  0.00  0.00    +0.136 A 
ATOM     19  O   UNL A   1      45.690 -21.112 -39.643  0.00  0.00    -0.452 OA
ENDBRANCH  10  11
ENDBRANCH   7  10
ENDBRANCH   1   8
BRANCH   5  20
ATOM     20  C   UNL A   1      39.914 -20.564 -33.275  0.00  0.00    +0.049 C 
BRANCH  20  21
ATOM     21  C   UNL A   1      38.720 -19.677 -33.026  0.00  0.00    -0.014 A 
ATOM     22  C   UNL A   1      37.459 -20.279 -32.841  0.00  0.00    -0.056 A 
ATOM     23  C   UNL A   1      36.318 -19.506 -32.618  0.00  0.00    -0.061 A 
ATOM     24  C   UNL A   1      36.415 -18.119 -32.571  0.00  0.00    -0.061 A 
ATOM     25  C   UNL A   1      37.652 -17.503 -32.745  0.00  0.00    -0.047 A 
ATOM     26  C   UNL A   1      38.797 -18.274 -32.970  0.00  0.00    +0.023 A 
ATOM     27 BR   UNL A   1      40.429 -17.327 -33.195  0.00  0.00    -0.050 Br
ENDBRANCH  20  21
ENDBRANCH   5  20
TORSDOF 5
ENDMDL
MODEL 20
REMARK VINA RESULT:    -6.554     17.313     20.416
REMARK INTER + INTRA:          -9.370
REMARK INTER:                  -8.589
REMARK INTRA:                  -0.781
REMARK UNBOUND:                -0.901
REMARK  Name = cpd132.pdb
REMARK  5 active torsions:
REMARK  status: ('A' for Active; 'I' for Inactive)
REMARK    1  A    between atoms: C_2  and  C_3
REMARK    2  A    between atoms: C_2  and  C_19
REMARK    3  A    between atoms: C_4  and  C_5
REMARK    4  A    between atoms: N_9  and  C_10
REMARK    5  A    between atoms: C_10  and  C_11
REMARK                            x       y       z     vdW  Elec       q    Type
REMARK                         _______ _______ _______ _____ _____    ______ ____
ROOT
ATOM      1  C   UNL A   1      43.575 -18.935 -35.342  0.00  0.00    -0.009 A 
ATOM      2  C   UNL A   1      43.913 -18.891 -33.989  0.00  0.00    -0.052 A 
ATOM      3  C   UNL A   1      42.919 -18.993 -33.022  0.00  0.00    -0.045 A 
ATOM      4  C   UNL A   1      41.595 -19.125 -33.416  0.00  0.00    +0.005 A 
ATOM      5  N   UNL A   1      41.265 -19.142 -34.729  0.00  0.00    -0.348 N 
ATOM      6  C   UNL A   1      42.225 -19.051 -35.683  0.00  0.00    +0.012 A 
ENDROOT
BRANCH   1   8
ATOM      7  C   UNL A   1      44.268 -18.759 -37.717  0.00  0.00    -0.011 C 
ATOM      8  C   UNL A   1      44.576 -18.813 -36.411  0.00  0.00    -0.049 C 
BRANCH   7  10
ATOM      9  O   UNL A   1      45.756 -17.547 -39.017  0.00  0.00    -0.284 OA
ATOM     10  C   UNL A   1      45.256 -18.657 -38.837  0.00  0.00    +0.221 C 
BRANCH  10  11
ATOM     11  C   UNL A   1      45.608 -19.811 -39.637  0.00  0.00    +0.176 A 
ATOM     12  C   UNL A   1      45.018 -20.306 -40.787  0.00  0.00    -0.005 A 
ATOM     13  C   UNL A   1      45.776 -21.431 -41.197  0.00  0.00    +0.021 A 
ATOM     14  C   UNL A   1      45.713 -22.356 -42.253  0.00  0.00    -0.051 A 
ATOM     15  C   UNL A   1      46.689 -23.359 -42.327  0.00  0.00    -0.061 A 
ATOM     16  C   UNL A   1      47.708 -23.446 -41.375  0.00  0.00    -0.058 A 
ATOM     17  C   UNL A   1      47.788 -22.534 -40.317  0.00  0.00    -0.019 A 
ATOM     18  C   UNL A   1      46.803 -21.550 -40.269  0.00  0.00    +0.136 A 
ATOM     19  O   UNL A   1      46.706 -20.572 -39.325  0.00  0.00    -0.452 OA
ENDBRANCH  10  11
ENDBRANCH   7  10
ENDBRANCH   1   8
BRANCH   5  20
ATOM     20  C   UNL A   1      39.839 -19.285 -35.127  0.00  0.00    +0.049 C 
BRANCH  20  21
ATOM     21  C   UNL A   1      39.265 -20.591 -34.638  0.00  0.00    -0.014 A 
ATOM     22  C   UNL A   1      39.741 -21.791 -35.206  0.00  0.00    -0.056 A 
ATOM     23  C   UNL A   1      39.238 -23.028 -34.799  0.00  0.00    -0.061 A 
ATOM     24  C   UNL A   1      38.254 -23.091 -33.818  0.00  0.00    -0.061 A 
ATOM     25  C   UNL A   1      37.774 -21.919 -33.239  0.00  0.00    -0.047 A 
ATOM     26  C   UNL A   1      38.275 -20.677 -33.643  0.00  0.00    +0.023 A 
ATOM     27 BR   UNL A   1      37.546 -19.146 -32.788  0.00  0.00    -0.050 Br
ENDBRANCH  20  21
ENDBRANCH   5  20
TORSDOF 5
ENDMDL
