REMARK  Name = cpd264.pdb
REMARK  7 active torsions:
REMARK  status: ('A' for Active; 'I' for Inactive)
REMARK    1  A    between atoms: C_4  and  C_5
REMARK    2  A    between atoms: C_8  and  N_9
REMARK    3  A    between atoms: N_9  and  C_10
REMARK    4  A    between atoms: C_10  and  C_11
REMARK    5  A    between atoms: C_11  and  C_12
REMARK    6  A    between atoms: C_12  and  C_13
REMARK    7  A    between atoms: C_13  and  N_14
REMARK                            x       y       z     vdW  Elec       q    Type
REMARK                         _______ _______ _______ _____ _____    ______ ____
ROOT
ATOM      1  C   UNL     1       5.543  -1.304   0.172  0.00  0.00    +0.011 C 
ENDROOT
BRANCH   1   2
ATOM      2  N   UNL     1       4.520  -2.086  -0.522  0.00  0.00    -0.328 N 
ATOM      3  H   UNL     1       4.739  -2.864  -1.084  0.00  0.00    +0.000 HD
BRANCH   2   7
ATOM      4  C   UNL     1       0.572  -0.913   0.090  0.00  0.00    +0.093 A 
ATOM      5  C   UNL     1       1.453  -0.010  -0.490  0.00  0.00    -0.031 A 
ATOM      6  C   UNL     1       2.783  -0.381  -0.697  0.00  0.00    -0.018 A 
ATOM      7  C   UNL     1       3.206  -1.645  -0.326  0.00  0.00    +0.141 A 
ATOM      8  N   UNL     1       2.330  -2.512   0.209  0.00  0.00    -0.134 NA
ATOM      9  N   UNL     1       1.014  -2.145   0.427  0.00  0.00    -0.147 NA
BRANCH   4  13
ATOM     10  C   UNL     1      -3.593  -0.113   0.864  0.00  0.00    -0.062 A 
ATOM     11  C   UNL     1      -2.686   0.939   0.798  0.00  0.00    -0.061 A 
ATOM     12  C   UNL     1      -1.332   0.685   0.550  0.00  0.00    -0.053 A 
ATOM     13  C   UNL     1      -0.852  -0.625   0.358  0.00  0.00    +0.002 A 
ATOM     14  C   UNL     1      -1.795  -1.669   0.439  0.00  0.00    -0.053 A 
ATOM     15  C   UNL     1      -3.148  -1.418   0.688  0.00  0.00    -0.061 A 
ENDBRANCH   4  13
ENDBRANCH   2   7
ENDBRANCH   1   2
BRANCH   1  16
ATOM     16  C   UNL     1       6.376  -0.516  -0.839  0.00  0.00    -0.036 C 
BRANCH  16  17
ATOM     17  C   UNL     1       7.518   0.235  -0.150  0.00  0.00    -0.039 C 
BRANCH  17  18
ATOM     18  C   UNL     1       8.283   1.114  -1.148  0.00  0.00    -0.001 C 
BRANCH  18  19
ATOM     19  N   UNL     1       9.332   1.915  -0.497  0.00  0.00    -0.298 N 
ATOM     20  C   UNL     1       9.811   2.969  -1.407  0.00  0.00    +0.003 C 
ATOM     21  C   UNL     1      10.749   3.936  -0.673  0.00  0.00    -0.015 C 
ATOM     22  C   UNL     1      11.839   3.216   0.075  0.00  0.00    -0.042 A 
ATOM     23  C   UNL     1      12.979   3.909   0.503  0.00  0.00    -0.058 A 
ATOM     24  C   UNL     1      13.976   3.248   1.221  0.00  0.00    -0.061 A 
ATOM     25  C   UNL     1      13.837   1.895   1.522  0.00  0.00    -0.061 A 
ATOM     26  C   UNL     1      12.698   1.202   1.111  0.00  0.00    -0.057 A 
ATOM     27  C   UNL     1      11.683   1.857   0.397  0.00  0.00    -0.030 A 
ATOM     28  C   UNL     1      10.474   1.074  -0.076  0.00  0.00    +0.024 C 
ATOM     29  H   UNL     1       8.920   2.340   0.334  0.00  0.00    +0.000 HD
ENDBRANCH  18  19
ENDBRANCH  17  18
ENDBRANCH  16  17
ENDBRANCH   1  16
TORSDOF 7
