MODEL 1
REMARK VINA RESULT:    -9.034      0.000      0.000
REMARK INTER + INTRA:         -13.835
REMARK INTER:                 -12.730
REMARK INTRA:                  -1.104
REMARK UNBOUND:                -1.104
REMARK  Name = cpd264.pdb
REMARK  7 active torsions:
REMARK  status: ('A' for Active; 'I' for Inactive)
REMARK    1  A    between atoms: C_4  and  C_5
REMARK    2  A    between atoms: C_8  and  N_9
REMARK    3  A    between atoms: N_9  and  C_10
REMARK    4  A    between atoms: C_10  and  C_11
REMARK    5  A    between atoms: C_11  and  C_12
REMARK    6  A    between atoms: C_12  and  C_13
REMARK    7  A    between atoms: C_13  and  N_14
REMARK                            x       y       z     vdW  Elec       q    Type
REMARK                         _______ _______ _______ _____ _____    ______ ____
ROOT
ATOM      1  C   UNL     1      40.140 -35.010 -31.397  0.00  0.00    +0.011 C 
ENDROOT
BRANCH   1   2
ATOM      2  N   UNL     1      41.536 -35.263 -31.751  0.00  0.00    -0.328 N 
ATOM      3  H   UNL     1      42.056 -34.654 -32.323  0.00  0.00    +0.000 HD
BRANCH   2   7
ATOM      4  C   UNL     1      43.273 -38.724 -30.222  0.00  0.00    +0.093 A 
ATOM      5  C   UNL     1      41.894 -38.582 -30.146  0.00  0.00    -0.031 A 
ATOM      6  C   UNL     1      41.292 -37.425 -30.647  0.00  0.00    -0.018 A 
ATOM      7  C   UNL     1      42.077 -36.438 -31.215  0.00  0.00    +0.141 A 
ATOM      8  N   UNL     1      43.407 -36.609 -31.302  0.00  0.00    -0.134 NA
ATOM      9  N   UNL     1      44.008 -37.748 -30.797  0.00  0.00    -0.147 NA
BRANCH   4  13
ATOM     10  C   UNL     1      45.429 -42.144 -28.723  0.00  0.00    -0.062 A 
ATOM     11  C   UNL     1      45.288 -41.960 -30.094  0.00  0.00    -0.061 A 
ATOM     12  C   UNL     1      44.587 -40.853 -30.586  0.00  0.00    -0.053 A 
ATOM     13  C   UNL     1      44.012 -39.902 -29.721  0.00  0.00    +0.002 A 
ATOM     14  C   UNL     1      44.166 -40.121 -28.338  0.00  0.00    -0.053 A 
ATOM     15  C   UNL     1      44.865 -41.227 -27.844  0.00  0.00    -0.061 A 
ENDBRANCH   4  13
ENDBRANCH   2   7
ENDBRANCH   1   2
BRANCH   1  16
ATOM     16  C   UNL     1      39.242 -35.223 -32.616  0.00  0.00    -0.036 C 
BRANCH  16  17
ATOM     17  C   UNL     1      37.819 -35.601 -32.197  0.00  0.00    -0.039 C 
BRANCH  17  18
ATOM     18  C   UNL     1      37.638 -35.473 -30.679  0.00  0.00    -0.001 C 
BRANCH  18  19
ATOM     19  N   UNL     1      37.009 -36.665 -30.089  0.00  0.00    -0.298 N 
ATOM     20  C   UNL     1      37.883 -37.248 -29.057  0.00  0.00    +0.003 C 
ATOM     21  C   UNL     1      37.155 -38.361 -28.292  0.00  0.00    -0.015 C 
ATOM     22  C   UNL     1      36.524 -39.368 -29.216  0.00  0.00    -0.042 A 
ATOM     23  C   UNL     1      36.130 -40.622 -28.730  0.00  0.00    -0.058 A 
ATOM     24  C   UNL     1      35.519 -41.545 -29.579  0.00  0.00    -0.061 A 
ATOM     25  C   UNL     1      35.292 -41.220 -30.914  0.00  0.00    -0.061 A 
ATOM     26  C   UNL     1      35.669 -39.968 -31.401  0.00  0.00    -0.057 A 
ATOM     27  C   UNL     1      36.275 -39.026 -30.556  0.00  0.00    -0.030 A 
ATOM     28  C   UNL     1      36.715 -37.688 -31.117  0.00  0.00    +0.024 C 
ATOM     29  H   UNL     1      36.129 -36.369 -29.666  0.00  0.00    +0.000 HD
ENDBRANCH  18  19
ENDBRANCH  17  18
ENDBRANCH  16  17
ENDBRANCH   1  16
TORSDOF 7
ENDMDL
MODEL 2
REMARK VINA RESULT:    -8.702      2.443      4.194
REMARK INTER + INTRA:         -13.368
REMARK INTER:                 -11.499
REMARK INTRA:                  -1.868
REMARK UNBOUND:                -1.104
REMARK  Name = cpd264.pdb
REMARK  7 active torsions:
REMARK  status: ('A' for Active; 'I' for Inactive)
REMARK    1  A    between atoms: C_4  and  C_5
REMARK    2  A    between atoms: C_8  and  N_9
REMARK    3  A    between atoms: N_9  and  C_10
REMARK    4  A    between atoms: C_10  and  C_11
REMARK    5  A    between atoms: C_11  and  C_12
REMARK    6  A    between atoms: C_12  and  C_13
REMARK    7  A    between atoms: C_13  and  N_14
REMARK                            x       y       z     vdW  Elec       q    Type
REMARK                         _______ _______ _______ _____ _____    ______ ____
ROOT
ATOM      1  C   UNL     1      34.737 -34.814 -31.518  0.00  0.00    +0.011 C 
ENDROOT
BRANCH   1   2
ATOM      2  N   UNL     1      36.011 -34.094 -31.521  0.00  0.00    -0.328 N 
ATOM      3  H   UNL     1      36.068 -33.120 -31.653  0.00  0.00    +0.000 HD
BRANCH   2   7
ATOM      4  C   UNL     1      39.454 -36.379 -31.009  0.00  0.00    +0.093 A 
ATOM      5  C   UNL     1      38.230 -36.928 -30.650  0.00  0.00    -0.031 A 
ATOM      6  C   UNL     1      37.064 -36.176 -30.806  0.00  0.00    -0.018 A 
ATOM      7  C   UNL     1      37.142 -34.894 -31.322  0.00  0.00    +0.141 A 
ATOM      8  N   UNL     1      38.333 -34.393 -31.688  0.00  0.00    -0.134 NA
ATOM      9  N   UNL     1      39.493 -35.130 -31.524  0.00  0.00    -0.147 NA
BRANCH   4  13
ATOM     10  C   UNL     1      43.241 -38.412 -30.673  0.00  0.00    -0.062 A 
ATOM     11  C   UNL     1      42.172 -38.801 -29.872  0.00  0.00    -0.061 A 
ATOM     12  C   UNL     1      40.941 -38.142 -29.975  0.00  0.00    -0.053 A 
ATOM     13  C   UNL     1      40.746 -37.083 -30.882  0.00  0.00    +0.002 A 
ATOM     14  C   UNL     1      41.851 -36.708 -31.673  0.00  0.00    -0.053 A 
ATOM     15  C   UNL     1      43.082 -37.363 -31.571  0.00  0.00    -0.061 A 
ENDBRANCH   4  13
ENDBRANCH   2   7
ENDBRANCH   1   2
BRANCH   1  16
ATOM     16  C   UNL     1      33.742 -34.115 -30.592  0.00  0.00    -0.036 C 
BRANCH  16  17
ATOM     17  C   UNL     1      33.973 -34.512 -29.131  0.00  0.00    -0.039 C 
BRANCH  17  18
ATOM     18  C   UNL     1      33.060 -35.676 -28.724  0.00  0.00    -0.001 C 
BRANCH  18  19
ATOM     19  N   UNL     1      33.815 -36.912 -28.463  0.00  0.00    -0.298 N 
ATOM     20  C   UNL     1      35.168 -36.594 -27.977  0.00  0.00    +0.003 C 
ATOM     21  C   UNL     1      35.889 -37.863 -27.505  0.00  0.00    -0.015 C 
ATOM     22  C   UNL     1      35.838 -38.963 -28.531  0.00  0.00    -0.042 A 
ATOM     23  C   UNL     1      36.719 -40.049 -28.447  0.00  0.00    -0.058 A 
ATOM     24  C   UNL     1      36.653 -41.083 -29.382  0.00  0.00    -0.061 A 
ATOM     25  C   UNL     1      35.703 -41.042 -30.400  0.00  0.00    -0.061 A 
ATOM     26  C   UNL     1      34.814 -39.970 -30.482  0.00  0.00    -0.057 A 
ATOM     27  C   UNL     1      34.863 -38.929 -29.542  0.00  0.00    -0.030 A 
ATOM     28  C   UNL     1      33.914 -37.753 -29.676  0.00  0.00    +0.024 C 
ATOM     29  H   UNL     1      33.308 -37.434 -27.748  0.00  0.00    +0.000 HD
ENDBRANCH  18  19
ENDBRANCH  17  18
ENDBRANCH  16  17
ENDBRANCH   1  16
TORSDOF 7
ENDMDL
MODEL 3
REMARK VINA RESULT:    -8.254      3.603      5.114
REMARK INTER + INTRA:         -12.737
REMARK INTER:                 -12.106
REMARK INTRA:                  -0.631
REMARK UNBOUND:                -1.104
REMARK  Name = cpd264.pdb
REMARK  7 active torsions:
REMARK  status: ('A' for Active; 'I' for Inactive)
REMARK    1  A    between atoms: C_4  and  C_5
REMARK    2  A    between atoms: C_8  and  N_9
REMARK    3  A    between atoms: N_9  and  C_10
REMARK    4  A    between atoms: C_10  and  C_11
REMARK    5  A    between atoms: C_11  and  C_12
REMARK    6  A    between atoms: C_12  and  C_13
REMARK    7  A    between atoms: C_13  and  N_14
REMARK                            x       y       z     vdW  Elec       q    Type
REMARK                         _______ _______ _______ _____ _____    ______ ____
ROOT
ATOM      1  C   UNL     1      38.091 -37.870 -29.484  0.00  0.00    +0.011 C 
ENDROOT
BRANCH   1   2
ATOM      2  N   UNL     1      39.225 -36.974 -29.711  0.00  0.00    -0.328 N 
ATOM      3  H   UNL     1      39.126 -35.995 -29.751  0.00  0.00    +0.000 HD
BRANCH   2   7
ATOM      4  C   UNL     1      42.901 -38.903 -30.026  0.00  0.00    +0.093 A 
ATOM      5  C   UNL     1      42.452 -38.145 -31.099  0.00  0.00    -0.031 A 
ATOM      6  C   UNL     1      41.219 -37.497 -31.017  0.00  0.00    -0.018 A 
ATOM      7  C   UNL     1      40.461 -37.613 -29.865  0.00  0.00    +0.141 A 
ATOM      8  N   UNL     1      40.927 -38.329 -28.828  0.00  0.00    -0.134 NA
ATOM      9  N   UNL     1      42.143 -38.983 -28.910  0.00  0.00    -0.147 NA
BRANCH   4  13
ATOM     10  C   UNL     1      46.629 -41.068 -29.980  0.00  0.00    -0.062 A 
ATOM     11  C   UNL     1      46.590 -39.747 -29.548  0.00  0.00    -0.061 A 
ATOM     12  C   UNL     1      45.383 -39.038 -29.563  0.00  0.00    -0.053 A 
ATOM     13  C   UNL     1      44.185 -39.633 -30.007  0.00  0.00    +0.002 A 
ATOM     14  C   UNL     1      44.261 -40.970 -30.445  0.00  0.00    -0.053 A 
ATOM     15  C   UNL     1      45.465 -41.680 -30.432  0.00  0.00    -0.061 A 
ENDBRANCH   4  13
ENDBRANCH   2   7
ENDBRANCH   1   2
BRANCH   1  16
ATOM     16  C   UNL     1      37.033 -37.662 -30.568  0.00  0.00    -0.036 C 
BRANCH  16  17
ATOM     17  C   UNL     1      36.049 -36.557 -30.176  0.00  0.00    -0.039 C 
BRANCH  17  18
ATOM     18  C   UNL     1      36.323 -35.269 -30.963  0.00  0.00    -0.001 C 
BRANCH  18  19
ATOM     19  N   UNL     1      35.167 -34.358 -30.964  0.00  0.00    -0.298 N 
ATOM     20  C   UNL     1      35.615 -32.962 -31.102  0.00  0.00    +0.003 C 
ATOM     21  C   UNL     1      34.418 -32.026 -31.314  0.00  0.00    -0.015 C 
ATOM     22  C   UNL     1      33.340 -32.236 -30.284  0.00  0.00    -0.042 A 
ATOM     23  C   UNL     1      32.350 -31.264 -30.089  0.00  0.00    -0.058 A 
ATOM     24  C   UNL     1      31.335 -31.472 -29.154  0.00  0.00    -0.061 A 
ATOM     25  C   UNL     1      31.298 -32.652 -28.416  0.00  0.00    -0.061 A 
ATOM     26  C   UNL     1      32.273 -33.630 -28.615  0.00  0.00    -0.057 A 
ATOM     27  C   UNL     1      33.294 -33.439 -29.558  0.00  0.00    -0.030 A 
ATOM     28  C   UNL     1      34.367 -34.497 -29.727  0.00  0.00    +0.024 C 
ATOM     29  H   UNL     1      34.580 -34.611 -31.759  0.00  0.00    +0.000 HD
ENDBRANCH  18  19
ENDBRANCH  17  18
ENDBRANCH  16  17
ENDBRANCH   1  16
TORSDOF 7
ENDMDL
MODEL 4
REMARK VINA RESULT:    -8.030      4.996      7.438
REMARK INTER + INTRA:         -12.420
REMARK INTER:                  -8.644
REMARK INTRA:                  -3.776
REMARK UNBOUND:                -1.104
REMARK  Name = cpd264.pdb
REMARK  7 active torsions:
REMARK  status: ('A' for Active; 'I' for Inactive)
REMARK    1  A    between atoms: C_4  and  C_5
REMARK    2  A    between atoms: C_8  and  N_9
REMARK    3  A    between atoms: N_9  and  C_10
REMARK    4  A    between atoms: C_10  and  C_11
REMARK    5  A    between atoms: C_11  and  C_12
REMARK    6  A    between atoms: C_12  and  C_13
REMARK    7  A    between atoms: C_13  and  N_14
REMARK                            x       y       z     vdW  Elec       q    Type
REMARK                         _______ _______ _______ _____ _____    ______ ____
ROOT
ATOM      1  C   UNL     1      30.883 -32.944 -30.248  0.00  0.00    +0.011 C 
ENDROOT
BRANCH   1   2
ATOM      2  N   UNL     1      32.142 -32.350 -29.798  0.00  0.00    -0.328 N 
ATOM      3  H   UNL     1      32.215 -31.406 -29.529  0.00  0.00    +0.000 HD
BRANCH   2   7
ATOM      4  C   UNL     1      35.342 -35.007 -29.615  0.00  0.00    +0.093 A 
ATOM      5  C   UNL     1      35.381 -33.981 -30.549  0.00  0.00    -0.031 A 
ATOM      6  C   UNL     1      34.315 -33.083 -30.632  0.00  0.00    -0.018 A 
ATOM      7  C   UNL     1      33.234 -33.225 -29.780  0.00  0.00    +0.141 A 
ATOM      8  N   UNL     1      33.230 -34.209 -28.865  0.00  0.00    -0.134 NA
ATOM      9  N   UNL     1      34.279 -35.108 -28.787  0.00  0.00    -0.147 NA
BRANCH   4  13
ATOM     10  C   UNL     1      38.476 -37.932 -29.155  0.00  0.00    -0.062 A 
ATOM     11  C   UNL     1      37.474 -37.833 -28.196  0.00  0.00    -0.061 A 
ATOM     12  C   UNL     1      36.456 -36.883 -28.338  0.00  0.00    -0.053 A 
ATOM     13  C   UNL     1      36.411 -36.012 -29.444  0.00  0.00    +0.002 A 
ATOM     14  C   UNL     1      37.445 -36.133 -30.394  0.00  0.00    -0.053 A 
ATOM     15  C   UNL     1      38.465 -37.080 -30.253  0.00  0.00    -0.061 A 
ENDBRANCH   4  13
ENDBRANCH   2   7
ENDBRANCH   1   2
BRANCH   1  16
ATOM     16  C   UNL     1      30.948 -33.237 -31.747  0.00  0.00    -0.036 C 
BRANCH  16  17
ATOM     17  C   UNL     1      30.454 -34.652 -32.056  0.00  0.00    -0.039 C 
BRANCH  17  18
ATOM     18  C   UNL     1      30.659 -35.584 -30.855  0.00  0.00    -0.001 C 
BRANCH  18  19
ATOM     19  N   UNL     1      31.989 -36.215 -30.857  0.00  0.00    -0.298 N 
ATOM     20  C   UNL     1      32.429 -36.477 -32.238  0.00  0.00    +0.003 C 
ATOM     21  C   UNL     1      33.892 -36.939 -32.263  0.00  0.00    -0.015 C 
ATOM     22  C   UNL     1      34.151 -38.067 -31.302  0.00  0.00    -0.042 A 
ATOM     23  C   UNL     1      35.305 -38.852 -31.427  0.00  0.00    -0.058 A 
ATOM     24  C   UNL     1      35.560 -39.879 -30.518  0.00  0.00    -0.061 A 
ATOM     25  C   UNL     1      34.668 -40.125 -29.476  0.00  0.00    -0.061 A 
ATOM     26  C   UNL     1      33.524 -39.338 -29.337  0.00  0.00    -0.057 A 
ATOM     27  C   UNL     1      33.261 -38.295 -30.238  0.00  0.00    -0.030 A 
ATOM     28  C   UNL     1      31.990 -37.481 -30.093  0.00  0.00    +0.024 C 
ATOM     29  H   UNL     1      32.635 -35.565 -30.408  0.00  0.00    +0.000 HD
ENDBRANCH  18  19
ENDBRANCH  17  18
ENDBRANCH  16  17
ENDBRANCH   1  16
TORSDOF 7
ENDMDL
MODEL 5
REMARK VINA RESULT:    -7.845     20.661     21.924
REMARK INTER + INTRA:         -12.160
REMARK INTER:                  -8.198
REMARK INTRA:                  -3.962
REMARK UNBOUND:                -1.104
REMARK  Name = cpd264.pdb
REMARK  7 active torsions:
REMARK  status: ('A' for Active; 'I' for Inactive)
REMARK    1  A    between atoms: C_4  and  C_5
REMARK    2  A    between atoms: C_8  and  N_9
REMARK    3  A    between atoms: N_9  and  C_10
REMARK    4  A    between atoms: C_10  and  C_11
REMARK    5  A    between atoms: C_11  and  C_12
REMARK    6  A    between atoms: C_12  and  C_13
REMARK    7  A    between atoms: C_13  and  N_14
REMARK                            x       y       z     vdW  Elec       q    Type
REMARK                         _______ _______ _______ _____ _____    ______ ____
ROOT
ATOM      1  C   UNL     1      44.362 -16.663 -34.992  0.00  0.00    +0.011 C 
ENDROOT
BRANCH   1   2
ATOM      2  N   UNL     1      45.544 -17.504 -34.804  0.00  0.00    -0.328 N 
ATOM      3  H   UNL     1      46.066 -17.505 -33.970  0.00  0.00    +0.000 HD
BRANCH   2   7
ATOM      4  C   UNL     1      46.508 -19.786 -38.151  0.00  0.00    +0.093 A 
ATOM      5  C   UNL     1      46.262 -20.437 -36.950  0.00  0.00    -0.031 A 
ATOM      6  C   UNL     1      45.945 -19.690 -35.814  0.00  0.00    -0.018 A 
ATOM      7  C   UNL     1      45.874 -18.311 -35.900  0.00  0.00    +0.141 A 
ATOM      8  N   UNL     1      46.090 -17.703 -37.079  0.00  0.00    -0.134 NA
ATOM      9  N   UNL     1      46.417 -18.439 -38.205  0.00  0.00    -0.147 NA
BRANCH   4  13
ATOM     10  C   UNL     1      47.519 -21.836 -41.807  0.00  0.00    -0.062 A 
ATOM     11  C   UNL     1      47.624 -20.451 -41.737  0.00  0.00    -0.061 A 
ATOM     12  C   UNL     1      47.294 -19.780 -40.554  0.00  0.00    -0.053 A 
ATOM     13  C   UNL     1      46.856 -20.476 -39.411  0.00  0.00    +0.002 A 
ATOM     14  C   UNL     1      46.753 -21.877 -39.516  0.00  0.00    -0.053 A 
ATOM     15  C   UNL     1      47.081 -22.550 -40.698  0.00  0.00    -0.061 A 
ENDBRANCH   4  13
ENDBRANCH   2   7
ENDBRANCH   1   2
BRANCH   1  16
ATOM     16  C   UNL     1      43.093 -17.482 -34.760  0.00  0.00    -0.036 C 
BRANCH  16  17
ATOM     17  C   UNL     1      42.236 -17.547 -36.026  0.00  0.00    -0.039 C 
BRANCH  17  18
ATOM     18  C   UNL     1      42.358 -18.916 -36.707  0.00  0.00    -0.001 C 
BRANCH  18  19
ATOM     19  N   UNL     1      43.097 -18.844 -37.978  0.00  0.00    -0.298 N 
ATOM     20  C   UNL     1      42.731 -17.623 -38.715  0.00  0.00    +0.003 C 
ATOM     21  C   UNL     1      43.642 -17.430 -39.934  0.00  0.00    -0.015 C 
ATOM     22  C   UNL     1      43.728 -18.669 -40.784  0.00  0.00    -0.042 A 
ATOM     23  C   UNL     1      44.206 -18.593 -42.099  0.00  0.00    -0.058 A 
ATOM     24  C   UNL     1      44.312 -19.746 -42.877  0.00  0.00    -0.061 A 
ATOM     25  C   UNL     1      43.948 -20.981 -42.346  0.00  0.00    -0.061 A 
ATOM     26  C   UNL     1      43.484 -21.066 -41.033  0.00  0.00    -0.057 A 
ATOM     27  C   UNL     1      43.382 -19.916 -40.236  0.00  0.00    -0.030 A 
ATOM     28  C   UNL     1      42.835 -20.027 -38.826  0.00  0.00    +0.024 C 
ATOM     29  H   UNL     1      44.092 -18.823 -37.752  0.00  0.00    +0.000 HD
ENDBRANCH  18  19
ENDBRANCH  17  18
ENDBRANCH  16  17
ENDBRANCH   1  16
TORSDOF 7
ENDMDL
MODEL 6
REMARK VINA RESULT:    -7.563     24.350     26.946
REMARK INTER + INTRA:         -11.762
REMARK INTER:                  -7.851
REMARK INTRA:                  -3.911
REMARK UNBOUND:                -1.104
REMARK  Name = cpd264.pdb
REMARK  7 active torsions:
REMARK  status: ('A' for Active; 'I' for Inactive)
REMARK    1  A    between atoms: C_4  and  C_5
REMARK    2  A    between atoms: C_8  and  N_9
REMARK    3  A    between atoms: N_9  and  C_10
REMARK    4  A    between atoms: C_10  and  C_11
REMARK    5  A    between atoms: C_11  and  C_12
REMARK    6  A    between atoms: C_12  and  C_13
REMARK    7  A    between atoms: C_13  and  N_14
REMARK                            x       y       z     vdW  Elec       q    Type
REMARK                         _______ _______ _______ _____ _____    ______ ____
ROOT
ATOM      1  C   UNL     1      46.645 -29.383 -57.397  0.00  0.00    +0.011 C 
ENDROOT
BRANCH   1   2
ATOM      2  N   UNL     1      46.698 -30.420 -58.428  0.00  0.00    -0.328 N 
ATOM      3  H   UNL     1      47.002 -30.239 -59.346  0.00  0.00    +0.000 HD
BRANCH   2   7
ATOM      4  C   UNL     1      45.399 -34.135 -57.067  0.00  0.00    +0.093 A 
ATOM      5  C   UNL     1      46.375 -34.091 -58.054  0.00  0.00    -0.031 A 
ATOM      6  C   UNL     1      46.819 -32.855 -58.529  0.00  0.00    -0.018 A 
ATOM      7  C   UNL     1      46.285 -31.690 -58.008  0.00  0.00    +0.141 A 
ATOM      8  N   UNL     1      45.360 -31.756 -57.035  0.00  0.00    -0.134 NA
ATOM      9  N   UNL     1      44.909 -32.978 -56.569  0.00  0.00    -0.147 NA
BRANCH   4  13
ATOM     10  C   UNL     1      43.789 -37.757 -55.372  0.00  0.00    -0.062 A 
ATOM     11  C   UNL     1      44.832 -37.825 -56.289  0.00  0.00    -0.061 A 
ATOM     12  C   UNL     1      45.357 -36.653 -56.845  0.00  0.00    -0.053 A 
ATOM     13  C   UNL     1      44.855 -35.384 -56.496  0.00  0.00    +0.002 A 
ATOM     14  C   UNL     1      43.793 -35.350 -55.570  0.00  0.00    -0.053 A 
ATOM     15  C   UNL     1      43.266 -36.520 -55.015  0.00  0.00    -0.061 A 
ENDBRANCH   4  13
ENDBRANCH   2   7
ENDBRANCH   1   2
BRANCH   1  16
ATOM     16  C   UNL     1      48.048 -29.112 -56.854  0.00  0.00    -0.036 C 
BRANCH  16  17
ATOM     17  C   UNL     1      48.209 -29.667 -55.436  0.00  0.00    -0.039 C 
BRANCH  17  18
ATOM     18  C   UNL     1      48.723 -31.112 -55.464  0.00  0.00    -0.001 C 
BRANCH  18  19
ATOM     19  N   UNL     1      47.737 -32.066 -54.932  0.00  0.00    -0.298 N 
ATOM     20  C   UNL     1      47.225 -31.602 -53.632  0.00  0.00    +0.003 C 
ATOM     21  C   UNL     1      46.051 -32.473 -53.167  0.00  0.00    -0.015 C 
ATOM     22  C   UNL     1      46.375 -33.942 -53.220  0.00  0.00    -0.042 A 
ATOM     23  C   UNL     1      45.589 -34.865 -52.518  0.00  0.00    -0.058 A 
ATOM     24  C   UNL     1      45.872 -36.229 -52.591  0.00  0.00    -0.061 A 
ATOM     25  C   UNL     1      46.935 -36.680 -53.369  0.00  0.00    -0.061 A 
ATOM     26  C   UNL     1      47.714 -35.768 -54.082  0.00  0.00    -0.057 A 
ATOM     27  C   UNL     1      47.434 -34.394 -54.026  0.00  0.00    -0.030 A 
ATOM     28  C   UNL     1      48.319 -33.417 -54.775  0.00  0.00    +0.024 C 
ATOM     29  H   UNL     1      46.971 -32.120 -55.603  0.00  0.00    +0.000 HD
ENDBRANCH  18  19
ENDBRANCH  17  18
ENDBRANCH  16  17
ENDBRANCH   1  16
TORSDOF 7
ENDMDL
MODEL 7
REMARK VINA RESULT:    -7.466      4.230      7.276
REMARK INTER + INTRA:         -11.626
REMARK INTER:                  -9.298
REMARK INTRA:                  -2.327
REMARK UNBOUND:                -1.104
REMARK  Name = cpd264.pdb
REMARK  7 active torsions:
REMARK  status: ('A' for Active; 'I' for Inactive)
REMARK    1  A    between atoms: C_4  and  C_5
REMARK    2  A    between atoms: C_8  and  N_9
REMARK    3  A    between atoms: N_9  and  C_10
REMARK    4  A    between atoms: C_10  and  C_11
REMARK    5  A    between atoms: C_11  and  C_12
REMARK    6  A    between atoms: C_12  and  C_13
REMARK    7  A    between atoms: C_13  and  N_14
REMARK                            x       y       z     vdW  Elec       q    Type
REMARK                         _______ _______ _______ _____ _____    ______ ____
ROOT
ATOM      1  C   UNL     1      33.685 -41.217 -28.425  0.00  0.00    +0.011 C 
ENDROOT
BRANCH   1   2
ATOM      2  N   UNL     1      35.071 -41.014 -28.000  0.00  0.00    -0.328 N 
ATOM      3  H   UNL     1      35.478 -41.523 -27.263  0.00  0.00    +0.000 HD
BRANCH   2   7
ATOM      4  C   UNL     1      37.196 -38.058 -30.020  0.00  0.00    +0.093 A 
ATOM      5  C   UNL     1      36.362 -38.895 -30.749  0.00  0.00    -0.031 A 
ATOM      6  C   UNL     1      35.646 -39.898 -30.092  0.00  0.00    -0.018 A 
ATOM      7  C   UNL     1      35.773 -40.042 -28.722  0.00  0.00    +0.141 A 
ATOM      8  N   UNL     1      36.565 -39.204 -28.033  0.00  0.00    -0.134 NA
ATOM      9  N   UNL     1      37.285 -38.216 -28.681  0.00  0.00    -0.147 NA
BRANCH   4  13
ATOM     10  C   UNL     1      39.508 -34.866 -31.767  0.00  0.00    -0.062 A 
ATOM     11  C   UNL     1      40.153 -35.914 -31.119  0.00  0.00    -0.061 A 
ATOM     12  C   UNL     1      39.407 -36.952 -30.548  0.00  0.00    -0.053 A 
ATOM     13  C   UNL     1      38.000 -36.969 -30.613  0.00  0.00    +0.002 A 
ATOM     14  C   UNL     1      37.378 -35.889 -31.269  0.00  0.00    -0.053 A 
ATOM     15  C   UNL     1      38.120 -34.850 -31.839  0.00  0.00    -0.061 A 
ENDBRANCH   4  13
ENDBRANCH   2   7
ENDBRANCH   1   2
BRANCH   1  16
ATOM     16  C   UNL     1      32.728 -40.776 -27.317  0.00  0.00    -0.036 C 
BRANCH  16  17
ATOM     17  C   UNL     1      32.632 -39.250 -27.244  0.00  0.00    -0.039 C 
BRANCH  17  18
ATOM     18  C   UNL     1      32.226 -38.656 -28.599  0.00  0.00    -0.001 C 
BRANCH  18  19
ATOM     19  N   UNL     1      33.131 -37.577 -29.029  0.00  0.00    -0.298 N 
ATOM     20  C   UNL     1      33.559 -36.775 -27.871  0.00  0.00    +0.003 C 
ATOM     21  C   UNL     1      34.659 -35.784 -28.272  0.00  0.00    -0.015 C 
ATOM     22  C   UNL     1      34.284 -34.976 -29.486  0.00  0.00    -0.042 A 
ATOM     23  C   UNL     1      34.978 -33.798 -29.792  0.00  0.00    -0.058 A 
ATOM     24  C   UNL     1      34.649 -33.065 -30.933  0.00  0.00    -0.061 A 
ATOM     25  C   UNL     1      33.632 -33.507 -31.776  0.00  0.00    -0.061 A 
ATOM     26  C   UNL     1      32.946 -34.686 -31.484  0.00  0.00    -0.057 A 
ATOM     27  C   UNL     1      33.274 -35.439 -30.346  0.00  0.00    -0.030 A 
ATOM     28  C   UNL     1      32.487 -36.695 -30.026  0.00  0.00    +0.024 C 
ATOM     29  H   UNL     1      33.944 -38.016 -29.462  0.00  0.00    +0.000 HD
ENDBRANCH  18  19
ENDBRANCH  17  18
ENDBRANCH  16  17
ENDBRANCH   1  16
TORSDOF 7
ENDMDL
MODEL 8
REMARK VINA RESULT:    -7.264     18.447     20.828
REMARK INTER + INTRA:         -11.341
REMARK INTER:                  -7.289
REMARK INTRA:                  -4.051
REMARK UNBOUND:                -1.104
REMARK  Name = cpd264.pdb
REMARK  7 active torsions:
REMARK  status: ('A' for Active; 'I' for Inactive)
REMARK    1  A    between atoms: C_4  and  C_5
REMARK    2  A    between atoms: C_8  and  N_9
REMARK    3  A    between atoms: N_9  and  C_10
REMARK    4  A    between atoms: C_10  and  C_11
REMARK    5  A    between atoms: C_11  and  C_12
REMARK    6  A    between atoms: C_12  and  C_13
REMARK    7  A    between atoms: C_13  and  N_14
REMARK                            x       y       z     vdW  Elec       q    Type
REMARK                         _______ _______ _______ _____ _____    ______ ____
ROOT
ATOM      1  C   UNL     1      38.726 -21.068 -35.970  0.00  0.00    +0.011 C 
ENDROOT
BRANCH   1   2
ATOM      2  N   UNL     1      39.117 -22.234 -36.763  0.00  0.00    -0.328 N 
ATOM      3  H   UNL     1      38.719 -23.124 -36.628  0.00  0.00    +0.000 HD
BRANCH   2   7
ATOM      4  C   UNL     1      42.140 -21.557 -39.546  0.00  0.00    +0.093 A 
ATOM      5  C   UNL     1      40.898 -20.972 -39.756  0.00  0.00    -0.031 A 
ATOM      6  C   UNL     1      39.869 -21.193 -38.838  0.00  0.00    -0.018 A 
ATOM      7  C   UNL     1      40.100 -21.987 -37.730  0.00  0.00    +0.141 A 
ATOM      8  N   UNL     1      41.317 -22.521 -37.532  0.00  0.00    -0.134 NA
ATOM      9  N   UNL     1      42.337 -22.315 -38.444  0.00  0.00    -0.147 NA
BRANCH   4  13
ATOM     10  C   UNL     1      45.487 -21.067 -42.218  0.00  0.00    -0.062 A 
ATOM     11  C   UNL     1      45.656 -21.740 -41.013  0.00  0.00    -0.061 A 
ATOM     12  C   UNL     1      44.573 -21.899 -40.140  0.00  0.00    -0.053 A 
ATOM     13  C   UNL     1      43.296 -21.394 -40.451  0.00  0.00    +0.002 A 
ATOM     14  C   UNL     1      43.160 -20.711 -41.676  0.00  0.00    -0.053 A 
ATOM     15  C   UNL     1      44.241 -20.549 -42.549  0.00  0.00    -0.061 A 
ENDBRANCH   4  13
ENDBRANCH   2   7
ENDBRANCH   1   2
BRANCH   1  16
ATOM     16  C   UNL     1      39.540 -21.017 -34.677  0.00  0.00    -0.036 C 
BRANCH  16  17
ATOM     17  C   UNL     1      40.600 -19.914 -34.734  0.00  0.00    -0.039 C 
BRANCH  17  18
ATOM     18  C   UNL     1      42.015 -20.502 -34.651  0.00  0.00    -0.001 C 
BRANCH  18  19
ATOM     19  N   UNL     1      42.789 -20.270 -35.881  0.00  0.00    -0.298 N 
ATOM     20  C   UNL     1      44.203 -20.018 -35.557  0.00  0.00    +0.003 C 
ATOM     21  C   UNL     1      45.055 -19.983 -36.832  0.00  0.00    -0.015 C 
ATOM     22  C   UNL     1      44.481 -19.062 -37.876  0.00  0.00    -0.042 A 
ATOM     23  C   UNL     1      45.275 -18.623 -38.944  0.00  0.00    -0.058 A 
ATOM     24  C   UNL     1      44.736 -17.792 -39.927  0.00  0.00    -0.061 A 
ATOM     25  C   UNL     1      43.400 -17.403 -39.853  0.00  0.00    -0.061 A 
ATOM     26  C   UNL     1      42.600 -17.847 -38.800  0.00  0.00    -0.057 A 
ATOM     27  C   UNL     1      43.128 -18.691 -37.811  0.00  0.00    -0.030 A 
ATOM     28  C   UNL     1      42.251 -19.128 -36.653  0.00  0.00    +0.024 C 
ATOM     29  H   UNL     1      42.712 -21.111 -36.453  0.00  0.00    +0.000 HD
ENDBRANCH  18  19
ENDBRANCH  17  18
ENDBRANCH  16  17
ENDBRANCH   1  16
TORSDOF 7
ENDMDL
MODEL 9
REMARK VINA RESULT:    -7.203     19.344     21.514
REMARK INTER + INTRA:         -11.256
REMARK INTER:                  -7.393
REMARK INTRA:                  -3.863
REMARK UNBOUND:                -1.104
REMARK  Name = cpd264.pdb
REMARK  7 active torsions:
REMARK  status: ('A' for Active; 'I' for Inactive)
REMARK    1  A    between atoms: C_4  and  C_5
REMARK    2  A    between atoms: C_8  and  N_9
REMARK    3  A    between atoms: N_9  and  C_10
REMARK    4  A    between atoms: C_10  and  C_11
REMARK    5  A    between atoms: C_11  and  C_12
REMARK    6  A    between atoms: C_12  and  C_13
REMARK    7  A    between atoms: C_13  and  N_14
REMARK                            x       y       z     vdW  Elec       q    Type
REMARK                         _______ _______ _______ _____ _____    ______ ____
ROOT
ATOM      1  C   UNL     1      44.265 -21.292 -42.691  0.00  0.00    +0.011 C 
ENDROOT
BRANCH   1   2
ATOM      2  N   UNL     1      45.611 -21.609 -42.213  0.00  0.00    -0.328 N 
ATOM      3  H   UNL     1      46.205 -22.239 -42.682  0.00  0.00    +0.000 HD
BRANCH   2   7
ATOM      4  C   UNL     1      46.707 -19.766 -38.644  0.00  0.00    +0.093 A 
ATOM      5  C   UNL     1      46.584 -18.987 -39.786  0.00  0.00    -0.031 A 
ATOM      6  C   UNL     1      46.225 -19.586 -40.994  0.00  0.00    -0.018 A 
ATOM      7  C   UNL     1      45.991 -20.949 -41.039  0.00  0.00    +0.141 A 
ATOM      8  N   UNL     1      46.090 -21.680 -39.916  0.00  0.00    -0.134 NA
ATOM      9  N   UNL     1      46.457 -21.093 -38.718  0.00  0.00    -0.147 NA
BRANCH   4  13
ATOM     10  C   UNL     1      47.818 -18.188 -34.789  0.00  0.00    -0.062 A 
ATOM     11  C   UNL     1      47.519 -19.539 -34.924  0.00  0.00    -0.061 A 
ATOM     12  C   UNL     1      47.154 -20.056 -36.173  0.00  0.00    -0.053 A 
ATOM     13  C   UNL     1      47.084 -19.238 -37.317  0.00  0.00    +0.002 A 
ATOM     14  C   UNL     1      47.385 -17.872 -37.144  0.00  0.00    -0.053 A 
ATOM     15  C   UNL     1      47.748 -17.352 -35.898  0.00  0.00    -0.061 A 
ENDBRANCH   4  13
ENDBRANCH   2   7
ENDBRANCH   1   2
BRANCH   1  16
ATOM     16  C   UNL     1      43.221 -21.986 -41.815  0.00  0.00    -0.036 C 
BRANCH  16  17
ATOM     17  C   UNL     1      42.642 -21.023 -40.777  0.00  0.00    -0.039 C 
BRANCH  17  18
ATOM     18  C   UNL     1      42.550 -21.687 -39.397  0.00  0.00    -0.001 C 
BRANCH  18  19
ATOM     19  N   UNL     1      43.196 -20.884 -38.346  0.00  0.00    -0.298 N 
ATOM     20  C   UNL     1      42.628 -21.213 -37.028  0.00  0.00    +0.003 C 
ATOM     21  C   UNL     1      43.431 -20.541 -35.907  0.00  0.00    -0.015 C 
ATOM     22  C   UNL     1      43.628 -19.068 -36.150  0.00  0.00    -0.042 A 
ATOM     23  C   UNL     1      44.013 -18.224 -35.101  0.00  0.00    -0.058 A 
ATOM     24  C   UNL     1      44.223 -16.864 -35.333  0.00  0.00    -0.061 A 
ATOM     25  C   UNL     1      44.057 -16.342 -36.614  0.00  0.00    -0.061 A 
ATOM     26  C   UNL     1      43.688 -17.180 -37.666  0.00  0.00    -0.057 A 
ATOM     27  C   UNL     1      43.483 -18.551 -37.449  0.00  0.00    -0.030 A 
ATOM     28  C   UNL     1      43.041 -19.435 -38.599  0.00  0.00    +0.024 C 
ATOM     29  H   UNL     1      44.191 -21.110 -38.357  0.00  0.00    +0.000 HD
ENDBRANCH  18  19
ENDBRANCH  17  18
ENDBRANCH  16  17
ENDBRANCH   1  16
TORSDOF 7
ENDMDL
MODEL 10
REMARK VINA RESULT:    -7.146      5.619      8.901
REMARK INTER + INTRA:         -11.175
REMARK INTER:                  -7.482
REMARK INTRA:                  -3.693
REMARK UNBOUND:                -1.104
REMARK  Name = cpd264.pdb
REMARK  7 active torsions:
REMARK  status: ('A' for Active; 'I' for Inactive)
REMARK    1  A    between atoms: C_4  and  C_5
REMARK    2  A    between atoms: C_8  and  N_9
REMARK    3  A    between atoms: N_9  and  C_10
REMARK    4  A    between atoms: C_10  and  C_11
REMARK    5  A    between atoms: C_11  and  C_12
REMARK    6  A    between atoms: C_12  and  C_13
REMARK    7  A    between atoms: C_13  and  N_14
REMARK                            x       y       z     vdW  Elec       q    Type
REMARK                         _______ _______ _______ _____ _____    ______ ____
ROOT
ATOM      1  C   UNL     1      31.854 -38.605 -22.851  0.00  0.00    +0.011 C 
ENDROOT
BRANCH   1   2
ATOM      2  N   UNL     1      31.801 -37.332 -23.569  0.00  0.00    -0.328 N 
ATOM      3  H   UNL     1      31.196 -36.601 -23.306  0.00  0.00    +0.000 HD
BRANCH   2   7
ATOM      4  C   UNL     1      34.508 -37.093 -26.724  0.00  0.00    +0.093 A 
ATOM      5  C   UNL     1      33.311 -36.395 -26.818  0.00  0.00    -0.031 A 
ATOM      6  C   UNL     1      32.387 -36.468 -25.775  0.00  0.00    -0.018 A 
ATOM      7  C   UNL     1      32.675 -37.231 -24.657  0.00  0.00    +0.141 A 
ATOM      8  N   UNL     1      33.851 -37.877 -24.575  0.00  0.00    -0.134 NA
ATOM      9  N   UNL     1      34.765 -37.817 -25.612  0.00  0.00    -0.147 NA
BRANCH   4  13
ATOM     10  C   UNL     1      37.532 -37.065 -29.796  0.00  0.00    -0.062 A 
ATOM     11  C   UNL     1      37.751 -37.764 -28.614  0.00  0.00    -0.061 A 
ATOM     12  C   UNL     1      36.775 -37.774 -27.612  0.00  0.00    -0.053 A 
ATOM     13  C   UNL     1      35.553 -37.090 -27.767  0.00  0.00    +0.002 A 
ATOM     14  C   UNL     1      35.365 -36.385 -28.973  0.00  0.00    -0.053 A 
ATOM     15  C   UNL     1      36.340 -36.372 -29.976  0.00  0.00    -0.061 A 
ENDBRANCH   4  13
ENDBRANCH   2   7
ENDBRANCH   1   2
BRANCH   1  16
ATOM     16  C   UNL     1      30.581 -39.410 -23.116  0.00  0.00    -0.036 C 
BRANCH  16  17
ATOM     17  C   UNL     1      30.590 -40.014 -24.522  0.00  0.00    -0.039 C 
BRANCH  17  18
ATOM     18  C   UNL     1      31.877 -40.810 -24.774  0.00  0.00    -0.001 C 
BRANCH  18  19
ATOM     19  N   UNL     1      32.596 -40.345 -25.971  0.00  0.00    -0.298 N 
ATOM     20  C   UNL     1      31.675 -40.244 -27.115  0.00  0.00    +0.003 C 
ATOM     21  C   UNL     1      32.361 -39.566 -28.308  0.00  0.00    -0.015 C 
ATOM     22  C   UNL     1      33.691 -40.192 -28.633  0.00  0.00    -0.042 A 
ATOM     23  C   UNL     1      34.296 -39.962 -29.875  0.00  0.00    -0.058 A 
ATOM     24  C   UNL     1      35.541 -40.520 -30.165  0.00  0.00    -0.061 A 
ATOM     25  C   UNL     1      36.192 -41.303 -29.215  0.00  0.00    -0.061 A 
ATOM     26  C   UNL     1      35.602 -41.525 -27.971  0.00  0.00    -0.057 A 
ATOM     27  C   UNL     1      34.354 -40.962 -27.662  0.00  0.00    -0.030 A 
ATOM     28  C   UNL     1      33.712 -41.252 -26.319  0.00  0.00    +0.024 C 
ATOM     29  H   UNL     1      32.982 -39.425 -25.758  0.00  0.00    +0.000 HD
ENDBRANCH  18  19
ENDBRANCH  17  18
ENDBRANCH  16  17
ENDBRANCH   1  16
TORSDOF 7
ENDMDL
MODEL 11
REMARK VINA RESULT:    -7.070      4.474      7.039
REMARK INTER + INTRA:         -11.068
REMARK INTER:                  -9.090
REMARK INTRA:                  -1.978
REMARK UNBOUND:                -1.104
REMARK  Name = cpd264.pdb
REMARK  7 active torsions:
REMARK  status: ('A' for Active; 'I' for Inactive)
REMARK    1  A    between atoms: C_4  and  C_5
REMARK    2  A    between atoms: C_8  and  N_9
REMARK    3  A    between atoms: N_9  and  C_10
REMARK    4  A    between atoms: C_10  and  C_11
REMARK    5  A    between atoms: C_11  and  C_12
REMARK    6  A    between atoms: C_12  and  C_13
REMARK    7  A    between atoms: C_13  and  N_14
REMARK                            x       y       z     vdW  Elec       q    Type
REMARK                         _______ _______ _______ _____ _____    ______ ____
ROOT
ATOM      1  C   UNL     1      31.289 -36.261 -31.356  0.00  0.00    +0.011 C 
ENDROOT
BRANCH   1   2
ATOM      2  N   UNL     1      31.944 -35.004 -30.994  0.00  0.00    -0.328 N 
ATOM      3  H   UNL     1      31.440 -34.195 -30.750  0.00  0.00    +0.000 HD
BRANCH   2   7
ATOM      4  C   UNL     1      36.099 -35.257 -31.084  0.00  0.00    +0.093 A 
ATOM      5  C   UNL     1      35.513 -34.063 -30.685  0.00  0.00    -0.031 A 
ATOM      6  C   UNL     1      34.121 -33.955 -30.655  0.00  0.00    -0.018 A 
ATOM      7  C   UNL     1      33.343 -35.040 -31.019  0.00  0.00    +0.141 A 
ATOM      8  N   UNL     1      33.932 -36.194 -31.376  0.00  0.00    -0.134 NA
ATOM      9  N   UNL     1      35.311 -36.302 -31.418  0.00  0.00    -0.147 NA
BRANCH   4  13
ATOM     10  C   UNL     1      40.359 -35.875 -31.323  0.00  0.00    -0.062 A 
ATOM     11  C   UNL     1      39.570 -36.763 -30.600  0.00  0.00    -0.061 A 
ATOM     12  C   UNL     1      38.187 -36.565 -30.516  0.00  0.00    -0.053 A 
ATOM     13  C   UNL     1      37.558 -35.479 -31.156  0.00  0.00    +0.002 A 
ATOM     14  C   UNL     1      38.387 -34.594 -31.874  0.00  0.00    -0.053 A 
ATOM     15  C   UNL     1      39.769 -34.789 -31.958  0.00  0.00    -0.061 A 
ENDBRANCH   4  13
ENDBRANCH   2   7
ENDBRANCH   1   2
BRANCH   1  16
ATOM     16  C   UNL     1      30.301 -36.671 -30.264  0.00  0.00    -0.036 C 
BRANCH  16  17
ATOM     17  C   UNL     1      30.832 -37.857 -29.454  0.00  0.00    -0.039 C 
BRANCH  17  18
ATOM     18  C   UNL     1      31.242 -37.422 -28.041  0.00  0.00    -0.001 C 
BRANCH  18  19
ATOM     19  N   UNL     1      32.651 -37.732 -27.748  0.00  0.00    -0.298 N 
ATOM     20  C   UNL     1      33.471 -36.512 -27.825  0.00  0.00    +0.003 C 
ATOM     21  C   UNL     1      34.895 -36.781 -27.321  0.00  0.00    -0.015 C 
ATOM     22  C   UNL     1      35.512 -37.989 -27.973  0.00  0.00    -0.042 A 
ATOM     23  C   UNL     1      36.898 -38.190 -27.920  0.00  0.00    -0.058 A 
ATOM     24  C   UNL     1      37.467 -39.324 -28.500  0.00  0.00    -0.061 A 
ATOM     25  C   UNL     1      36.657 -40.266 -29.129  0.00  0.00    -0.061 A 
ATOM     26  C   UNL     1      35.275 -40.079 -29.174  0.00  0.00    -0.057 A 
ATOM     27  C   UNL     1      34.688 -38.948 -28.585  0.00  0.00    -0.030 A 
ATOM     28  C   UNL     1      33.189 -38.745 -28.683  0.00  0.00    +0.024 C 
ATOM     29  H   UNL     1      32.689 -38.113 -26.803  0.00  0.00    +0.000 HD
ENDBRANCH  18  19
ENDBRANCH  17  18
ENDBRANCH  16  17
ENDBRANCH   1  16
TORSDOF 7
ENDMDL
MODEL 12
REMARK VINA RESULT:    -7.000     24.704     26.708
REMARK INTER + INTRA:         -10.969
REMARK INTER:                  -6.897
REMARK INTRA:                  -4.072
REMARK UNBOUND:                -1.104
REMARK  Name = cpd264.pdb
REMARK  7 active torsions:
REMARK  status: ('A' for Active; 'I' for Inactive)
REMARK    1  A    between atoms: C_4  and  C_5
REMARK    2  A    between atoms: C_8  and  N_9
REMARK    3  A    between atoms: N_9  and  C_10
REMARK    4  A    between atoms: C_10  and  C_11
REMARK    5  A    between atoms: C_11  and  C_12
REMARK    6  A    between atoms: C_12  and  C_13
REMARK    7  A    between atoms: C_13  and  N_14
REMARK                            x       y       z     vdW  Elec       q    Type
REMARK                         _______ _______ _______ _____ _____    ______ ____
ROOT
ATOM      1  C   UNL     1      45.412 -38.216 -54.456  0.00  0.00    +0.011 C 
ENDROOT
BRANCH   1   2
ATOM      2  N   UNL     1      46.726 -38.355 -55.084  0.00  0.00    -0.328 N 
ATOM      3  H   UNL     1      47.035 -39.199 -55.485  0.00  0.00    +0.000 HD
BRANCH   2   7
ATOM      4  C   UNL     1      49.056 -34.905 -55.191  0.00  0.00    +0.093 A 
ATOM      5  C   UNL     1      48.959 -35.607 -53.996  0.00  0.00    -0.031 A 
ATOM      6  C   UNL     1      48.177 -36.762 -53.937  0.00  0.00    -0.018 A 
ATOM      7  C   UNL     1      47.511 -37.196 -55.070  0.00  0.00    +0.141 A 
ATOM      8  N   UNL     1      47.641 -36.516 -56.222  0.00  0.00    -0.134 NA
ATOM      9  N   UNL     1      48.405 -35.365 -56.283  0.00  0.00    -0.147 NA
BRANCH   4  13
ATOM     10  C   UNL     1      51.367 -31.308 -55.739  0.00  0.00    -0.062 A 
ATOM     11  C   UNL     1      51.309 -31.910 -54.487  0.00  0.00    -0.061 A 
ATOM     12  C   UNL     1      50.557 -33.076 -54.302  0.00  0.00    -0.053 A 
ATOM     13  C   UNL     1      49.850 -33.672 -55.364  0.00  0.00    +0.002 A 
ATOM     14  C   UNL     1      49.923 -33.033 -56.618  0.00  0.00    -0.053 A 
ATOM     15  C   UNL     1      50.672 -31.867 -56.805  0.00  0.00    -0.061 A 
ENDBRANCH   4  13
ENDBRANCH   2   7
ENDBRANCH   1   2
BRANCH   1  16
ATOM     16  C   UNL     1      44.419 -37.609 -55.448  0.00  0.00    -0.036 C 
BRANCH  16  17
ATOM     17  C   UNL     1      43.891 -36.262 -54.947  0.00  0.00    -0.039 C 
BRANCH  17  18
ATOM     18  C   UNL     1      44.397 -35.110 -55.824  0.00  0.00    -0.001 C 
BRANCH  18  19
ATOM     19  N   UNL     1      45.440 -34.316 -55.155  0.00  0.00    -0.298 N 
ATOM     20  C   UNL     1      45.068 -34.058 -53.754  0.00  0.00    +0.003 C 
ATOM     21  C   UNL     1      46.234 -33.415 -52.991  0.00  0.00    -0.015 C 
ATOM     22  C   UNL     1      46.801 -32.223 -53.715  0.00  0.00    -0.042 A 
ATOM     23  C   UNL     1      47.612 -31.304 -53.036  0.00  0.00    -0.058 A 
ATOM     24  C   UNL     1      48.160 -30.215 -53.713  0.00  0.00    -0.061 A 
ATOM     25  C   UNL     1      47.909 -30.041 -55.073  0.00  0.00    -0.061 A 
ATOM     26  C   UNL     1      47.114 -30.960 -55.758  0.00  0.00    -0.057 A 
ATOM     27  C   UNL     1      46.565 -32.066 -55.091  0.00  0.00    -0.030 A 
ATOM     28  C   UNL     1      45.669 -33.028 -55.847  0.00  0.00    +0.024 C 
ATOM     29  H   UNL     1      46.304 -34.858 -55.187  0.00  0.00    +0.000 HD
ENDBRANCH  18  19
ENDBRANCH  17  18
ENDBRANCH  16  17
ENDBRANCH   1  16
TORSDOF 7
ENDMDL
MODEL 13
REMARK VINA RESULT:    -6.875      4.768      7.356
REMARK INTER + INTRA:         -10.792
REMARK INTER:                  -7.337
REMARK INTRA:                  -3.455
REMARK UNBOUND:                -1.104
REMARK  Name = cpd264.pdb
REMARK  7 active torsions:
REMARK  status: ('A' for Active; 'I' for Inactive)
REMARK    1  A    between atoms: C_4  and  C_5
REMARK    2  A    between atoms: C_8  and  N_9
REMARK    3  A    between atoms: N_9  and  C_10
REMARK    4  A    between atoms: C_10  and  C_11
REMARK    5  A    between atoms: C_11  and  C_12
REMARK    6  A    between atoms: C_12  and  C_13
REMARK    7  A    between atoms: C_13  and  N_14
REMARK                            x       y       z     vdW  Elec       q    Type
REMARK                         _______ _______ _______ _____ _____    ______ ____
ROOT
ATOM      1  C   UNL     1      30.872 -35.424 -32.787  0.00  0.00    +0.011 C 
ENDROOT
BRANCH   1   2
ATOM      2  N   UNL     1      31.433 -34.608 -31.711  0.00  0.00    -0.328 N 
ATOM      3  H   UNL     1      31.037 -33.750 -31.435  0.00  0.00    +0.000 HD
BRANCH   2   7
ATOM      4  C   UNL     1      34.884 -36.226 -30.035  0.00  0.00    +0.093 A 
ATOM      5  C   UNL     1      33.820 -35.916 -29.199  0.00  0.00    -0.031 A 
ATOM      6  C   UNL     1      32.657 -35.365 -29.740  0.00  0.00    -0.018 A 
ATOM      7  C   UNL     1      32.576 -35.140 -31.103  0.00  0.00    +0.141 A 
ATOM      8  N   UNL     1      33.608 -35.473 -31.896  0.00  0.00    -0.134 NA
ATOM      9  N   UNL     1      34.768 -36.008 -31.363  0.00  0.00    -0.147 NA
BRANCH   4  13
ATOM     10  C   UNL     1      38.623 -37.920 -28.717  0.00  0.00    -0.062 A 
ATOM     11  C   UNL     1      37.546 -37.853 -27.840  0.00  0.00    -0.061 A 
ATOM     12  C   UNL     1      36.331 -37.301 -28.262  0.00  0.00    -0.053 A 
ATOM     13  C   UNL     1      36.161 -36.807 -29.570  0.00  0.00    +0.002 A 
ATOM     14  C   UNL     1      37.273 -36.883 -30.431  0.00  0.00    -0.053 A 
ATOM     15  C   UNL     1      38.489 -37.433 -30.012  0.00  0.00    -0.061 A 
ENDBRANCH   4  13
ENDBRANCH   2   7
ENDBRANCH   1   2
BRANCH   1  16
ATOM     16  C   UNL     1      29.987 -36.525 -32.203  0.00  0.00    -0.036 C 
BRANCH  16  17
ATOM     17  C   UNL     1      30.753 -37.845 -32.083  0.00  0.00    -0.039 C 
BRANCH  17  18
ATOM     18  C   UNL     1      30.408 -38.567 -30.774  0.00  0.00    -0.001 C 
BRANCH  18  19
ATOM     19  N   UNL     1      31.530 -39.376 -30.270  0.00  0.00    -0.298 N 
ATOM     20  C   UNL     1      31.834 -39.018 -28.875  0.00  0.00    +0.003 C 
ATOM     21  C   UNL     1      32.856 -39.992 -28.274  0.00  0.00    -0.015 C 
ATOM     22  C   UNL     1      34.066 -40.163 -29.152  0.00  0.00    -0.042 A 
ATOM     23  C   UNL     1      35.244 -40.715 -28.632  0.00  0.00    -0.058 A 
ATOM     24  C   UNL     1      36.357 -40.899 -29.453  0.00  0.00    -0.061 A 
ATOM     25  C   UNL     1      36.298 -40.541 -30.798  0.00  0.00    -0.061 A 
ATOM     26  C   UNL     1      35.124 -40.004 -31.326  0.00  0.00    -0.057 A 
ATOM     27  C   UNL     1      33.994 -39.823 -30.513  0.00  0.00    -0.030 A 
ATOM     28  C   UNL     1      32.742 -39.198 -31.099  0.00  0.00    +0.024 C 
ATOM     29  H   UNL     1      31.246 -40.355 -30.319  0.00  0.00    +0.000 HD
ENDBRANCH  18  19
ENDBRANCH  17  18
ENDBRANCH  16  17
ENDBRANCH   1  16
TORSDOF 7
ENDMDL
MODEL 14
REMARK VINA RESULT:    -6.868     18.762     20.665
REMARK INTER + INTRA:         -10.783
REMARK INTER:                  -7.589
REMARK INTRA:                  -3.194
REMARK UNBOUND:                -1.104
REMARK  Name = cpd264.pdb
REMARK  7 active torsions:
REMARK  status: ('A' for Active; 'I' for Inactive)
REMARK    1  A    between atoms: C_4  and  C_5
REMARK    2  A    between atoms: C_8  and  N_9
REMARK    3  A    between atoms: N_9  and  C_10
REMARK    4  A    between atoms: C_10  and  C_11
REMARK    5  A    between atoms: C_11  and  C_12
REMARK    6  A    between atoms: C_12  and  C_13
REMARK    7  A    between atoms: C_13  and  N_14
REMARK                            x       y       z     vdW  Elec       q    Type
REMARK                         _______ _______ _______ _____ _____    ______ ____
ROOT
ATOM      1  C   UNL     1      44.835 -17.643 -33.232  0.00  0.00    +0.011 C 
ENDROOT
BRANCH   1   2
ATOM      2  N   UNL     1      44.323 -18.931 -32.763  0.00  0.00    -0.328 N 
ATOM      3  H   UNL     1      44.914 -19.661 -32.470  0.00  0.00    +0.000 HD
BRANCH   2   7
ATOM      4  C   UNL     1      40.164 -19.132 -32.718  0.00  0.00    +0.093 A 
ATOM      5  C   UNL     1      40.887 -20.314 -32.805  0.00  0.00    -0.031 A 
ATOM      6  C   UNL     1      42.283 -20.268 -32.830  0.00  0.00    -0.018 A 
ATOM      7  C   UNL     1      42.928 -19.046 -32.761  0.00  0.00    +0.141 A 
ATOM      8  N   UNL     1      42.208 -17.917 -32.650  0.00  0.00    -0.134 NA
ATOM      9  N   UNL     1      40.825 -17.956 -32.637  0.00  0.00    -0.147 NA
BRANCH   4  13
ATOM     10  C   UNL     1      35.860 -18.893 -32.623  0.00  0.00    -0.062 A 
ATOM     11  C   UNL     1      36.483 -20.131 -32.740  0.00  0.00    -0.061 A 
ATOM     12  C   UNL     1      37.880 -20.214 -32.775  0.00  0.00    -0.053 A 
ATOM     13  C   UNL     1      38.689 -19.064 -32.688  0.00  0.00    +0.002 A 
ATOM     14  C   UNL     1      38.027 -17.825 -32.578  0.00  0.00    -0.053 A 
ATOM     15  C   UNL     1      36.631 -17.739 -32.545  0.00  0.00    -0.061 A 
ENDBRANCH   4  13
ENDBRANCH   2   7
ENDBRANCH   1   2
BRANCH   1  16
ATOM     16  C   UNL     1      45.683 -17.843 -34.488  0.00  0.00    -0.036 C 
BRANCH  16  17
ATOM     17  C   UNL     1      44.830 -17.742 -35.755  0.00  0.00    -0.039 C 
BRANCH  17  18
ATOM     18  C   UNL     1      44.590 -19.126 -36.372  0.00  0.00    -0.001 C 
BRANCH  18  19
ATOM     19  N   UNL     1      43.243 -19.641 -36.080  0.00  0.00    -0.298 N 
ATOM     20  C   UNL     1      42.981 -20.862 -36.861  0.00  0.00    +0.003 C 
ATOM     21  C   UNL     1      41.671 -21.523 -36.414  0.00  0.00    -0.015 C 
ATOM     22  C   UNL     1      40.524 -20.549 -36.377  0.00  0.00    -0.042 A 
ATOM     23  C   UNL     1      39.203 -21.014 -36.344  0.00  0.00    -0.058 A 
ATOM     24  C   UNL     1      38.141 -20.112 -36.281  0.00  0.00    -0.061 A 
ATOM     25  C   UNL     1      38.392 -18.742 -36.244  0.00  0.00    -0.061 A 
ATOM     26  C   UNL     1      39.705 -18.272 -36.263  0.00  0.00    -0.057 A 
ATOM     27  C   UNL     1      40.783 -19.169 -36.316  0.00  0.00    -0.030 A 
ATOM     28  C   UNL     1      42.200 -18.635 -36.379  0.00  0.00    +0.024 C 
ATOM     29  H   UNL     1      43.208 -19.857 -35.084  0.00  0.00    +0.000 HD
ENDBRANCH  18  19
ENDBRANCH  17  18
ENDBRANCH  16  17
ENDBRANCH   1  16
TORSDOF 7
ENDMDL
MODEL 15
REMARK VINA RESULT:    -6.783     16.989     21.106
REMARK INTER + INTRA:         -10.663
REMARK INTER:                  -6.551
REMARK INTRA:                  -4.112
REMARK UNBOUND:                -1.104
REMARK  Name = cpd264.pdb
REMARK  7 active torsions:
REMARK  status: ('A' for Active; 'I' for Inactive)
REMARK    1  A    between atoms: C_4  and  C_5
REMARK    2  A    between atoms: C_8  and  N_9
REMARK    3  A    between atoms: N_9  and  C_10
REMARK    4  A    between atoms: C_10  and  C_11
REMARK    5  A    between atoms: C_11  and  C_12
REMARK    6  A    between atoms: C_12  and  C_13
REMARK    7  A    between atoms: C_13  and  N_14
REMARK                            x       y       z     vdW  Elec       q    Type
REMARK                         _______ _______ _______ _____ _____    ______ ____
ROOT
ATOM      1  C   UNL     1      39.937 -22.626 -33.998  0.00  0.00    +0.011 C 
ENDROOT
BRANCH   1   2
ATOM      2  N   UNL     1      39.332 -22.214 -35.265  0.00  0.00    -0.328 N 
ATOM      3  H   UNL     1      38.373 -22.330 -35.455  0.00  0.00    +0.000 HD
BRANCH   2   7
ATOM      4  C   UNL     1      41.882 -20.397 -38.008  0.00  0.00    +0.093 A 
ATOM      5  C   UNL     1      42.063 -21.743 -37.721  0.00  0.00    -0.031 A 
ATOM      6  C   UNL     1      41.224 -22.370 -36.798  0.00  0.00    -0.018 A 
ATOM      7  C   UNL     1      40.219 -21.643 -36.185  0.00  0.00    +0.141 A 
ATOM      8  N   UNL     1      40.044 -20.348 -36.498  0.00  0.00    -0.134 NA
ATOM      9  N   UNL     1      40.881 -19.720 -37.403  0.00  0.00    -0.147 NA
BRANCH   4  13
ATOM     10  C   UNL     1      44.279 -18.141 -40.792  0.00  0.00    -0.062 A 
ATOM     11  C   UNL     1      44.587 -19.472 -40.533  0.00  0.00    -0.061 A 
ATOM     12  C   UNL     1      43.814 -20.208 -39.627  0.00  0.00    -0.053 A 
ATOM     13  C   UNL     1      42.713 -19.635 -38.963  0.00  0.00    +0.002 A 
ATOM     14  C   UNL     1      42.433 -18.282 -39.242  0.00  0.00    -0.053 A 
ATOM     15  C   UNL     1      43.204 -17.544 -40.145  0.00  0.00    -0.061 A 
ENDBRANCH   4  13
ENDBRANCH   2   7
ENDBRANCH   1   2
BRANCH   1  16
ATOM     16  C   UNL     1      39.960 -21.450 -33.022  0.00  0.00    -0.036 C 
BRANCH  16  17
ATOM     17  C   UNL     1      41.381 -20.915 -32.831  0.00  0.00    -0.039 C 
BRANCH  17  18
ATOM     18  C   UNL     1      41.525 -19.506 -33.421  0.00  0.00    -0.001 C 
BRANCH  18  19
ATOM     19  N   UNL     1      42.486 -19.463 -34.535  0.00  0.00    -0.298 N 
ATOM     20  C   UNL     1      43.684 -20.256 -34.211  0.00  0.00    +0.003 C 
ATOM     21  C   UNL     1      44.595 -20.391 -35.438  0.00  0.00    -0.015 C 
ATOM     22  C   UNL     1      44.883 -19.062 -36.083  0.00  0.00    -0.042 A 
ATOM     23  C   UNL     1      45.955 -18.928 -36.976  0.00  0.00    -0.058 A 
ATOM     24  C   UNL     1      46.205 -17.703 -37.596  0.00  0.00    -0.061 A 
ATOM     25  C   UNL     1      45.383 -16.610 -37.334  0.00  0.00    -0.061 A 
ATOM     26  C   UNL     1      44.306 -16.740 -36.457  0.00  0.00    -0.057 A 
ATOM     27  C   UNL     1      44.037 -17.968 -35.834  0.00  0.00    -0.030 A 
ATOM     28  C   UNL     1      42.887 -18.075 -34.852  0.00  0.00    +0.024 C 
ATOM     29  H   UNL     1      42.023 -19.860 -35.353  0.00  0.00    +0.000 HD
ENDBRANCH  18  19
ENDBRANCH  17  18
ENDBRANCH  16  17
ENDBRANCH   1  16
TORSDOF 7
ENDMDL
MODEL 16
REMARK VINA RESULT:    -6.704     17.581     20.809
REMARK INTER + INTRA:         -10.552
REMARK INTER:                  -6.807
REMARK INTRA:                  -3.745
REMARK UNBOUND:                -1.104
REMARK  Name = cpd264.pdb
REMARK  7 active torsions:
REMARK  status: ('A' for Active; 'I' for Inactive)
REMARK    1  A    between atoms: C_4  and  C_5
REMARK    2  A    between atoms: C_8  and  N_9
REMARK    3  A    between atoms: N_9  and  C_10
REMARK    4  A    between atoms: C_10  and  C_11
REMARK    5  A    between atoms: C_11  and  C_12
REMARK    6  A    between atoms: C_12  and  C_13
REMARK    7  A    between atoms: C_13  and  N_14
REMARK                            x       y       z     vdW  Elec       q    Type
REMARK                         _______ _______ _______ _____ _____    ______ ____
ROOT
ATOM      1  C   UNL     1      46.740 -17.792 -36.417  0.00  0.00    +0.011 C 
ENDROOT
BRANCH   1   2
ATOM      2  N   UNL     1      45.818 -17.375 -35.361  0.00  0.00    -0.328 N 
ATOM      3  H   UNL     1      46.027 -16.645 -34.734  0.00  0.00    +0.000 HD
BRANCH   2   7
ATOM      4  C   UNL     1      42.301 -19.602 -35.305  0.00  0.00    +0.093 A 
ATOM      5  C   UNL     1      42.306 -18.349 -34.706  0.00  0.00    -0.031 A 
ATOM      6  C   UNL     1      43.477 -17.590 -34.707  0.00  0.00    -0.018 A 
ATOM      7  C   UNL     1      44.617 -18.092 -35.309  0.00  0.00    +0.141 A 
ATOM      8  N   UNL     1      44.582 -19.295 -35.906  0.00  0.00    -0.134 NA
ATOM      9  N   UNL     1      43.427 -20.057 -35.897  0.00  0.00    -0.147 NA
BRANCH   4  13
ATOM     10  C   UNL     1      38.833 -22.160 -35.450  0.00  0.00    -0.062 A 
ATOM     11  C   UNL     1      40.106 -22.712 -35.548  0.00  0.00    -0.061 A 
ATOM     12  C   UNL     1      41.235 -21.886 -35.505  0.00  0.00    -0.053 A 
ATOM     13  C   UNL     1      41.121 -20.490 -35.359  0.00  0.00    +0.002 A 
ATOM     14  C   UNL     1      39.818 -19.961 -35.270  0.00  0.00    -0.053 A 
ATOM     15  C   UNL     1      38.688 -20.784 -35.315  0.00  0.00    -0.061 A 
ENDBRANCH   4  13
ENDBRANCH   2   7
ENDBRANCH   1   2
BRANCH   1  16
ATOM     16  C   UNL     1      46.601 -16.870 -37.629  0.00  0.00    -0.036 C 
BRANCH  16  17
ATOM     17  C   UNL     1      46.182 -17.652 -38.875  0.00  0.00    -0.039 C 
BRANCH  17  18
ATOM     18  C   UNL     1      44.680 -17.498 -39.145  0.00  0.00    -0.001 C 
BRANCH  18  19
ATOM     19  N   UNL     1      43.933 -18.737 -38.874  0.00  0.00    -0.298 N 
ATOM     20  C   UNL     1      44.429 -19.831 -39.726  0.00  0.00    +0.003 C 
ATOM     21  C   UNL     1      43.807 -21.170 -39.308  0.00  0.00    -0.015 C 
ATOM     22  C   UNL     1      42.307 -21.094 -39.201  0.00  0.00    -0.042 A 
ATOM     23  C   UNL     1      41.540 -22.266 -39.184  0.00  0.00    -0.058 A 
ATOM     24  C   UNL     1      40.152 -22.196 -39.057  0.00  0.00    -0.061 A 
ATOM     25  C   UNL     1      39.525 -20.958 -38.938  0.00  0.00    -0.061 A 
ATOM     26  C   UNL     1      40.284 -19.788 -38.940  0.00  0.00    -0.057 A 
ATOM     27  C   UNL     1      41.682 -19.844 -39.058  0.00  0.00    -0.030 A 
ATOM     28  C   UNL     1      42.483 -18.557 -39.100  0.00  0.00    +0.024 C 
ATOM     29  H   UNL     1      44.080 -18.973 -37.892  0.00  0.00    +0.000 HD
ENDBRANCH  18  19
ENDBRANCH  17  18
ENDBRANCH  16  17
ENDBRANCH   1  16
TORSDOF 7
ENDMDL
MODEL 17
REMARK VINA RESULT:    -6.671     18.625     20.555
REMARK INTER + INTRA:         -10.506
REMARK INTER:                  -8.788
REMARK INTRA:                  -1.718
REMARK UNBOUND:                -1.104
REMARK  Name = cpd264.pdb
REMARK  7 active torsions:
REMARK  status: ('A' for Active; 'I' for Inactive)
REMARK    1  A    between atoms: C_4  and  C_5
REMARK    2  A    between atoms: C_8  and  N_9
REMARK    3  A    between atoms: N_9  and  C_10
REMARK    4  A    between atoms: C_10  and  C_11
REMARK    5  A    between atoms: C_11  and  C_12
REMARK    6  A    between atoms: C_12  and  C_13
REMARK    7  A    between atoms: C_13  and  N_14
REMARK                            x       y       z     vdW  Elec       q    Type
REMARK                         _______ _______ _______ _____ _____    ______ ____
ROOT
ATOM      1  C   UNL     1      45.140 -16.859 -35.994  0.00  0.00    +0.011 C 
ENDROOT
BRANCH   1   2
ATOM      2  N   UNL     1      46.484 -17.345 -36.309  0.00  0.00    -0.328 N 
ATOM      3  H   UNL     1      47.293 -16.972 -35.890  0.00  0.00    +0.000 HD
BRANCH   2   7
ATOM      4  C   UNL     1      46.601 -20.324 -39.215  0.00  0.00    +0.093 A 
ATOM      5  C   UNL     1      46.535 -20.698 -37.879  0.00  0.00    -0.031 A 
ATOM      6  C   UNL     1      46.502 -19.715 -36.889  0.00  0.00    -0.018 A 
ATOM      7  C   UNL     1      46.532 -18.380 -37.250  0.00  0.00    +0.141 A 
ATOM      8  N   UNL     1      46.569 -18.040 -38.549  0.00  0.00    -0.134 NA
ATOM      9  N   UNL     1      46.613 -19.011 -39.534  0.00  0.00    -0.147 NA
BRANCH   4  13
ATOM     10  C   UNL     1      46.688 -23.100 -42.512  0.00  0.00    -0.062 A 
ATOM     11  C   UNL     1      47.715 -23.105 -41.575  0.00  0.00    -0.061 A 
ATOM     12  C   UNL     1      47.694 -22.204 -40.504  0.00  0.00    -0.053 A 
ATOM     13  C   UNL     1      46.644 -21.279 -40.341  0.00  0.00    +0.002 A 
ATOM     14  C   UNL     1      45.623 -21.295 -41.311  0.00  0.00    -0.053 A 
ATOM     15  C   UNL     1      45.643 -22.193 -42.383  0.00  0.00    -0.061 A 
ENDBRANCH   4  13
ENDBRANCH   2   7
ENDBRANCH   1   2
BRANCH   1  16
ATOM     16  C   UNL     1      44.763 -17.249 -34.565  0.00  0.00    -0.036 C 
BRANCH  16  17
ATOM     17  C   UNL     1      43.261 -17.516 -34.442  0.00  0.00    -0.039 C 
BRANCH  17  18
ATOM     18  C   UNL     1      42.985 -18.997 -34.152  0.00  0.00    -0.001 C 
BRANCH  18  19
ATOM     19  N   UNL     1      42.198 -19.638 -35.219  0.00  0.00    -0.298 N 
ATOM     20  C   UNL     1      41.603 -20.894 -34.732  0.00  0.00    +0.003 C 
ATOM     21  C   UNL     1      40.617 -21.462 -35.761  0.00  0.00    -0.015 C 
ATOM     22  C   UNL     1      41.216 -21.549 -37.139  0.00  0.00    -0.042 A 
ATOM     23  C   UNL     1      40.620 -22.352 -38.120  0.00  0.00    -0.058 A 
ATOM     24  C   UNL     1      41.159 -22.411 -39.405  0.00  0.00    -0.061 A 
ATOM     25  C   UNL     1      42.291 -21.663 -39.720  0.00  0.00    -0.061 A 
ATOM     26  C   UNL     1      42.882 -20.850 -38.752  0.00  0.00    -0.057 A 
ATOM     27  C   UNL     1      42.344 -20.774 -37.459  0.00  0.00    -0.030 A 
ATOM     28  C   UNL     1      43.028 -19.917 -36.411  0.00  0.00    +0.024 C 
ATOM     29  H   UNL     1      41.458 -18.988 -35.485  0.00  0.00    +0.000 HD
ENDBRANCH  18  19
ENDBRANCH  17  18
ENDBRANCH  16  17
ENDBRANCH   1  16
TORSDOF 7
ENDMDL
MODEL 18
REMARK VINA RESULT:    -6.589      5.505      8.319
REMARK INTER + INTRA:         -10.389
REMARK INTER:                  -6.284
REMARK INTRA:                  -4.106
REMARK UNBOUND:                -1.104
REMARK  Name = cpd264.pdb
REMARK  7 active torsions:
REMARK  status: ('A' for Active; 'I' for Inactive)
REMARK    1  A    between atoms: C_4  and  C_5
REMARK    2  A    between atoms: C_8  and  N_9
REMARK    3  A    between atoms: N_9  and  C_10
REMARK    4  A    between atoms: C_10  and  C_11
REMARK    5  A    between atoms: C_11  and  C_12
REMARK    6  A    between atoms: C_12  and  C_13
REMARK    7  A    between atoms: C_13  and  N_14
REMARK                            x       y       z     vdW  Elec       q    Type
REMARK                         _______ _______ _______ _____ _____    ______ ____
ROOT
ATOM      1  C   UNL     1      30.230 -41.074 -33.001  0.00  0.00    +0.011 C 
ENDROOT
BRANCH   1   2
ATOM      2  N   UNL     1      31.488 -41.784 -32.775  0.00  0.00    -0.328 N 
ATOM      3  H   UNL     1      31.657 -42.688 -33.128  0.00  0.00    +0.000 HD
BRANCH   2   7
ATOM      4  C   UNL     1      34.392 -39.691 -30.647  0.00  0.00    +0.093 A 
ATOM      5  C   UNL     1      33.340 -40.269 -29.948  0.00  0.00    -0.031 A 
ATOM      6  C   UNL     1      32.352 -40.969 -30.644  0.00  0.00    -0.018 A 
ATOM      7  C   UNL     1      32.435 -41.082 -32.020  0.00  0.00    +0.141 A 
ATOM      8  N   UNL     1      33.475 -40.538 -32.674  0.00  0.00    -0.134 NA
ATOM      9  N   UNL     1      34.450 -39.833 -31.990  0.00  0.00    -0.147 NA
BRANCH   4  13
ATOM     10  C   UNL     1      37.565 -37.461 -28.764  0.00  0.00    -0.062 A 
ATOM     11  C   UNL     1      37.590 -37.678 -30.138  0.00  0.00    -0.061 A 
ATOM     12  C   UNL     1      36.564 -38.404 -30.754  0.00  0.00    -0.053 A 
ATOM     13  C   UNL     1      35.486 -38.927 -30.015  0.00  0.00    +0.002 A 
ATOM     14  C   UNL     1      35.494 -38.697 -28.624  0.00  0.00    -0.053 A 
ATOM     15  C   UNL     1      36.519 -37.974 -28.006  0.00  0.00    -0.061 A 
ENDBRANCH   4  13
ENDBRANCH   2   7
ENDBRANCH   1   2
BRANCH   1  16
ATOM     16  C   UNL     1      30.361 -40.145 -34.208  0.00  0.00    -0.036 C 
BRANCH  16  17
ATOM     17  C   UNL     1      30.236 -38.677 -33.794  0.00  0.00    -0.039 C 
BRANCH  17  18
ATOM     18  C   UNL     1      31.560 -37.929 -34.000  0.00  0.00    -0.001 C 
BRANCH  18  19
ATOM     19  N   UNL     1      32.212 -37.586 -32.727  0.00  0.00    -0.298 N 
ATOM     20  C   UNL     1      31.212 -37.132 -31.745  0.00  0.00    +0.003 C 
ATOM     21  C   UNL     1      31.847 -36.971 -30.358  0.00  0.00    -0.015 C 
ATOM     22  C   UNL     1      33.102 -36.142 -30.397  0.00  0.00    -0.042 A 
ATOM     23  C   UNL     1      33.622 -35.590 -29.219  0.00  0.00    -0.058 A 
ATOM     24  C   UNL     1      34.801 -34.845 -29.251  0.00  0.00    -0.061 A 
ATOM     25  C   UNL     1      35.471 -34.653 -30.457  0.00  0.00    -0.061 A 
ATOM     26  C   UNL     1      34.967 -35.211 -31.632  0.00  0.00    -0.057 A 
ATOM     27  C   UNL     1      33.787 -35.971 -31.612  0.00  0.00    -0.030 A 
ATOM     28  C   UNL     1      33.235 -36.532 -32.908  0.00  0.00    +0.024 C 
ATOM     29  H   UNL     1      32.673 -38.428 -32.383  0.00  0.00    +0.000 HD
ENDBRANCH  18  19
ENDBRANCH  17  18
ENDBRANCH  16  17
ENDBRANCH   1  16
TORSDOF 7
ENDMDL
MODEL 19
REMARK VINA RESULT:    -6.566     17.832     20.726
REMARK INTER + INTRA:         -10.357
REMARK INTER:                  -6.319
REMARK INTRA:                  -4.038
REMARK UNBOUND:                -1.104
REMARK  Name = cpd264.pdb
REMARK  7 active torsions:
REMARK  status: ('A' for Active; 'I' for Inactive)
REMARK    1  A    between atoms: C_4  and  C_5
REMARK    2  A    between atoms: C_8  and  N_9
REMARK    3  A    between atoms: N_9  and  C_10
REMARK    4  A    between atoms: C_10  and  C_11
REMARK    5  A    between atoms: C_11  and  C_12
REMARK    6  A    between atoms: C_12  and  C_13
REMARK    7  A    between atoms: C_13  and  N_14
REMARK                            x       y       z     vdW  Elec       q    Type
REMARK                         _______ _______ _______ _____ _____    ______ ____
ROOT
ATOM      1  C   UNL     1      44.689 -16.882 -34.150  0.00  0.00    +0.011 C 
ENDROOT
BRANCH   1   2
ATOM      2  N   UNL     1      43.612 -16.001 -34.602  0.00  0.00    -0.328 N 
ATOM      3  H   UNL     1      43.784 -15.144 -35.055  0.00  0.00    +0.000 HD
BRANCH   2   7
ATOM      4  C   UNL     1      39.745 -17.411 -33.974  0.00  0.00    +0.093 A 
ATOM      5  C   UNL     1      40.413 -16.806 -32.918  0.00  0.00    -0.031 A 
ATOM      6  C   UNL     1      41.713 -16.333 -33.106  0.00  0.00    -0.018 A 
ATOM      7  C   UNL     1      42.319 -16.469 -34.342  0.00  0.00    +0.141 A 
ATOM      8  N   UNL     1      41.644 -17.033 -35.358  0.00  0.00    -0.134 NA
ATOM      9  N   UNL     1      40.359 -17.514 -35.174  0.00  0.00    -0.147 NA
BRANCH   4  13
ATOM     10  C   UNL     1      35.741 -18.980 -33.675  0.00  0.00    -0.062 A 
ATOM     11  C   UNL     1      36.371 -18.920 -34.913  0.00  0.00    -0.061 A 
ATOM     12  C   UNL     1      37.669 -18.409 -35.017  0.00  0.00    -0.053 A 
ATOM     13  C   UNL     1      38.372 -17.949 -33.886  0.00  0.00    +0.002 A 
ATOM     14  C   UNL     1      37.703 -18.016 -32.648  0.00  0.00    -0.053 A 
ATOM     15  C   UNL     1      36.404 -18.525 -32.542  0.00  0.00    -0.061 A 
ENDBRANCH   4  13
ENDBRANCH   2   7
ENDBRANCH   1   2
BRANCH   1  16
ATOM     16  C   UNL     1      45.195 -17.732 -35.315  0.00  0.00    -0.036 C 
BRANCH  16  17
ATOM     17  C   UNL     1      45.011 -19.225 -35.032  0.00  0.00    -0.039 C 
BRANCH  17  18
ATOM     18  C   UNL     1      43.827 -19.796 -35.824  0.00  0.00    -0.001 C 
BRANCH  18  19
ATOM     19  N   UNL     1      42.604 -19.890 -35.010  0.00  0.00    -0.298 N 
ATOM     20  C   UNL     1      42.930 -20.333 -33.644  0.00  0.00    +0.003 C 
ATOM     21  C   UNL     1      41.701 -20.234 -32.732  0.00  0.00    -0.015 C 
ATOM     22  C   UNL     1      40.491 -20.900 -33.331  0.00  0.00    -0.042 A 
ATOM     23  C   UNL     1      39.393 -21.227 -32.525  0.00  0.00    -0.058 A 
ATOM     24  C   UNL     1      38.260 -21.819 -33.085  0.00  0.00    -0.061 A 
ATOM     25  C   UNL     1      38.215 -22.081 -34.453  0.00  0.00    -0.061 A 
ATOM     26  C   UNL     1      39.300 -21.745 -35.263  0.00  0.00    -0.057 A 
ATOM     27  C   UNL     1      40.441 -21.140 -34.715  0.00  0.00    -0.030 A 
ATOM     28  C   UNL     1      41.625 -20.823 -35.608  0.00  0.00    +0.024 C 
ATOM     29  H   UNL     1      42.186 -18.959 -34.978  0.00  0.00    +0.000 HD
ENDBRANCH  18  19
ENDBRANCH  17  18
ENDBRANCH  16  17
ENDBRANCH   1  16
TORSDOF 7
ENDMDL
MODEL 20
REMARK VINA RESULT:    -6.421     17.928     21.082
REMARK INTER + INTRA:         -10.153
REMARK INTER:                  -6.101
REMARK INTRA:                  -4.052
REMARK UNBOUND:                -1.104
REMARK  Name = cpd264.pdb
REMARK  7 active torsions:
REMARK  status: ('A' for Active; 'I' for Inactive)
REMARK    1  A    between atoms: C_4  and  C_5
REMARK    2  A    between atoms: C_8  and  N_9
REMARK    3  A    between atoms: N_9  and  C_10
REMARK    4  A    between atoms: C_10  and  C_11
REMARK    5  A    between atoms: C_11  and  C_12
REMARK    6  A    between atoms: C_12  and  C_13
REMARK    7  A    between atoms: C_13  and  N_14
REMARK                            x       y       z     vdW  Elec       q    Type
REMARK                         _______ _______ _______ _____ _____    ______ ____
ROOT
ATOM      1  C   UNL     1      38.974 -20.629 -34.758  0.00  0.00    +0.011 C 
ENDROOT
BRANCH   1   2
ATOM      2  N   UNL     1      39.892 -20.255 -33.682  0.00  0.00    -0.328 N 
ATOM      3  H   UNL     1      39.643 -20.307 -32.731  0.00  0.00    +0.000 HD
BRANCH   2   7
ATOM      4  C   UNL     1      43.577 -18.865 -35.036  0.00  0.00    +0.093 A 
ATOM      5  C   UNL     1      43.538 -20.041 -34.299  0.00  0.00    -0.031 A 
ATOM      6  C   UNL     1      42.314 -20.520 -33.829  0.00  0.00    -0.018 A 
ATOM      7  C   UNL     1      41.153 -19.821 -34.108  0.00  0.00    +0.141 A 
ATOM      8  N   UNL     1      41.211 -18.699 -34.846  0.00  0.00    -0.134 NA
ATOM      9  N   UNL     1      42.423 -18.214 -35.303  0.00  0.00    -0.147 NA
BRANCH   4  13
ATOM     10  C   UNL     1      47.211 -17.151 -36.598  0.00  0.00    -0.062 A 
ATOM     11  C   UNL     1      46.025 -16.426 -36.649  0.00  0.00    -0.061 A 
ATOM     12  C   UNL     1      44.841 -16.979 -36.146  0.00  0.00    -0.053 A 
ATOM     13  C   UNL     1      44.814 -18.267 -35.577  0.00  0.00    +0.002 A 
ATOM     14  C   UNL     1      46.030 -18.978 -35.548  0.00  0.00    -0.053 A 
ATOM     15  C   UNL     1      47.214 -18.429 -36.051  0.00  0.00    -0.061 A 
ENDBRANCH   4  13
ENDBRANCH   2   7
ENDBRANCH   1   2
BRANCH   1  16
ATOM     16  C   UNL     1      39.266 -22.054 -35.226  0.00  0.00    -0.036 C 
BRANCH  16  17
ATOM     17  C   UNL     1      40.020 -22.056 -36.558  0.00  0.00    -0.039 C 
BRANCH  17  18
ATOM     18  C   UNL     1      39.743 -20.773 -37.351  0.00  0.00    -0.001 C 
BRANCH  18  19
ATOM     19  N   UNL     1      40.973 -20.017 -37.636  0.00  0.00    -0.298 N 
ATOM     20  C   UNL     1      40.765 -19.110 -38.778  0.00  0.00    +0.003 C 
ATOM     21  C   UNL     1      41.965 -18.171 -38.953  0.00  0.00    -0.015 C 
ATOM     22  C   UNL     1      43.273 -18.915 -38.979  0.00  0.00    -0.042 A 
ATOM     23  C   UNL     1      44.428 -18.296 -39.476  0.00  0.00    -0.058 A 
ATOM     24  C   UNL     1      45.646 -18.976 -39.473  0.00  0.00    -0.061 A 
ATOM     25  C   UNL     1      45.720 -20.272 -38.968  0.00  0.00    -0.061 A 
ATOM     26  C   UNL     1      44.577 -20.889 -38.459  0.00  0.00    -0.057 A 
ATOM     27  C   UNL     1      43.347 -20.213 -38.446  0.00  0.00    -0.030 A 
ATOM     28  C   UNL     1      42.110 -20.918 -37.927  0.00  0.00    +0.024 C 
ATOM     29  H   UNL     1      41.197 -19.473 -36.803  0.00  0.00    +0.000 HD
ENDBRANCH  18  19
ENDBRANCH  17  18
ENDBRANCH  16  17
ENDBRANCH   1  16
TORSDOF 7
ENDMDL
