@<TRIPOS>MOLECULE
*****
 27 30 0 0 0
SMALL
GASTEIGER

@<TRIPOS>ATOM
      1 C          -0.0000    1.0000    0.0000 C.ar    1  UNL1        0.0000
      2 C           0.8660    1.5000    0.0000 C.ar    1  UNL1        0.0000
      3 C           1.7321    1.0000    0.0000 C.ar    1  UNL1        0.0016
      4 C           1.7321    0.0000    0.0000 C.ar    1  UNL1        0.0194
      5 C           2.5981   -0.5000    0.0000 C.ar    1  UNL1        0.1030
      6 C           3.4641    0.0000    0.0000 C.ar    1  UNL1        0.0239
      7 C           4.3301   -0.5000    0.0000 C.ar    1  UNL1        0.0392
      8 C           4.3301   -1.5000    0.0000 C.ar    1  UNL1        0.1693
      9 N           5.1962   -2.0000    0.0000 N.pl3   1  UNL1       -0.2189
     10 C           6.0622   -1.5000    0.0000 C.3     1  UNL1        0.1139
     11 C           6.0622   -0.5000    0.0000 C.3     1  UNL1        0.0248
     12 C           6.9282   -0.0000    0.0000 C.3     1  UNL1        0.0192
     13 C           6.9282    1.0000    0.0000 C.3     1  UNL1        0.0724
     14 N           7.7942    1.5000    0.0000 N.3     1  UNL1       -0.2687
     15 C           7.7942    2.5000    0.0000 C.3     1  UNL1        0.0771
     16 C           8.6603    3.0000    0.0000 C.3     1  UNL1        0.0434
     17 C           9.5263    2.5000    0.0000 C.ar    1  UNL1       -0.0234
     18 C          10.3923    3.0000    0.0000 C.ar    1  UNL1       -0.0045
     19 C          11.2583    2.5000    0.0000 C.ar    1  UNL1       -0.0003
     20 C          11.2583    1.5000    0.0000 C.ar    1  UNL1       -0.0003
     21 C          10.3923    1.0000    0.0000 C.ar    1  UNL1       -0.0032
     22 C           9.5263    1.5000    0.0000 C.ar    1  UNL1       -0.0101
     23 C           8.6603    1.0000    0.0000 C.3     1  UNL1        0.0988
     24 N           3.4641   -2.0000    0.0000 N.ar    1  UNL1       -0.1314
     25 N           2.5981   -1.5000    0.0000 N.ar    1  UNL1       -0.1467
     26 C           0.8660   -0.5000    0.0000 C.ar    1  UNL1        0.0016
     27 C           0.0000   -0.0000    0.0000 C.ar    1  UNL1        0.0000
@<TRIPOS>BOND
     1     1     2   ar
     2     2     3   ar
     3     3     4   ar
     4     4     5    1
     5     5     6   ar
     6     6     7   ar
     7     7     8   ar
     8     8     9    1
     9     9    10    1
    10    10    11    1
    11    11    12    1
    12    12    13    1
    13    13    14    1
    14    14    15    1
    15    15    16    1
    16    16    17    1
    17    17    18   ar
    18    18    19   ar
    19    19    20   ar
    20    20    21   ar
    21    21    22   ar
    22    17    22   ar
    23    22    23    1
    24    14    23    1
    25     8    24   ar
    26    24    25   ar
    27     5    25   ar
    28     4    26   ar
    29    26    27   ar
    30     1    27   ar
