REMARK  Name = cpd249.pdb
REMARK  1 active torsions:
REMARK  status: ('A' for Active; 'I' for Inactive)
REMARK    1  A    between atoms: C_1  and  N_2
REMARK                            x       y       z     vdW  Elec       q    Type
REMARK                         _______ _______ _______ _____ _____    ______ ____
ROOT
ATOM      1  C   UNL A   1      -3.192  -3.818   0.000  0.00  0.00    +0.015 C 
ATOM      2  N   UNL A   1      -1.928  -3.103   0.000  0.00  0.00    -0.318 N 
ATOM      3  C   UNL A   1      -1.916  -1.719   0.000  0.00  0.00    +0.019 A 
ATOM      4  C   UNL A   1      -0.761  -1.037   0.000  0.00  0.00    +0.049 A 
ATOM      5  C   UNL A   1       0.509  -1.738   0.000  0.00  0.00    +0.018 A 
ATOM      6  C   UNL A   1       0.512  -3.084   0.000  0.00  0.00    +0.013 A 
ATOM      7  C   UNL A   1      -0.758  -3.857   0.000  0.00  0.00    +0.252 A 
ATOM      8  O   UNL A   1      -0.719  -5.084   0.000  0.00  0.00    -0.268 OA
ATOM      9  C   UNL A   1       1.775  -0.974   0.000  0.00  0.00    +0.082 A 
ATOM     10  N   UNL A   1       2.926  -1.680   0.000  0.00  0.00    -0.246 NA
ATOM     11  C   UNL A   1       4.092  -1.025   0.000  0.00  0.00    +0.073 A 
ATOM     12  C   UNL A   1       5.250  -1.787   0.000  0.00  0.00    -0.022 A 
ATOM     13  C   UNL A   1       6.508  -1.193   0.000  0.00  0.00    +0.020 A 
ATOM     14 BR   UNL A   1       8.060  -2.271   0.000  0.00  0.00    -0.050 Br
ATOM     15  C   UNL A   1       6.626   0.187   0.000  0.00  0.00    -0.047 A 
ATOM     16  C   UNL A   1       5.471   0.970   0.000  0.00  0.00    -0.051 A 
ATOM     17  C   UNL A   1       4.178   0.386   0.000  0.00  0.00    +0.008 A 
ATOM     18  C   UNL A   1       2.951   1.128   0.000  0.00  0.00    -0.003 A 
ATOM     19  C   UNL A   1       2.871   2.538   0.000  0.00  0.00    -0.035 A 
ATOM     20  C   UNL A   1       1.636   3.167   0.000  0.00  0.00    +0.029 A 
ATOM     21  N   UNL A   1       0.469   2.505   0.000  0.00  0.00    -0.251 NA
ATOM     22  C   UNL A   1       0.529   1.149   0.000  0.00  0.00    +0.121 A 
ATOM     23  C   UNL A   1       1.730   0.421   0.000  0.00  0.00    +0.038 A 
ATOM     24  C   UNL A   1      -0.798   0.454   0.000  0.00  0.00    +0.214 C 
ATOM     25  O   UNL A   1      -1.860   1.068   0.000  0.00  0.00    -0.285 OA
ENDROOT
TORSDOF 0
