MODEL 1
REMARK VINA RESULT:    -9.769      0.000      0.000
REMARK INTER + INTRA:          -9.769
REMARK INTER:                  -9.769
REMARK INTRA:                   0.000
REMARK UNBOUND:                 0.000
REMARK  Name = cpd249.pdb
REMARK  1 active torsions:
REMARK  status: ('A' for Active; 'I' for Inactive)
REMARK    1  A    between atoms: C_1  and  N_2
REMARK                            x       y       z     vdW  Elec       q    Type
REMARK                         _______ _______ _______ _____ _____    ______ ____
ROOT
ATOM      1  C   UNL A   1      41.224 -37.084 -31.761  0.00  0.00    +0.015 C 
ATOM      2  N   UNL A   1      39.917 -36.714 -31.248  0.00  0.00    -0.318 N 
ATOM      3  C   UNL A   1      39.370 -37.409 -30.184  0.00  0.00    +0.019 A 
ATOM      4  C   UNL A   1      38.164 -37.085 -29.693  0.00  0.00    +0.049 A 
ATOM      5  C   UNL A   1      37.402 -35.994 -30.269  0.00  0.00    +0.018 A 
ATOM      6  C   UNL A   1      37.923 -35.310 -31.305  0.00  0.00    +0.013 A 
ATOM      7  C   UNL A   1      39.257 -35.654 -31.862  0.00  0.00    +0.252 A 
ATOM      8  O   UNL A   1      39.702 -35.009 -32.807  0.00  0.00    -0.268 OA
ATOM      9  C   UNL A   1      36.074 -35.648 -29.718  0.00  0.00    +0.082 A 
ATOM     10  N   UNL A   1      35.411 -34.622 -30.295  0.00  0.00    -0.246 NA
ATOM     11  C   UNL A   1      34.207 -34.279 -29.825  0.00  0.00    +0.073 A 
ATOM     12  C   UNL A   1      33.560 -33.221 -30.444  0.00  0.00    -0.022 A 
ATOM     13  C   UNL A   1      32.305 -32.793 -30.024  0.00  0.00    +0.020 A 
ATOM     14 BR   UNL A   1      31.460 -31.347 -30.899  0.00  0.00    -0.050 Br
ATOM     15  C   UNL A   1      31.673 -33.425 -28.966  0.00  0.00    -0.047 A 
ATOM     16  C   UNL A   1      32.309 -34.491 -28.330  0.00  0.00    -0.051 A 
ATOM     17  C   UNL A   1      33.589 -34.945 -28.741  0.00  0.00    +0.008 A 
ATOM     18  C   UNL A   1      34.300 -36.032 -28.135  0.00  0.00    -0.003 A 
ATOM     19  C   UNL A   1      33.818 -36.793 -27.048  0.00  0.00    -0.035 A 
ATOM     20  C   UNL A   1      34.579 -37.828 -26.528  0.00  0.00    +0.029 A 
ATOM     21  N   UNL A   1      35.787 -38.169 -27.003  0.00  0.00    -0.251 NA
ATOM     22  C   UNL A   1      36.265 -37.446 -28.048  0.00  0.00    +0.121 A 
ATOM     23  C   UNL A   1      35.569 -36.381 -28.643  0.00  0.00    +0.038 A 
ATOM     24  C   UNL A   1      37.615 -37.863 -28.544  0.00  0.00    +0.214 C 
ATOM     25  O   UNL A   1      38.242 -38.790 -28.041  0.00  0.00    -0.285 OA
ENDROOT
TORSDOF 0
ENDMDL
MODEL 2
REMARK VINA RESULT:    -9.711      2.548      4.406
REMARK INTER + INTRA:          -9.711
REMARK INTER:                  -9.711
REMARK INTRA:                   0.000
REMARK UNBOUND:                 0.000
REMARK  Name = cpd249.pdb
REMARK  1 active torsions:
REMARK  status: ('A' for Active; 'I' for Inactive)
REMARK    1  A    between atoms: C_1  and  N_2
REMARK                            x       y       z     vdW  Elec       q    Type
REMARK                         _______ _______ _______ _____ _____    ______ ____
ROOT
ATOM      1  C   UNL A   1      42.566 -37.869 -30.815  0.00  0.00    +0.015 C 
ATOM      2  N   UNL A   1      41.212 -37.622 -30.349  0.00  0.00    -0.318 N 
ATOM      3  C   UNL A   1      40.379 -36.777 -31.062  0.00  0.00    +0.019 A 
ATOM      4  C   UNL A   1      39.125 -36.533 -30.651  0.00  0.00    +0.049 A 
ATOM      5  C   UNL A   1      38.611 -37.153 -29.444  0.00  0.00    +0.018 A 
ATOM      6  C   UNL A   1      39.411 -37.977 -28.742  0.00  0.00    +0.013 A 
ATOM      7  C   UNL A   1      40.803 -38.259 -29.181  0.00  0.00    +0.252 A 
ATOM      8  O   UNL A   1      41.506 -39.015 -28.517  0.00  0.00    -0.268 OA
ATOM      9  C   UNL A   1      37.228 -36.877 -29.003  0.00  0.00    +0.082 A 
ATOM     10  N   UNL A   1      36.804 -37.482 -27.873  0.00  0.00    -0.246 NA
ATOM     11  C   UNL A   1      35.558 -37.257 -27.441  0.00  0.00    +0.073 A 
ATOM     12  C   UNL A   1      35.163 -37.897 -26.277  0.00  0.00    -0.022 A 
ATOM     13  C   UNL A   1      33.886 -37.723 -25.752  0.00  0.00    +0.020 A 
ATOM     14 BR   UNL A   1      33.390 -38.616 -24.163  0.00  0.00    -0.050 Br
ATOM     15  C   UNL A   1      32.977 -36.897 -26.392  0.00  0.00    -0.047 A 
ATOM     16  C   UNL A   1      33.358 -36.244 -27.565  0.00  0.00    -0.051 A 
ATOM     17  C   UNL A   1      34.655 -36.407 -28.118  0.00  0.00    +0.008 A 
ATOM     18  C   UNL A   1      35.113 -35.768 -29.318  0.00  0.00    -0.003 A 
ATOM     19  C   UNL A   1      34.331 -34.893 -30.105  0.00  0.00    -0.035 A 
ATOM     20  C   UNL A   1      34.862 -34.323 -31.251  0.00  0.00    +0.029 A 
ATOM     21  N   UNL A   1      36.113 -34.552 -31.679  0.00  0.00    -0.251 NA
ATOM     22  C   UNL A   1      36.877 -35.391 -30.934  0.00  0.00    +0.121 A 
ATOM     23  C   UNL A   1      36.429 -36.017 -29.759  0.00  0.00    +0.038 A 
ATOM     24  C   UNL A   1      38.264 -35.616 -31.452  0.00  0.00    +0.214 C 
ATOM     25  O   UNL A   1      38.678 -35.080 -32.475  0.00  0.00    -0.285 OA
ENDROOT
TORSDOF 0
ENDMDL
MODEL 3
REMARK VINA RESULT:    -9.313      3.213      6.194
REMARK INTER + INTRA:          -9.313
REMARK INTER:                  -9.313
REMARK INTRA:                   0.000
REMARK UNBOUND:                 0.000
REMARK  Name = cpd249.pdb
REMARK  1 active torsions:
REMARK  status: ('A' for Active; 'I' for Inactive)
REMARK    1  A    between atoms: C_1  and  N_2
REMARK                            x       y       z     vdW  Elec       q    Type
REMARK                         _______ _______ _______ _____ _____    ______ ____
ROOT
ATOM      1  C   UNL A   1      30.525 -31.802 -29.994  0.00  0.00    +0.015 C 
ATOM      2  N   UNL A   1      31.713 -32.633 -29.925  0.00  0.00    -0.318 N 
ATOM      3  C   UNL A   1      31.814 -33.616 -28.956  0.00  0.00    +0.019 A 
ATOM      4  C   UNL A   1      32.902 -34.397 -28.873  0.00  0.00    +0.049 A 
ATOM      5  C   UNL A   1      34.004 -34.227 -29.801  0.00  0.00    +0.018 A 
ATOM      6  C   UNL A   1      33.918 -33.275 -30.749  0.00  0.00    +0.013 A 
ATOM      7  C   UNL A   1      32.721 -32.400 -30.856  0.00  0.00    +0.252 A 
ATOM      8  O   UNL A   1      32.676 -31.542 -31.732  0.00  0.00    -0.268 OA
ATOM      9  C   UNL A   1      35.197 -35.094 -29.699  0.00  0.00    +0.082 A 
ATOM     10  N   UNL A   1      36.191 -34.890 -30.590  0.00  0.00    -0.246 NA
ATOM     11  C   UNL A   1      37.287 -35.654 -30.530  0.00  0.00    +0.073 A 
ATOM     12  C   UNL A   1      38.283 -35.413 -31.463  0.00  0.00    -0.022 A 
ATOM     13  C   UNL A   1      39.458 -36.157 -31.477  0.00  0.00    +0.020 A 
ATOM     14 BR   UNL A   1      40.790 -35.793 -32.767  0.00  0.00    -0.050 Br
ATOM     15  C   UNL A   1      39.655 -37.165 -30.547  0.00  0.00    -0.047 A 
ATOM     16  C   UNL A   1      38.663 -37.422 -29.600  0.00  0.00    -0.051 A 
ATOM     17  C   UNL A   1      37.457 -36.676 -29.567  0.00  0.00    +0.008 A 
ATOM     18  C   UNL A   1      36.397 -36.885 -28.624  0.00  0.00    -0.003 A 
ATOM     19  C   UNL A   1      36.417 -37.863 -27.606  0.00  0.00    -0.035 A 
ATOM     20  C   UNL A   1      35.342 -37.991 -26.740  0.00  0.00    +0.029 A 
ATOM     21  N   UNL A   1      34.245 -37.221 -26.804  0.00  0.00    -0.251 NA
ATOM     22  C   UNL A   1      34.210 -36.277 -27.778  0.00  0.00    +0.121 A 
ATOM     23  C   UNL A   1      35.248 -36.070 -28.702  0.00  0.00    +0.038 A 
ATOM     24  C   UNL A   1      32.966 -35.443 -27.812  0.00  0.00    +0.214 C 
ATOM     25  O   UNL A   1      32.047 -35.604 -27.016  0.00  0.00    -0.285 OA
ENDROOT
TORSDOF 0
ENDMDL
MODEL 4
REMARK VINA RESULT:    -8.449      3.222      5.008
REMARK INTER + INTRA:          -8.449
REMARK INTER:                  -8.449
REMARK INTRA:                   0.000
REMARK UNBOUND:                 0.000
REMARK  Name = cpd249.pdb
REMARK  1 active torsions:
REMARK  status: ('A' for Active; 'I' for Inactive)
REMARK    1  A    between atoms: C_1  and  N_2
REMARK                            x       y       z     vdW  Elec       q    Type
REMARK                         _______ _______ _______ _____ _____    ______ ____
ROOT
ATOM      1  C   UNL A   1      43.243 -35.615 -31.539  0.00  0.00    +0.015 C 
ATOM      2  N   UNL A   1      41.884 -35.991 -31.192  0.00  0.00    -0.318 N 
ATOM      3  C   UNL A   1      40.837 -35.126 -31.459  0.00  0.00    +0.019 A 
ATOM      4  C   UNL A   1      39.574 -35.451 -31.148  0.00  0.00    +0.049 A 
ATOM      5  C   UNL A   1      39.274 -36.725 -30.521  0.00  0.00    +0.018 A 
ATOM      6  C   UNL A   1      40.282 -37.576 -30.256  0.00  0.00    +0.013 A 
ATOM      7  C   UNL A   1      41.689 -37.232 -30.594  0.00  0.00    +0.252 A 
ATOM      8  O   UNL A   1      42.584 -38.032 -30.338  0.00  0.00    -0.268 OA
ATOM      9  C   UNL A   1      37.877 -37.071 -30.183  0.00  0.00    +0.082 A 
ATOM     10  N   UNL A   1      37.658 -38.270 -29.601  0.00  0.00    -0.246 NA
ATOM     11  C   UNL A   1      36.407 -38.619 -29.280  0.00  0.00    +0.073 A 
ATOM     12  C   UNL A   1      36.226 -39.858 -28.684  0.00  0.00    -0.022 A 
ATOM     13  C   UNL A   1      34.962 -40.306 -28.316  0.00  0.00    +0.020 A 
ATOM     14 BR   UNL A   1      34.761 -42.002 -27.506  0.00  0.00    -0.050 Br
ATOM     15  C   UNL A   1      33.849 -39.513 -28.541  0.00  0.00    -0.047 A 
ATOM     16  C   UNL A   1      34.013 -38.263 -29.140  0.00  0.00    -0.051 A 
ATOM     17  C   UNL A   1      35.292 -37.785 -29.524  0.00  0.00    +0.008 A 
ATOM     18  C   UNL A   1      35.534 -36.514 -30.142  0.00  0.00    -0.003 A 
ATOM     19  C   UNL A   1      34.527 -35.572 -30.449  0.00  0.00    -0.035 A 
ATOM     20  C   UNL A   1      34.859 -34.367 -31.049  0.00  0.00    +0.029 A 
ATOM     21  N   UNL A   1      36.115 -34.022 -31.369  0.00  0.00    -0.251 NA
ATOM     22  C   UNL A   1      37.094 -34.916 -31.079  0.00  0.00    +0.121 A 
ATOM     23  C   UNL A   1      36.859 -36.161 -30.474  0.00  0.00    +0.038 A 
ATOM     24  C   UNL A   1      38.479 -34.486 -31.455  0.00  0.00    +0.214 C 
ATOM     25  O   UNL A   1      38.709 -33.404 -31.984  0.00  0.00    -0.285 OA
ENDROOT
TORSDOF 0
ENDMDL
MODEL 5
REMARK VINA RESULT:    -8.425      1.652      1.796
REMARK INTER + INTRA:          -8.425
REMARK INTER:                  -8.425
REMARK INTRA:                   0.000
REMARK UNBOUND:                 0.000
REMARK  Name = cpd249.pdb
REMARK  1 active torsions:
REMARK  status: ('A' for Active; 'I' for Inactive)
REMARK    1  A    between atoms: C_1  and  N_2
REMARK                            x       y       z     vdW  Elec       q    Type
REMARK                         _______ _______ _______ _____ _____    ______ ____
ROOT
ATOM      1  C   UNL A   1      42.762 -36.104 -30.907  0.00  0.00    +0.015 C 
ATOM      2  N   UNL A   1      41.321 -36.160 -30.736  0.00  0.00    -0.318 N 
ATOM      3  C   UNL A   1      40.754 -37.160 -29.966  0.00  0.00    +0.019 A 
ATOM      4  C   UNL A   1      39.426 -37.232 -29.794  0.00  0.00    +0.049 A 
ATOM      5  C   UNL A   1      38.548 -36.258 -30.414  0.00  0.00    +0.018 A 
ATOM      6  C   UNL A   1      39.086 -35.280 -31.166  0.00  0.00    +0.013 A 
ATOM      7  C   UNL A   1      40.556 -35.184 -31.368  0.00  0.00    +0.252 A 
ATOM      8  O   UNL A   1      41.013 -34.279 -32.060  0.00  0.00    -0.268 OA
ATOM      9  C   UNL A   1      37.085 -36.349 -30.216  0.00  0.00    +0.082 A 
ATOM     10  N   UNL A   1      36.318 -35.414 -30.818  0.00  0.00    -0.246 NA
ATOM     11  C   UNL A   1      34.991 -35.463 -30.663  0.00  0.00    +0.073 A 
ATOM     12  C   UNL A   1      34.240 -34.485 -31.297  0.00  0.00    -0.022 A 
ATOM     13  C   UNL A   1      32.853 -34.456 -31.193  0.00  0.00    +0.020 A 
ATOM     14 BR   UNL A   1      31.870 -33.104 -32.074  0.00  0.00    -0.050 Br
ATOM     15  C   UNL A   1      32.191 -35.414 -30.444  0.00  0.00    -0.047 A 
ATOM     16  C   UNL A   1      32.931 -36.406 -29.798  0.00  0.00    -0.051 A 
ATOM     17  C   UNL A   1      34.346 -36.456 -29.891  0.00  0.00    +0.008 A 
ATOM     18  C   UNL A   1      35.167 -37.444 -29.255  0.00  0.00    -0.003 A 
ATOM     19  C   UNL A   1      34.674 -38.497 -28.454  0.00  0.00    -0.035 A 
ATOM     20  C   UNL A   1      35.548 -39.406 -27.880  0.00  0.00    +0.029 A 
ATOM     21  N   UNL A   1      36.880 -39.353 -28.039  0.00  0.00    -0.251 NA
ATOM     22  C   UNL A   1      37.370 -38.347 -28.807  0.00  0.00    +0.121 A 
ATOM     23  C   UNL A   1      36.566 -37.378 -29.430  0.00  0.00    +0.038 A 
ATOM     24  C   UNL A   1      38.860 -38.328 -28.955  0.00  0.00    +0.214 C 
ATOM     25  O   UNL A   1      39.583 -39.163 -28.421  0.00  0.00    -0.285 OA
ENDROOT
TORSDOF 0
ENDMDL
MODEL 6
REMARK VINA RESULT:    -8.320      4.058      7.675
REMARK INTER + INTRA:          -8.320
REMARK INTER:                  -8.320
REMARK INTRA:                   0.000
REMARK UNBOUND:                 0.000
REMARK  Name = cpd249.pdb
REMARK  1 active torsions:
REMARK  status: ('A' for Active; 'I' for Inactive)
REMARK    1  A    between atoms: C_1  and  N_2
REMARK                            x       y       z     vdW  Elec       q    Type
REMARK                         _______ _______ _______ _____ _____    ______ ____
ROOT
ATOM      1  C   UNL A   1      30.634 -37.954 -22.443  0.00  0.00    +0.015 C 
ATOM      2  N   UNL A   1      31.556 -37.714 -23.539  0.00  0.00    -0.318 N 
ATOM      3  C   UNL A   1      31.177 -36.906 -24.597  0.00  0.00    +0.019 A 
ATOM      4  C   UNL A   1      32.011 -36.670 -25.621  0.00  0.00    +0.049 A 
ATOM      5  C   UNL A   1      33.338 -37.258 -25.642  0.00  0.00    +0.018 A 
ATOM      6  C   UNL A   1      33.719 -38.045 -24.619  0.00  0.00    +0.013 A 
ATOM      7  C   UNL A   1      32.808 -38.318 -23.476  0.00  0.00    +0.252 A 
ATOM      8  O   UNL A   1      33.189 -39.041 -22.559  0.00  0.00    -0.268 OA
ATOM      9  C   UNL A   1      34.247 -36.989 -26.776  0.00  0.00    +0.082 A 
ATOM     10  N   UNL A   1      35.469 -37.563 -26.741  0.00  0.00    -0.246 NA
ATOM     11  C   UNL A   1      36.321 -37.344 -27.749  0.00  0.00    +0.073 A 
ATOM     12  C   UNL A   1      37.564 -37.951 -27.674  0.00  0.00    -0.022 A 
ATOM     13  C   UNL A   1      38.515 -37.781 -28.676  0.00  0.00    +0.020 A 
ATOM     14 BR   UNL A   1      40.198 -38.628 -28.533  0.00  0.00    -0.050 Br
ATOM     15  C   UNL A   1      38.231 -36.991 -29.777  0.00  0.00    -0.047 A 
ATOM     16  C   UNL A   1      36.984 -36.371 -29.869  0.00  0.00    -0.051 A 
ATOM     17  C   UNL A   1      36.000 -36.531 -28.860  0.00  0.00    +0.008 A 
ATOM     18  C   UNL A   1      34.700 -35.925 -28.889  0.00  0.00    -0.003 A 
ATOM     19  C   UNL A   1      34.232 -35.090 -29.927  0.00  0.00    -0.035 A 
ATOM     20  C   UNL A   1      32.958 -34.549 -29.866  0.00  0.00    +0.029 A 
ATOM     21  N   UNL A   1      32.107 -34.772 -28.853  0.00  0.00    -0.251 NA
ATOM     22  C   UNL A   1      32.542 -35.573 -27.847  0.00  0.00    +0.121 A 
ATOM     23  C   UNL A   1      33.814 -36.167 -27.818  0.00  0.00    +0.038 A 
ATOM     24  C   UNL A   1      31.559 -35.793 -26.739  0.00  0.00    +0.214 C 
ATOM     25  O   UNL A   1      30.442 -35.286 -26.743  0.00  0.00    -0.285 OA
ENDROOT
TORSDOF 0
ENDMDL
MODEL 7
REMARK VINA RESULT:    -8.255      3.709      7.107
REMARK INTER + INTRA:          -8.255
REMARK INTER:                  -8.255
REMARK INTRA:                   0.000
REMARK UNBOUND:                 0.000
REMARK  Name = cpd249.pdb
REMARK  1 active torsions:
REMARK  status: ('A' for Active; 'I' for Inactive)
REMARK    1  A    between atoms: C_1  and  N_2
REMARK                            x       y       z     vdW  Elec       q    Type
REMARK                         _______ _______ _______ _____ _____    ______ ____
ROOT
ATOM      1  C   UNL A   1      30.264 -29.803 -30.550  0.00  0.00    +0.015 C 
ATOM      2  N   UNL A   1      31.068 -30.947 -30.158  0.00  0.00    -0.318 N 
ATOM      3  C   UNL A   1      32.274 -31.195 -30.791  0.00  0.00    +0.019 A 
ATOM      4  C   UNL A   1      33.033 -32.246 -30.446  0.00  0.00    +0.049 A 
ATOM      5  C   UNL A   1      32.607 -33.151 -29.396  0.00  0.00    +0.018 A 
ATOM      6  C   UNL A   1      31.437 -32.921 -28.772  0.00  0.00    +0.013 A 
ATOM      7  C   UNL A   1      30.581 -31.763 -29.140  0.00  0.00    +0.252 A 
ATOM      8  O   UNL A   1      29.520 -31.583 -28.551  0.00  0.00    -0.268 OA
ATOM      9  C   UNL A   1      33.454 -34.305 -29.026  0.00  0.00    +0.082 A 
ATOM     10  N   UNL A   1      33.005 -35.113 -28.042  0.00  0.00    -0.246 NA
ATOM     11  C   UNL A   1      33.743 -36.168 -27.678  0.00  0.00    +0.073 A 
ATOM     12  C   UNL A   1      33.247 -36.972 -26.664  0.00  0.00    -0.022 A 
ATOM     13  C   UNL A   1      33.945 -38.090 -26.219  0.00  0.00    +0.020 A 
ATOM     14 BR   UNL A   1      33.231 -39.159 -24.834  0.00  0.00    -0.050 Br
ATOM     15  C   UNL A   1      35.162 -38.423 -26.790  0.00  0.00    -0.047 A 
ATOM     16  C   UNL A   1      35.677 -37.625 -27.813  0.00  0.00    -0.051 A 
ATOM     17  C   UNL A   1      34.983 -36.480 -28.282  0.00  0.00    +0.008 A 
ATOM     18  C   UNL A   1      35.451 -35.617 -29.326  0.00  0.00    -0.003 A 
ATOM     19  C   UNL A   1      36.666 -35.795 -30.024  0.00  0.00    -0.035 A 
ATOM     20  C   UNL A   1      37.035 -34.906 -31.021  0.00  0.00    +0.029 A 
ATOM     21  N   UNL A   1      36.291 -33.849 -31.382  0.00  0.00    -0.251 NA
ATOM     22  C   UNL A   1      35.121 -33.664 -30.720  0.00  0.00    +0.121 A 
ATOM     23  C   UNL A   1      34.660 -34.509 -29.697  0.00  0.00    +0.038 A 
ATOM     24  C   UNL A   1      34.325 -32.472 -31.157  0.00  0.00    +0.214 C 
ATOM     25  O   UNL A   1      34.706 -31.720 -32.048  0.00  0.00    -0.285 OA
ENDROOT
TORSDOF 0
ENDMDL
MODEL 8
REMARK VINA RESULT:    -8.226      3.509      6.584
REMARK INTER + INTRA:          -8.226
REMARK INTER:                  -8.226
REMARK INTRA:                   0.000
REMARK UNBOUND:                 0.000
REMARK  Name = cpd249.pdb
REMARK  1 active torsions:
REMARK  status: ('A' for Active; 'I' for Inactive)
REMARK    1  A    between atoms: C_1  and  N_2
REMARK                            x       y       z     vdW  Elec       q    Type
REMARK                         _______ _______ _______ _____ _____    ______ ____
ROOT
ATOM      1  C   UNL A   1      32.354 -40.613 -26.854  0.00  0.00    +0.015 C 
ATOM      2  N   UNL A   1      33.243 -39.714 -27.570  0.00  0.00    -0.318 N 
ATOM      3  C   UNL A   1      32.794 -38.466 -27.965  0.00  0.00    +0.019 A 
ATOM      4  C   UNL A   1      33.596 -37.620 -28.627  0.00  0.00    +0.049 A 
ATOM      5  C   UNL A   1      34.960 -37.995 -28.947  0.00  0.00    +0.018 A 
ATOM      6  C   UNL A   1      35.410 -39.206 -28.569  0.00  0.00    +0.013 A 
ATOM      7  C   UNL A   1      34.536 -40.158 -27.834  0.00  0.00    +0.252 A 
ATOM      8  O   UNL A   1      34.978 -41.254 -27.504  0.00  0.00    -0.268 OA
ATOM      9  C   UNL A   1      35.834 -37.053 -29.678  0.00  0.00    +0.082 A 
ATOM     10  N   UNL A   1      37.094 -37.456 -29.948  0.00  0.00    -0.246 NA
ATOM     11  C   UNL A   1      37.916 -36.632 -30.607  0.00  0.00    +0.073 A 
ATOM     12  C   UNL A   1      39.200 -37.085 -30.864  0.00  0.00    -0.022 A 
ATOM     13  C   UNL A   1      40.124 -36.297 -31.543  0.00  0.00    +0.020 A 
ATOM     14 BR   UNL A   1      41.864 -36.955 -31.872  0.00  0.00    -0.050 Br
ATOM     15  C   UNL A   1      39.770 -35.031 -31.980  0.00  0.00    -0.047 A 
ATOM     16  C   UNL A   1      38.481 -34.558 -31.730  0.00  0.00    -0.051 A 
ATOM     17  C   UNL A   1      37.523 -35.344 -31.039  0.00  0.00    +0.008 A 
ATOM     18  C   UNL A   1      36.184 -34.924 -30.749  0.00  0.00    -0.003 A 
ATOM     19  C   UNL A   1      35.644 -33.670 -31.113  0.00  0.00    -0.035 A 
ATOM     20  C   UNL A   1      34.335 -33.353 -30.788  0.00  0.00    +0.029 A 
ATOM     21  N   UNL A   1      33.515 -34.184 -30.126  0.00  0.00    -0.251 NA
ATOM     22  C   UNL A   1      34.019 -35.392 -29.768  0.00  0.00    +0.121 A 
ATOM     23  C   UNL A   1      35.331 -35.806 -30.052  0.00  0.00    +0.038 A 
ATOM     24  C   UNL A   1      33.068 -36.285 -29.032  0.00  0.00    +0.214 C 
ATOM     25  O   UNL A   1      31.918 -35.946 -28.773  0.00  0.00    -0.285 OA
ENDROOT
TORSDOF 0
ENDMDL
MODEL 9
REMARK VINA RESULT:    -8.109     17.322     19.948
REMARK INTER + INTRA:          -8.109
REMARK INTER:                  -8.109
REMARK INTRA:                   0.000
REMARK UNBOUND:                 0.000
REMARK  Name = cpd249.pdb
REMARK  1 active torsions:
REMARK  status: ('A' for Active; 'I' for Inactive)
REMARK    1  A    between atoms: C_1  and  N_2
REMARK                            x       y       z     vdW  Elec       q    Type
REMARK                         _______ _______ _______ _____ _____    ______ ____
ROOT
ATOM      1  C   UNL A   1      39.807 -20.638 -32.675  0.00  0.00    +0.015 C 
ATOM      2  N   UNL A   1      40.888 -20.563 -33.643  0.00  0.00    -0.318 N 
ATOM      3  C   UNL A   1      42.086 -19.963 -33.296  0.00  0.00    +0.019 A 
ATOM      4  C   UNL A   1      43.098 -19.883 -34.173  0.00  0.00    +0.049 A 
ATOM      5  C   UNL A   1      42.960 -20.426 -35.511  0.00  0.00    +0.018 A 
ATOM      6  C   UNL A   1      41.800 -21.012 -35.861  0.00  0.00    +0.013 A 
ATOM      7  C   UNL A   1      40.667 -21.110 -34.903  0.00  0.00    +0.252 A 
ATOM      8  O   UNL A   1      39.623 -21.652 -35.255  0.00  0.00    -0.268 OA
ATOM      9  C   UNL A   1      44.084 -20.330 -36.467  0.00  0.00    +0.082 A 
ATOM     10  N   UNL A   1      43.897 -20.853 -37.698  0.00  0.00    -0.246 NA
ATOM     11  C   UNL A   1      44.890 -20.787 -38.591  0.00  0.00    +0.073 A 
ATOM     12  C   UNL A   1      44.658 -21.335 -39.843  0.00  0.00    -0.022 A 
ATOM     13  C   UNL A   1      45.632 -21.312 -40.836  0.00  0.00    +0.020 A 
ATOM     14 BR   UNL A   1      45.272 -22.072 -42.528  0.00  0.00    -0.050 Br
ATOM     15  C   UNL A   1      46.866 -20.734 -40.587  0.00  0.00    -0.047 A 
ATOM     16  C   UNL A   1      47.117 -20.177 -39.333  0.00  0.00    -0.051 A 
ATOM     17  C   UNL A   1      46.139 -20.189 -38.306  0.00  0.00    +0.008 A 
ATOM     18  C   UNL A   1      46.329 -19.636 -36.996  0.00  0.00    -0.003 A 
ATOM     19  C   UNL A   1      47.515 -19.008 -36.559  0.00  0.00    -0.035 A 
ATOM     20  C   UNL A   1      47.605 -18.502 -35.272  0.00  0.00    +0.029 A 
ATOM     21  N   UNL A   1      46.605 -18.572 -34.379  0.00  0.00    -0.251 NA
ATOM     22  C   UNL A   1      45.458 -19.173 -34.784  0.00  0.00    +0.121 A 
ATOM     23  C   UNL A   1      45.271 -19.715 -36.066  0.00  0.00    +0.038 A 
ATOM     24  C   UNL A   1      44.371 -19.227 -33.754  0.00  0.00    +0.214 C 
ATOM     25  O   UNL A   1      44.511 -18.761 -32.628  0.00  0.00    -0.285 OA
ENDROOT
TORSDOF 0
ENDMDL
MODEL 10
REMARK VINA RESULT:    -7.789      3.563      6.856
REMARK INTER + INTRA:          -7.789
REMARK INTER:                  -7.789
REMARK INTRA:                   0.000
REMARK UNBOUND:                 0.000
REMARK  Name = cpd249.pdb
REMARK  1 active torsions:
REMARK  status: ('A' for Active; 'I' for Inactive)
REMARK    1  A    between atoms: C_1  and  N_2
REMARK                            x       y       z     vdW  Elec       q    Type
REMARK                         _______ _______ _______ _____ _____    ______ ____
ROOT
ATOM      1  C   UNL A   1      31.141 -30.840 -29.937  0.00  0.00    +0.015 C 
ATOM      2  N   UNL A   1      31.996 -32.012 -29.866  0.00  0.00    -0.318 N 
ATOM      3  C   UNL A   1      33.257 -31.985 -30.435  0.00  0.00    +0.019 A 
ATOM      4  C   UNL A   1      34.063 -33.055 -30.381  0.00  0.00    +0.049 A 
ATOM      5  C   UNL A   1      33.630 -34.273 -29.723  0.00  0.00    +0.018 A 
ATOM      6  C   UNL A   1      32.406 -34.313 -29.165  0.00  0.00    +0.013 A 
ATOM      7  C   UNL A   1      31.498 -33.137 -29.214  0.00  0.00    +0.252 A 
ATOM      8  O   UNL A   1      30.387 -33.208 -28.696  0.00  0.00    -0.268 OA
ATOM      9  C   UNL A   1      34.529 -35.446 -29.671  0.00  0.00    +0.082 A 
ATOM     10  N   UNL A   1      34.072 -36.551 -29.045  0.00  0.00    -0.246 NA
ATOM     11  C   UNL A   1      34.855 -37.633 -28.977  0.00  0.00    +0.073 A 
ATOM     12  C   UNL A   1      34.348 -38.746 -28.326  0.00  0.00    -0.022 A 
ATOM     13  C   UNL A   1      35.091 -39.916 -28.206  0.00  0.00    +0.020 A 
ATOM     14 BR   UNL A   1      34.360 -41.411 -27.310  0.00  0.00    -0.050 Br
ATOM     15  C   UNL A   1      36.366 -39.989 -28.743  0.00  0.00    -0.047 A 
ATOM     16  C   UNL A   1      36.893 -38.878 -29.402  0.00  0.00    -0.051 A 
ATOM     17  C   UNL A   1      36.153 -37.674 -29.536  0.00  0.00    +0.008 A 
ATOM     18  C   UNL A   1      36.631 -36.496 -30.199  0.00  0.00    -0.003 A 
ATOM     19  C   UNL A   1      37.901 -36.381 -30.805  0.00  0.00    -0.035 A 
ATOM     20  C   UNL A   1      38.275 -35.199 -31.424  0.00  0.00    +0.029 A 
ATOM     21  N   UNL A   1      37.485 -34.117 -31.489  0.00  0.00    -0.251 NA
ATOM     22  C   UNL A   1      36.260 -34.211 -30.911  0.00  0.00    +0.121 A 
ATOM     23  C   UNL A   1      35.791 -35.364 -30.261  0.00  0.00    +0.038 A 
ATOM     24  C   UNL A   1      35.414 -32.979 -31.009  0.00  0.00    +0.214 C 
ATOM     25  O   UNL A   1      35.802 -31.960 -31.571  0.00  0.00    -0.285 OA
ENDROOT
TORSDOF 0
ENDMDL
MODEL 11
REMARK VINA RESULT:    -7.548     17.173     19.215
REMARK INTER + INTRA:          -7.548
REMARK INTER:                  -7.548
REMARK INTRA:                   0.000
REMARK UNBOUND:                 0.000
REMARK  Name = cpd249.pdb
REMARK  1 active torsions:
REMARK  status: ('A' for Active; 'I' for Inactive)
REMARK    1  A    between atoms: C_1  and  N_2
REMARK                            x       y       z     vdW  Elec       q    Type
REMARK                         _______ _______ _______ _____ _____    ______ ____
ROOT
ATOM      1  C   UNL A   1      45.176 -17.201 -31.903  0.00  0.00    +0.015 C 
ATOM      2  N   UNL A   1      44.696 -17.889 -33.089  0.00  0.00    -0.318 N 
ATOM      3  C   UNL A   1      43.670 -18.812 -32.984  0.00  0.00    +0.019 A 
ATOM      4  C   UNL A   1      43.209 -19.460 -34.065  0.00  0.00    +0.049 A 
ATOM      5  C   UNL A   1      43.778 -19.206 -35.375  0.00  0.00    +0.018 A 
ATOM      6  C   UNL A   1      44.777 -18.311 -35.491  0.00  0.00    +0.013 A 
ATOM      7  C   UNL A   1      45.300 -17.584 -34.304  0.00  0.00    +0.252 A 
ATOM      8  O   UNL A   1      46.212 -16.773 -34.446  0.00  0.00    -0.268 OA
ATOM      9  C   UNL A   1      43.261 -19.927 -36.558  0.00  0.00    +0.082 A 
ATOM     10  N   UNL A   1      43.830 -19.650 -37.751  0.00  0.00    -0.246 NA
ATOM     11  C   UNL A   1      43.389 -20.282 -38.844  0.00  0.00    +0.073 A 
ATOM     12  C   UNL A   1      44.000 -19.969 -40.049  0.00  0.00    -0.022 A 
ATOM     13  C   UNL A   1      43.608 -20.575 -41.238  0.00  0.00    +0.020 A 
ATOM     14 BR   UNL A   1      44.468 -20.118 -42.858  0.00  0.00    -0.050 Br
ATOM     15  C   UNL A   1      42.589 -21.513 -41.239  0.00  0.00    -0.047 A 
ATOM     16  C   UNL A   1      41.964 -21.841 -40.035  0.00  0.00    -0.051 A 
ATOM     17  C   UNL A   1      42.346 -21.235 -38.811  0.00  0.00    +0.008 A 
ATOM     18  C   UNL A   1      41.748 -21.523 -37.540  0.00  0.00    -0.003 A 
ATOM     19  C   UNL A   1      40.699 -22.448 -37.342  0.00  0.00    -0.035 A 
ATOM     20  C   UNL A   1      40.185 -22.660 -36.073  0.00  0.00    +0.029 A 
ATOM     21  N   UNL A   1      40.630 -22.024 -34.979  0.00  0.00    -0.251 NA
ATOM     22  C   UNL A   1      41.638 -21.131 -35.152  0.00  0.00    +0.121 A 
ATOM     23  C   UNL A   1      42.225 -20.848 -36.396  0.00  0.00    +0.038 A 
ATOM     24  C   UNL A   1      42.102 -20.446 -33.903  0.00  0.00    +0.214 C 
ATOM     25  O   UNL A   1      41.605 -20.677 -32.805  0.00  0.00    -0.285 OA
ENDROOT
TORSDOF 0
ENDMDL
MODEL 12
REMARK VINA RESULT:    -7.469     19.215     20.438
REMARK INTER + INTRA:          -7.469
REMARK INTER:                  -7.469
REMARK INTRA:                   0.000
REMARK UNBOUND:                 0.000
REMARK  Name = cpd249.pdb
REMARK  1 active torsions:
REMARK  status: ('A' for Active; 'I' for Inactive)
REMARK    1  A    between atoms: C_1  and  N_2
REMARK                            x       y       z     vdW  Elec       q    Type
REMARK                         _______ _______ _______ _____ _____    ______ ____
ROOT
ATOM      1  C   UNL A   1      43.841 -17.374 -32.624  0.00  0.00    +0.015 C 
ATOM      2  N   UNL A   1      44.020 -18.081 -33.880  0.00  0.00    -0.318 N 
ATOM      3  C   UNL A   1      42.919 -18.413 -34.650  0.00  0.00    +0.019 A 
ATOM      4  C   UNL A   1      43.060 -19.066 -35.813  0.00  0.00    +0.049 A 
ATOM      5  C   UNL A   1      44.376 -19.440 -36.293  0.00  0.00    +0.018 A 
ATOM      6  C   UNL A   1      45.456 -19.123 -35.555  0.00  0.00    +0.013 A 
ATOM      7  C   UNL A   1      45.319 -18.400 -34.263  0.00  0.00    +0.252 A 
ATOM      8  O   UNL A   1      46.325 -18.127 -33.614  0.00  0.00    -0.268 OA
ATOM      9  C   UNL A   1      44.517 -20.160 -37.578  0.00  0.00    +0.082 A 
ATOM     10  N   UNL A   1      45.767 -20.483 -37.974  0.00  0.00    -0.246 NA
ATOM     11  C   UNL A   1      45.936 -21.134 -39.130  0.00  0.00    +0.073 A 
ATOM     12  C   UNL A   1      47.234 -21.446 -39.501  0.00  0.00    -0.022 A 
ATOM     13  C   UNL A   1      47.507 -22.122 -40.686  0.00  0.00    +0.020 A 
ATOM     14 BR   UNL A   1      49.293 -22.527 -41.151  0.00  0.00    -0.050 Br
ATOM     15  C   UNL A   1      46.472 -22.498 -41.526  0.00  0.00    -0.047 A 
ATOM     16  C   UNL A   1      45.158 -22.192 -41.169  0.00  0.00    -0.051 A 
ATOM     17  C   UNL A   1      44.857 -21.504 -39.965  0.00  0.00    +0.008 A 
ATOM     18  C   UNL A   1      43.533 -21.157 -39.537  0.00  0.00    -0.003 A 
ATOM     19  C   UNL A   1      42.357 -21.457 -40.258  0.00  0.00    -0.035 A 
ATOM     20  C   UNL A   1      41.119 -21.080 -39.762  0.00  0.00    +0.029 A 
ATOM     21  N   UNL A   1      40.955 -20.427 -38.602  0.00  0.00    -0.251 NA
ATOM     22  C   UNL A   1      42.076 -20.132 -37.896  0.00  0.00    +0.121 A 
ATOM     23  C   UNL A   1      43.373 -20.470 -38.315  0.00  0.00    +0.038 A 
ATOM     24  C   UNL A   1      41.844 -19.403 -36.608  0.00  0.00    +0.214 C 
ATOM     25  O   UNL A   1      40.721 -19.096 -36.222  0.00  0.00    -0.285 OA
ENDROOT
TORSDOF 0
ENDMDL
MODEL 13
REMARK VINA RESULT:    -7.438     16.445     18.523
REMARK INTER + INTRA:          -7.438
REMARK INTER:                  -7.438
REMARK INTRA:                   0.000
REMARK UNBOUND:                 0.000
REMARK  Name = cpd249.pdb
REMARK  1 active torsions:
REMARK  status: ('A' for Active; 'I' for Inactive)
REMARK    1  A    between atoms: C_1  and  N_2
REMARK                            x       y       z     vdW  Elec       q    Type
REMARK                         _______ _______ _______ _____ _____    ______ ____
ROOT
ATOM      1  C   UNL A   1      44.435 -20.239 -42.499  0.00  0.00    +0.015 C 
ATOM      2  N   UNL A   1      43.964 -20.413 -41.136  0.00  0.00    -0.318 N 
ATOM      3  C   UNL A   1      44.591 -19.747 -40.097  0.00  0.00    +0.019 A 
ATOM      4  C   UNL A   1      44.175 -19.892 -38.830  0.00  0.00    +0.049 A 
ATOM      5  C   UNL A   1      43.051 -20.756 -38.518  0.00  0.00    +0.018 A 
ATOM      6  C   UNL A   1      42.433 -21.410 -39.519  0.00  0.00    +0.013 A 
ATOM      7  C   UNL A   1      42.880 -21.261 -40.929  0.00  0.00    +0.252 A 
ATOM      8  O   UNL A   1      42.293 -21.872 -41.817  0.00  0.00    -0.268 OA
ATOM      9  C   UNL A   1      42.602 -20.907 -37.118  0.00  0.00    +0.082 A 
ATOM     10  N   UNL A   1      41.552 -21.724 -36.887  0.00  0.00    -0.246 NA
ATOM     11  C   UNL A   1      41.116 -21.887 -35.634  0.00  0.00    +0.073 A 
ATOM     12  C   UNL A   1      40.036 -22.734 -35.441  0.00  0.00    -0.022 A 
ATOM     13  C   UNL A   1      39.514 -22.965 -34.172  0.00  0.00    +0.020 A 
ATOM     14 BR   UNL A   1      38.040 -24.127 -33.955  0.00  0.00    -0.050 Br
ATOM     15  C   UNL A   1      40.072 -22.344 -33.066  0.00  0.00    -0.047 A 
ATOM     16  C   UNL A   1      41.160 -21.488 -33.242  0.00  0.00    -0.051 A 
ATOM     17  C   UNL A   1      41.709 -21.238 -34.526  0.00  0.00    +0.008 A 
ATOM     18  C   UNL A   1      42.823 -20.373 -34.780  0.00  0.00    -0.003 A 
ATOM     19  C   UNL A   1      43.520 -19.656 -33.782  0.00  0.00    -0.035 A 
ATOM     20  C   UNL A   1      44.588 -18.842 -34.125  0.00  0.00    +0.029 A 
ATOM     21  N   UNL A   1      45.022 -18.682 -35.384  0.00  0.00    -0.251 NA
ATOM     22  C   UNL A   1      44.362 -19.364 -36.355  0.00  0.00    +0.121 A 
ATOM     23  C   UNL A   1      43.270 -20.212 -36.108  0.00  0.00    +0.038 A 
ATOM     24  C   UNL A   1      44.881 -19.154 -37.744  0.00  0.00    +0.214 C 
ATOM     25  O   UNL A   1      45.833 -18.419 -37.984  0.00  0.00    -0.285 OA
ENDROOT
TORSDOF 0
ENDMDL
MODEL 14
REMARK VINA RESULT:    -7.420     18.076     20.904
REMARK INTER + INTRA:          -7.420
REMARK INTER:                  -7.420
REMARK INTRA:                   0.000
REMARK UNBOUND:                 0.000
REMARK  Name = cpd249.pdb
REMARK  1 active torsions:
REMARK  status: ('A' for Active; 'I' for Inactive)
REMARK    1  A    between atoms: C_1  and  N_2
REMARK                            x       y       z     vdW  Elec       q    Type
REMARK                         _______ _______ _______ _____ _____    ______ ____
ROOT
ATOM      1  C   UNL A   1      39.022 -21.219 -35.138  0.00  0.00    +0.015 C 
ATOM      2  N   UNL A   1      40.059 -21.003 -36.132  0.00  0.00    -0.318 N 
ATOM      3  C   UNL A   1      40.185 -19.768 -36.743  0.00  0.00    +0.019 A 
ATOM      4  C   UNL A   1      41.136 -19.545 -37.663  0.00  0.00    +0.049 A 
ATOM      5  C   UNL A   1      42.058 -20.599 -38.040  0.00  0.00    +0.018 A 
ATOM      6  C   UNL A   1      41.947 -21.805 -37.453  0.00  0.00    +0.013 A 
ATOM      7  C   UNL A   1      40.900 -22.071 -36.431  0.00  0.00    +0.252 A 
ATOM      8  O   UNL A   1      40.827 -23.182 -35.916  0.00  0.00    -0.268 OA
ATOM      9  C   UNL A   1      43.102 -20.340 -39.056  0.00  0.00    +0.082 A 
ATOM     10  N   UNL A   1      43.932 -21.359 -39.366  0.00  0.00    -0.246 NA
ATOM     11  C   UNL A   1      44.888 -21.164 -40.281  0.00  0.00    +0.073 A 
ATOM     12  C   UNL A   1      45.719 -22.235 -40.570  0.00  0.00    -0.022 A 
ATOM     13  C   UNL A   1      46.742 -22.125 -41.507  0.00  0.00    +0.020 A 
ATOM     14 BR   UNL A   1      47.851 -23.612 -41.871  0.00  0.00    -0.050 Br
ATOM     15  C   UNL A   1      46.949 -20.929 -42.175  0.00  0.00    -0.047 A 
ATOM     16  C   UNL A   1      46.123 -19.841 -41.895  0.00  0.00    -0.051 A 
ATOM     17  C   UNL A   1      45.074 -19.929 -40.944  0.00  0.00    +0.008 A 
ATOM     18  C   UNL A   1      44.188 -18.853 -40.608  0.00  0.00    -0.003 A 
ATOM     19  C   UNL A   1      44.245 -17.564 -41.182  0.00  0.00    -0.035 A 
ATOM     20  C   UNL A   1      43.343 -16.586 -40.792  0.00  0.00    +0.029 A 
ATOM     21  N   UNL A   1      42.385 -16.787 -39.875  0.00  0.00    -0.251 NA
ATOM     22  C   UNL A   1      42.317 -18.021 -39.314  0.00  0.00    +0.121 A 
ATOM     23  C   UNL A   1      43.184 -19.076 -39.642  0.00  0.00    +0.038 A 
ATOM     24  C   UNL A   1      41.233 -18.198 -38.296  0.00  0.00    +0.214 C 
ATOM     25  O   UNL A   1      40.464 -17.291 -37.993  0.00  0.00    -0.285 OA
ENDROOT
TORSDOF 0
ENDMDL
MODEL 15
REMARK VINA RESULT:    -7.309     26.246     28.438
REMARK INTER + INTRA:          -7.309
REMARK INTER:                  -7.309
REMARK INTRA:                   0.000
REMARK UNBOUND:                 0.000
REMARK  Name = cpd249.pdb
REMARK  1 active torsions:
REMARK  status: ('A' for Active; 'I' for Inactive)
REMARK    1  A    between atoms: C_1  and  N_2
REMARK                            x       y       z     vdW  Elec       q    Type
REMARK                         _______ _______ _______ _____ _____    ______ ____
ROOT
ATOM      1  C   UNL A   1      44.591 -37.922 -53.661  0.00  0.00    +0.015 C 
ATOM      2  N   UNL A   1      44.965 -36.605 -54.146  0.00  0.00    -0.318 N 
ATOM      3  C   UNL A   1      46.025 -35.930 -53.565  0.00  0.00    +0.019 A 
ATOM      4  C   UNL A   1      46.389 -34.713 -53.996  0.00  0.00    +0.049 A 
ATOM      5  C   UNL A   1      45.677 -34.073 -55.085  0.00  0.00    +0.018 A 
ATOM      6  C   UNL A   1      44.644 -34.718 -55.659  0.00  0.00    +0.013 A 
ATOM      7  C   UNL A   1      44.226 -36.067 -55.195  0.00  0.00    +0.252 A 
ATOM      8  O   UNL A   1      43.280 -36.628 -55.741  0.00  0.00    -0.268 OA
ATOM      9  C   UNL A   1      46.089 -32.731 -55.550  0.00  0.00    +0.082 A 
ATOM     10  N   UNL A   1      45.389 -32.185 -56.568  0.00  0.00    -0.246 NA
ATOM     11  C   UNL A   1      45.731 -30.972 -57.016  0.00  0.00    +0.073 A 
ATOM     12  C   UNL A   1      44.987 -30.447 -58.062  0.00  0.00    -0.022 A 
ATOM     13  C   UNL A   1      45.270 -29.193 -58.594  0.00  0.00    +0.020 A 
ATOM     14 BR   UNL A   1      44.230 -28.518 -60.019  0.00  0.00    -0.050 Br
ATOM     15  C   UNL A   1      46.312 -28.439 -58.081  0.00  0.00    -0.047 A 
ATOM     16  C   UNL A   1      47.071 -28.951 -57.029  0.00  0.00    -0.051 A 
ATOM     17  C   UNL A   1      46.801 -30.227 -56.471  0.00  0.00    +0.008 A 
ATOM     18  C   UNL A   1      47.539 -30.814 -55.390  0.00  0.00    -0.003 A 
ATOM     19  C   UNL A   1      48.631 -30.198 -54.742  0.00  0.00    -0.035 A 
ATOM     20  C   UNL A   1      49.283 -30.846 -53.705  0.00  0.00    +0.029 A 
ATOM     21  N   UNL A   1      48.936 -32.062 -53.258  0.00  0.00    -0.251 NA
ATOM     22  C   UNL A   1      47.888 -32.669 -53.872  0.00  0.00    +0.121 A 
ATOM     23  C   UNL A   1      47.165 -32.094 -54.930  0.00  0.00    +0.038 A 
ATOM     24  C   UNL A   1      47.538 -34.024 -53.339  0.00  0.00    +0.214 C 
ATOM     25  O   UNL A   1      48.154 -34.546 -52.416  0.00  0.00    -0.285 OA
ENDROOT
TORSDOF 0
ENDMDL
MODEL 16
REMARK VINA RESULT:    -7.238      2.329      5.228
REMARK INTER + INTRA:          -7.238
REMARK INTER:                  -7.238
REMARK INTRA:                   0.000
REMARK UNBOUND:                 0.000
REMARK  Name = cpd249.pdb
REMARK  1 active torsions:
REMARK  status: ('A' for Active; 'I' for Inactive)
REMARK    1  A    between atoms: C_1  and  N_2
REMARK                            x       y       z     vdW  Elec       q    Type
REMARK                         _______ _______ _______ _____ _____    ______ ____
ROOT
ATOM      1  C   UNL A   1      32.854 -41.405 -25.955  0.00  0.00    +0.015 C 
ATOM      2  N   UNL A   1      33.260 -40.208 -26.671  0.00  0.00    -0.318 N 
ATOM      3  C   UNL A   1      34.499 -40.157 -27.286  0.00  0.00    +0.019 A 
ATOM      4  C   UNL A   1      34.895 -39.062 -27.952  0.00  0.00    +0.049 A 
ATOM      5  C   UNL A   1      34.030 -37.901 -28.044  0.00  0.00    +0.018 A 
ATOM      6  C   UNL A   1      32.822 -37.938 -27.451  0.00  0.00    +0.013 A 
ATOM      7  C   UNL A   1      32.366 -39.142 -26.708  0.00  0.00    +0.252 A 
ATOM      8  O   UNL A   1      31.258 -39.142 -26.179  0.00  0.00    -0.268 OA
ATOM      9  C   UNL A   1      34.479 -36.701 -28.782  0.00  0.00    +0.082 A 
ATOM     10  N   UNL A   1      33.632 -35.651 -28.834  0.00  0.00    -0.246 NA
ATOM     11  C   UNL A   1      34.002 -34.547 -29.492  0.00  0.00    +0.073 A 
ATOM     12  C   UNL A   1      33.103 -33.493 -29.522  0.00  0.00    -0.022 A 
ATOM     13  C   UNL A   1      33.401 -32.305 -30.182  0.00  0.00    +0.020 A 
ATOM     14 BR   UNL A   1      32.146 -30.893 -30.197  0.00  0.00    -0.050 Br
ATOM     15  C   UNL A   1      34.617 -32.155 -30.829  0.00  0.00    -0.047 A 
ATOM     16  C   UNL A   1      35.534 -33.206 -30.809  0.00  0.00    -0.051 A 
ATOM     17  C   UNL A   1      35.251 -34.426 -30.143  0.00  0.00    +0.008 A 
ATOM     18  C   UNL A   1      36.145 -35.545 -30.082  0.00  0.00    -0.003 A 
ATOM     19  C   UNL A   1      37.425 -35.578 -30.680  0.00  0.00    -0.035 A 
ATOM     20  C   UNL A   1      38.219 -36.709 -30.567  0.00  0.00    +0.029 A 
ATOM     21  N   UNL A   1      37.842 -37.814 -29.905  0.00  0.00    -0.251 NA
ATOM     22  C   UNL A   1      36.615 -37.798 -29.326  0.00  0.00    +0.121 A 
ATOM     23  C   UNL A   1      35.739 -36.702 -29.384  0.00  0.00    +0.038 A 
ATOM     24  C   UNL A   1      36.239 -39.053 -28.599  0.00  0.00    +0.214 C 
ATOM     25  O   UNL A   1      36.987 -40.022 -28.534  0.00  0.00    -0.285 OA
ENDROOT
TORSDOF 0
ENDMDL
MODEL 17
REMARK VINA RESULT:    -7.219     16.765     18.582
REMARK INTER + INTRA:          -7.219
REMARK INTER:                  -7.219
REMARK INTRA:                   0.000
REMARK UNBOUND:                 0.000
REMARK  Name = cpd249.pdb
REMARK  1 active torsions:
REMARK  status: ('A' for Active; 'I' for Inactive)
REMARK    1  A    between atoms: C_1  and  N_2
REMARK                            x       y       z     vdW  Elec       q    Type
REMARK                         _______ _______ _______ _____ _____    ______ ____
ROOT
ATOM      1  C   UNL A   1      47.564 -18.145 -35.358  0.00  0.00    +0.015 C 
ATOM      2  N   UNL A   1      46.206 -18.462 -34.952  0.00  0.00    -0.318 N 
ATOM      3  C   UNL A   1      45.419 -17.493 -34.354  0.00  0.00    +0.019 A 
ATOM      4  C   UNL A   1      44.162 -17.762 -33.970  0.00  0.00    +0.049 A 
ATOM      5  C   UNL A   1      43.595 -19.081 -34.175  0.00  0.00    +0.018 A 
ATOM      6  C   UNL A   1      44.349 -20.033 -34.756  0.00  0.00    +0.013 A 
ATOM      7  C   UNL A   1      45.744 -19.754 -35.188  0.00  0.00    +0.252 A 
ATOM      8  O   UNL A   1      46.404 -20.645 -35.714  0.00  0.00    -0.268 OA
ATOM      9  C   UNL A   1      42.208 -19.364 -33.748  0.00  0.00    +0.082 A 
ATOM     10  N   UNL A   1      41.734 -20.609 -33.964  0.00  0.00    -0.246 NA
ATOM     11  C   UNL A   1      40.484 -20.904 -33.591  0.00  0.00    +0.073 A 
ATOM     12  C   UNL A   1      40.036 -22.194 -33.831  0.00  0.00    -0.022 A 
ATOM     13  C   UNL A   1      38.750 -22.592 -33.478  0.00  0.00    +0.020 A 
ATOM     14 BR   UNL A   1      38.182 -24.360 -33.824  0.00  0.00    -0.050 Br
ATOM     15  C   UNL A   1      37.886 -21.695 -32.873  0.00  0.00    -0.047 A 
ATOM     16  C   UNL A   1      38.320 -20.392 -32.624  0.00  0.00    -0.051 A 
ATOM     17  C   UNL A   1      39.626 -19.964 -32.975  0.00  0.00    +0.008 A 
ATOM     18  C   UNL A   1      40.138 -18.644 -32.749  0.00  0.00    -0.003 A 
ATOM     19  C   UNL A   1      39.406 -17.597 -32.147  0.00  0.00    -0.035 A 
ATOM     20  C   UNL A   1      39.987 -16.351 -31.970  0.00  0.00    +0.029 A 
ATOM     21  N   UNL A   1      41.242 -16.061 -32.346  0.00  0.00    -0.251 NA
ATOM     22  C   UNL A   1      41.958 -17.057 -32.927  0.00  0.00    +0.121 A 
ATOM     23  C   UNL A   1      41.459 -18.350 -33.149  0.00  0.00    +0.038 A 
ATOM     24  C   UNL A   1      43.353 -16.685 -33.329  0.00  0.00    +0.214 C 
ATOM     25  O   UNL A   1      43.811 -15.562 -33.146  0.00  0.00    -0.285 OA
ENDROOT
TORSDOF 0
ENDMDL
MODEL 18
REMARK VINA RESULT:    -7.199      2.613      5.662
REMARK INTER + INTRA:          -7.199
REMARK INTER:                  -7.199
REMARK INTRA:                   0.000
REMARK UNBOUND:                 0.000
REMARK  Name = cpd249.pdb
REMARK  1 active torsions:
REMARK  status: ('A' for Active; 'I' for Inactive)
REMARK    1  A    between atoms: C_1  and  N_2
REMARK                            x       y       z     vdW  Elec       q    Type
REMARK                         _______ _______ _______ _____ _____    ______ ____
ROOT
ATOM      1  C   UNL A   1      33.251 -39.014 -23.811  0.00  0.00    +0.015 C 
ATOM      2  N   UNL A   1      33.230 -38.006 -24.856  0.00  0.00    -0.318 N 
ATOM      3  C   UNL A   1      34.246 -37.961 -25.795  0.00  0.00    +0.019 A 
ATOM      4  C   UNL A   1      34.248 -37.039 -26.769  0.00  0.00    +0.049 A 
ATOM      5  C   UNL A   1      33.179 -36.063 -26.863  0.00  0.00    +0.018 A 
ATOM      6  C   UNL A   1      32.184 -36.096 -25.957  0.00  0.00    +0.013 A 
ATOM      7  C   UNL A   1      32.165 -37.110 -24.870  0.00  0.00    +0.252 A 
ATOM      8  O   UNL A   1      31.242 -37.111 -24.060  0.00  0.00    -0.268 OA
ATOM      9  C   UNL A   1      33.192 -35.053 -27.942  0.00  0.00    +0.082 A 
ATOM     10  N   UNL A   1      32.171 -34.170 -27.979  0.00  0.00    -0.246 NA
ATOM     11  C   UNL A   1      32.148 -33.241 -28.941  0.00  0.00    +0.073 A 
ATOM     12  C   UNL A   1      31.082 -32.354 -28.943  0.00  0.00    -0.022 A 
ATOM     13  C   UNL A   1      30.974 -31.354 -29.904  0.00  0.00    +0.020 A 
ATOM     14 BR   UNL A   1      29.504 -30.168 -29.869  0.00  0.00    -0.050 Br
ATOM     15  C   UNL A   1      31.941 -31.226 -30.887  0.00  0.00    -0.047 A 
ATOM     16  C   UNL A   1      33.021 -32.110 -30.900  0.00  0.00    -0.051 A 
ATOM     17  C   UNL A   1      33.152 -33.137 -29.930  0.00  0.00    +0.008 A 
ATOM     18  C   UNL A   1      34.233 -34.078 -29.883  0.00  0.00    -0.003 A 
ATOM     19  C   UNL A   1      35.308 -34.104 -30.798  0.00  0.00    -0.035 A 
ATOM     20  C   UNL A   1      36.309 -35.054 -30.672  0.00  0.00    +0.029 A 
ATOM     21  N   UNL A   1      36.328 -35.985 -29.705  0.00  0.00    -0.251 NA
ATOM     22  C   UNL A   1      35.301 -35.973 -28.818  0.00  0.00    +0.121 A 
ATOM     23  C   UNL A   1      34.242 -35.052 -28.863  0.00  0.00    +0.038 A 
ATOM     24  C   UNL A   1      35.365 -37.029 -27.758  0.00  0.00    +0.214 C 
ATOM     25  O   UNL A   1      36.279 -37.845 -27.699  0.00  0.00    -0.285 OA
ENDROOT
TORSDOF 0
ENDMDL
MODEL 19
REMARK VINA RESULT:    -7.191     16.765     18.747
REMARK INTER + INTRA:          -7.191
REMARK INTER:                  -7.191
REMARK INTRA:                   0.000
REMARK UNBOUND:                 0.000
REMARK  Name = cpd249.pdb
REMARK  1 active torsions:
REMARK  status: ('A' for Active; 'I' for Inactive)
REMARK    1  A    between atoms: C_1  and  N_2
REMARK                            x       y       z     vdW  Elec       q    Type
REMARK                         _______ _______ _______ _____ _____    ______ ____
ROOT
ATOM      1  C   UNL A   1      45.110 -21.239 -42.753  0.00  0.00    +0.015 C 
ATOM      2  N   UNL A   1      44.631 -21.072 -41.393  0.00  0.00    -0.318 N 
ATOM      3  C   UNL A   1      43.490 -21.736 -40.975  0.00  0.00    +0.019 A 
ATOM      4  C   UNL A   1      43.028 -21.597 -39.723  0.00  0.00    +0.049 A 
ATOM      5  C   UNL A   1      43.717 -20.743 -38.773  0.00  0.00    +0.018 A 
ATOM      6  C   UNL A   1      44.827 -20.092 -39.167  0.00  0.00    +0.013 A 
ATOM      7  C   UNL A   1      45.354 -20.233 -40.550  0.00  0.00    +0.252 A 
ATOM      8  O   UNL A   1      46.369 -19.624 -40.875  0.00  0.00    -0.268 OA
ATOM      9  C   UNL A   1      43.197 -20.599 -37.397  0.00  0.00    +0.082 A 
ATOM     10  N   UNL A   1      43.880 -19.792 -36.557  0.00  0.00    -0.246 NA
ATOM     11  C   UNL A   1      43.441 -19.636 -35.303  0.00  0.00    +0.073 A 
ATOM     12  C   UNL A   1      44.170 -18.798 -34.473  0.00  0.00    -0.022 A 
ATOM     13  C   UNL A   1      43.790 -18.575 -33.154  0.00  0.00    +0.020 A 
ATOM     14 BR   UNL A   1      44.814 -17.425 -32.059  0.00  0.00    -0.050 Br
ATOM     15  C   UNL A   1      42.662 -19.194 -32.641  0.00  0.00    -0.047 A 
ATOM     16  C   UNL A   1      41.916 -20.041 -33.461  0.00  0.00    -0.051 A 
ATOM     17  C   UNL A   1      42.285 -20.283 -34.810  0.00  0.00    +0.008 A 
ATOM     18  C   UNL A   1      41.566 -21.138 -35.708  0.00  0.00    -0.003 A 
ATOM     19  C   UNL A   1      40.397 -21.852 -35.366  0.00  0.00    -0.035 A 
ATOM     20  C   UNL A   1      39.770 -22.657 -36.305  0.00  0.00    +0.029 A 
ATOM     21  N   UNL A   1      40.215 -22.810 -37.562  0.00  0.00    -0.251 NA
ATOM     22  C   UNL A   1      41.338 -22.130 -37.906  0.00  0.00    +0.121 A 
ATOM     23  C   UNL A   1      42.043 -21.292 -37.027  0.00  0.00    +0.038 A 
ATOM     24  C   UNL A   1      41.796 -22.332 -39.318  0.00  0.00    +0.214 C 
ATOM     25  O   UNL A   1      41.197 -23.059 -40.104  0.00  0.00    -0.285 OA
ENDROOT
TORSDOF 0
ENDMDL
MODEL 20
REMARK VINA RESULT:    -7.122     34.200     36.713
REMARK INTER + INTRA:          -7.122
REMARK INTER:                  -7.122
REMARK INTRA:                   0.000
REMARK UNBOUND:                 0.000
REMARK  Name = cpd249.pdb
REMARK  1 active torsions:
REMARK  status: ('A' for Active; 'I' for Inactive)
REMARK    1  A    between atoms: C_1  and  N_2
REMARK                            x       y       z     vdW  Elec       q    Type
REMARK                         _______ _______ _______ _____ _____    ______ ____
ROOT
ATOM      1  C   UNL A   1      67.924 -12.675 -23.271  0.00  0.00    +0.015 C 
ATOM      2  N   UNL A   1      67.209 -13.005 -24.491  0.00  0.00    -0.318 N 
ATOM      3  C   UNL A   1      67.847 -13.708 -25.498  0.00  0.00    +0.019 A 
ATOM      4  C   UNL A   1      67.207 -14.023 -26.634  0.00  0.00    +0.049 A 
ATOM      5  C   UNL A   1      65.825 -13.632 -26.835  0.00  0.00    +0.018 A 
ATOM      6  C   UNL A   1      65.192 -12.948 -25.864  0.00  0.00    +0.013 A 
ATOM      7  C   UNL A   1      65.885 -12.589 -24.598  0.00  0.00    +0.252 A 
ATOM      8  O   UNL A   1      65.278 -11.965 -23.733  0.00  0.00    -0.268 OA
ATOM      9  C   UNL A   1      65.131 -13.986 -28.092  0.00  0.00    +0.082 A 
ATOM     10  N   UNL A   1      63.845 -13.596 -28.222  0.00  0.00    -0.246 NA
ATOM     11  C   UNL A   1      63.184 -13.897 -29.345  0.00  0.00    +0.073 A 
ATOM     12  C   UNL A   1      61.866 -13.478 -29.439  0.00  0.00    -0.022 A 
ATOM     13  C   UNL A   1      61.099 -13.746 -30.569  0.00  0.00    +0.020 A 
ATOM     14 BR   UNL A   1      59.306 -13.156 -30.654  0.00  0.00    -0.050 Br
ATOM     15  C   UNL A   1      61.647 -14.444 -31.632  0.00  0.00    -0.047 A 
ATOM     16  C   UNL A   1      62.973 -14.874 -31.555  0.00  0.00    -0.051 A 
ATOM     17  C   UNL A   1      63.773 -14.612 -30.413  0.00  0.00    +0.008 A 
ATOM     18  C   UNL A   1      65.139 -15.023 -30.266  0.00  0.00    -0.003 A 
ATOM     19  C   UNL A   1      65.865 -15.742 -31.241  0.00  0.00    -0.035 A 
ATOM     20  C   UNL A   1      67.185 -16.095 -31.008  0.00  0.00    +0.029 A 
ATOM     21  N   UNL A   1      67.844 -15.790 -29.880  0.00  0.00    -0.251 NA
ATOM     22  C   UNL A   1      67.160 -15.099 -28.933  0.00  0.00    +0.121 A 
ATOM     23  C   UNL A   1      65.822 -14.696 -29.075  0.00  0.00    +0.038 A 
ATOM     24  C   UNL A   1      67.936 -14.782 -27.692  0.00  0.00    +0.214 C 
ATOM     25  O   UNL A   1      69.105 -15.123 -27.544  0.00  0.00    -0.285 OA
ENDROOT
TORSDOF 0
ENDMDL
