@<TRIPOS>MOLECULE
*****
 25 29 0 0 0
SMALL
GASTEIGER

@<TRIPOS>ATOM
      1 C          -1.7153   -2.8745    0.0000 C.3     1  UNL1        0.1336
      2 N          -0.8685   -2.4013    0.0000 N.ar    1  UNL1       -0.2921
      3 C          -0.8550   -1.4365    0.0000 C.ar    1  UNL1        0.0816
      4 C          -0.0127   -0.9658    0.0000 C.ar    1  UNL1        0.0593
      5 C           0.8161   -1.4599    0.0000 C.ar    1  UNL1        0.0270
      6 C           0.8026   -2.4246    0.0000 C.ar    1  UNL1        0.0624
      7 C          -0.0397   -2.8954    0.0000 C.ar    1  UNL1        0.2611
      8 O          -0.0533   -3.8653    0.0000 O.2     1  UNL1       -0.2670
      9 C           1.6691   -0.9880    0.0000 C.ar    1  UNL1        0.0831
     10 N           2.5037   -1.4821    0.0000 N.ar    1  UNL1       -0.2453
     11 C           3.3449   -1.0101    0.0000 C.ar    1  UNL1        0.0817
     12 C           4.1749   -1.5040    0.0000 C.ar    1  UNL1        0.0258
     13 C           5.0177   -1.0322    0.0000 C.ar    1  UNL1        0.0361
     14 BR          5.8513   -1.5282    0.0000 Br      1  UNL1       -0.0489
     15 C           5.0304   -0.0664    0.0000 C.ar    1  UNL1        0.0068
     16 C           4.2004    0.4275    0.0000 C.ar    1  UNL1        0.0020
     17 C           3.3576   -0.0443    0.0000 C.ar    1  UNL1        0.0178
     18 C           2.5293    0.4610    0.0000 C.ar    1  UNL1        0.0060
     19 C           2.5422    1.4325    0.0000 C.ar    1  UNL1        0.0208
     20 C           1.6960    1.9210    0.0000 C.ar    1  UNL1        0.0989
     21 N           0.8545    1.4548    0.0000 N.ar    1  UNL1       -0.2406
     22 C           0.8417    0.4832    0.0000 C.ar    1  UNL1        0.1216
     23 C           1.6819   -0.0222    0.0000 C.ar    1  UNL1        0.0385
     24 C           0.0000   -0.0000    0.0000 C.2     1  UNL1        0.2146
     25 O          -0.8348    0.4907    0.0000 O.2     1  UNL1       -0.2849
@<TRIPOS>BOND
     1     1     2    1
     2     2     3   ar
     3     3     4   ar
     4     4     5   ar
     5     5     6   ar
     6     6     7   ar
     7     2     7   ar
     8     7     8    2
     9     5     9    1
    10     9    10   ar
    11    10    11   ar
    12    11    12   ar
    13    12    13   ar
    14    13    14    1
    15    13    15   ar
    16    15    16   ar
    17    16    17   ar
    18    11    17   ar
    19    17    18   ar
    20    18    19   ar
    21    19    20   ar
    22    20    21   ar
    23    21    22   ar
    24    22    23   ar
    25     9    23   ar
    26    18    23   ar
    27    22    24    1
    28     4    24    1
    29    24    25    2
