REMARK  Name = cpd40.pdb
REMARK  20 active torsions:
REMARK  status: ('A' for Active; 'I' for Inactive)
REMARK    1  A    between atoms: C_1  and  C_2
REMARK    2  A    between atoms: C_6  and  N_7
REMARK    3  A    between atoms: N_7  and  C_8
REMARK    4  A    between atoms: C_13  and  C_14
REMARK    5  A    between atoms: N_16  and  C_17
REMARK    6  A    between atoms: C_17  and  C_18
REMARK    7  A    between atoms: C_18  and  C_19
REMARK    8  A    between atoms: C_19  and  C_20
REMARK    9  A    between atoms: C_20  and  C_21
REMARK   10  A    between atoms: C_21  and  C_22
REMARK   11  A    between atoms: N_24  and  C_25
REMARK   12  A    between atoms: C_25  and  C_26
REMARK   13  A    between atoms: C_26  and  C_27
REMARK   14  A    between atoms: C_27  and  C_28
REMARK   15  A    between atoms: C_28  and  C_29
REMARK   16  A    between atoms: C_29  and  C_30
REMARK   17  A    between atoms: C_30  and  C_31
REMARK   18  A    between atoms: C_31  and  N_32
REMARK   19  A    between atoms: N_32  and  C_33
REMARK   20  A    between atoms: C_47  and  C_48
REMARK                            x       y       z     vdW  Elec       q    Type
REMARK                         _______ _______ _______ _____ _____    ______ ____
ROOT
ATOM      1  C   UNL A   1      -3.444  -6.451   0.953  0.00  0.00    +0.213 C 
ATOM      2  O   UNL A   1      -3.661  -6.709  -0.227  0.00  0.00    -0.276 OA
ATOM      3  N   UNL A   1      -4.011  -7.140   2.000  0.00  0.00    -0.315 N 
ATOM      4  H   UNL A   1      -3.753  -6.904   2.920  0.00  0.00    +0.000 HD
ENDROOT
BRANCH   1   5
ATOM      5  C   UNL A   1      -2.526  -5.322   1.377  0.00  0.00    +0.024 C 
BRANCH   5   6
ATOM      6  C   UNL A   1      -3.251  -4.204   2.122  0.00  0.00    -0.045 C 
BRANCH   6   7
ATOM      7  C   UNL A   1      -4.365  -3.499   1.337  0.00  0.00    -0.051 C 
BRANCH   7   8
ATOM      8  C   UNL A   1      -3.872  -2.657   0.157  0.00  0.00    -0.037 C 
BRANCH   8   9
ATOM      9  C   UNL A   1      -3.994  -3.367  -1.193  0.00  0.00    +0.012 C 
BRANCH   9  12
ATOM     10  C   UNL A   1      -2.247  -2.178  -2.578  0.00  0.00    +0.246 C 
ATOM     11  O   UNL A   1      -1.990  -1.126  -3.158  0.00  0.00    -0.270 OA
ATOM     12  N   UNL A   1      -3.548  -2.505  -2.278  0.00  0.00    -0.311 N 
ATOM     13  H   UNL A   1      -4.247  -2.118  -2.853  0.00  0.00    +0.000 HD
BRANCH  10  19
ATOM     14  C   UNL A   1      -0.048  -2.540  -1.440  0.00  0.00    +0.044 A 
ATOM     15  C   UNL A   1       0.936  -3.440  -1.000  0.00  0.00    -0.040 A 
ATOM     16  C   UNL A   1       0.890  -4.794  -1.351  0.00  0.00    -0.060 A 
ATOM     17  C   UNL A   1      -0.157  -5.281  -2.129  0.00  0.00    -0.061 A 
ATOM     18  C   UNL A   1      -1.175  -4.420  -2.534  0.00  0.00    -0.048 A 
ATOM     19  C   UNL A   1      -1.141  -3.069  -2.158  0.00  0.00    +0.058 A 
BRANCH  14  20
ATOM     20  N   UNL A   1      -0.033  -1.178  -1.026  0.00  0.00    -0.314 N 
ATOM     21  H   UNL A   1      -0.907  -0.729  -0.962  0.00  0.00    +0.000 HD
BRANCH  20  27
ATOM     22  C   UNL A   1       2.053   2.515   1.623  0.00  0.00    -0.039 C 
ATOM     23  C   UNL A   1       2.100   1.456   0.555  0.00  0.00    -0.046 A 
ATOM     24  C   UNL A   1       3.261   1.337  -0.225  0.00  0.00    -0.058 A 
ATOM     25  C   UNL A   1       3.340   0.392  -1.243  0.00  0.00    -0.060 A 
ATOM     26  C   UNL A   1       2.262  -0.454  -1.489  0.00  0.00    -0.040 A 
ATOM     27  C   UNL A   1       1.108  -0.396  -0.695  0.00  0.00    +0.035 A 
ATOM     28  C   UNL A   1       1.015   0.576   0.328  0.00  0.00    -0.026 A 
ATOM     29  C   UNL A   1      -0.256   0.697   1.134  0.00  0.00    -0.038 C 
ENDBRANCH  20  27
ENDBRANCH  14  20
ENDBRANCH  10  19
ENDBRANCH   9  12
ENDBRANCH   8   9
ENDBRANCH   7   8
ENDBRANCH   6   7
ENDBRANCH   5   6
ENDBRANCH   1   5
BRANCH   3  30
ATOM     30  C   UNL A   1      -4.974  -8.201   1.793  0.00  0.00    +0.012 C 
BRANCH  30  31
ATOM     31  C   UNL A   1      -6.355  -7.647   1.441  0.00  0.00    -0.037 C 
BRANCH  31  32
ATOM     32  C   UNL A   1      -7.407  -8.757   1.406  0.00  0.00    -0.052 C 
BRANCH  32  33
ATOM     33  C   UNL A   1      -8.792  -8.247   0.992  0.00  0.00    -0.053 C 
BRANCH  33  34
ATOM     34  C   UNL A   1      -8.913  -8.037  -0.520  0.00  0.00    -0.052 C 
BRANCH  34  35
ATOM     35  C   UNL A   1     -10.231  -7.385  -0.949  0.00  0.00    -0.037 C 
BRANCH  35  36
ATOM     36  C   UNL A   1     -11.476  -8.156  -0.508  0.00  0.00    +0.009 C 
BRANCH  36  37
ATOM     37  N   UNL A   1     -12.652  -7.573  -1.170  0.00  0.00    -0.343 N 
ATOM     38  H   UNL A   1     -12.606  -6.996  -1.966  0.00  0.00    +0.000 HD
BRANCH  37  39
ATOM     39  C   UNL A   1     -13.868  -7.942  -0.522  0.00  0.00    +0.041 A 
ATOM     40  C   UNL A   1     -14.561  -9.114  -0.887  0.00  0.00    -0.005 A 
ATOM     41  C   UNL A   1     -15.670  -9.472  -0.114  0.00  0.00    +0.047 A 
ATOM     42  N   UNL A   1     -16.117  -8.740   0.935  0.00  0.00    -0.251 NA
ATOM     43  C   UNL A   1     -15.464  -7.620   1.271  0.00  0.00    +0.073 A 
ATOM     44  C   UNL A   1     -15.935  -6.879   2.348  0.00  0.00    -0.036 A 
ATOM     45  C   UNL A   1     -15.314  -5.699   2.762  0.00  0.00    -0.060 A 
ATOM     46  C   UNL A   1     -14.194  -5.240   2.086  0.00  0.00    -0.061 A 
ATOM     47  C   UNL A   1     -13.704  -5.968   1.003  0.00  0.00    -0.051 A 
ATOM     48  C   UNL A   1     -14.324  -7.169   0.581  0.00  0.00    +0.021 A 
ATOM     49  C   UNL A   1     -16.494 -10.696  -0.423  0.00  0.00    -0.010 C 
ATOM     50  C   UNL A   1     -15.751 -11.724  -1.268  0.00  0.00    -0.047 C 
ATOM     51  C   UNL A   1     -15.122 -11.037  -2.470  0.00  0.00    -0.049 C 
ATOM     52  C   UNL A   1     -14.095 -10.000  -2.018  0.00  0.00    -0.024 C 
ENDBRANCH  37  39
ENDBRANCH  36  37
ENDBRANCH  35  36
ENDBRANCH  34  35
ENDBRANCH  33  34
ENDBRANCH  32  33
ENDBRANCH  31  32
ENDBRANCH  30  31
ENDBRANCH   3  30
TORSDOF 18
