@<TRIPOS>MOLECULE
*****
 48 52 0 0 0
SMALL
GASTEIGER

@<TRIPOS>ATOM
      1 C           0.8660    1.5000    0.0000 C.3     1  UNL1        0.0307
      2 C           0.8660    0.5000    0.0000 C.ar    1  UNL1       -0.0245
      3 C           1.7321   -0.0000    0.0000 C.ar    1  UNL1       -0.0045
      4 C           1.7321   -1.0000    0.0000 C.ar    1  UNL1        0.0010
      5 C           0.8660   -1.5000    0.0000 C.ar    1  UNL1        0.0162
      6 C          -0.0000   -1.0000    0.0000 C.ar    1  UNL1        0.0662
      7 N          -0.8660   -1.5000    0.0000 N.pl3   1  UNL1       -0.2127
      8 C          -0.8660   -2.5000    0.0000 C.ar    1  UNL1        0.0749
      9 C          -0.0000   -3.0000    0.0000 C.ar    1  UNL1        0.0167
     10 C          -0.0000   -4.0000    0.0000 C.ar    1  UNL1        0.0013
     11 C          -0.8660   -4.5000    0.0000 C.ar    1  UNL1        0.0002
     12 C          -1.7321   -4.0000    0.0000 C.ar    1  UNL1        0.0059
     13 C          -1.7321   -3.0000    0.0000 C.ar    1  UNL1        0.0702
     14 C          -2.5981   -2.5000    0.0000 C.2     1  UNL1        0.2660
     15 O          -2.5981   -1.5000    0.0000 O.2     1  UNL1       -0.2683
     16 N          -3.4641   -3.0000    0.0000 N.am    1  UNL1       -0.2016
     17 C          -3.4641   -4.0000    0.0000 C.3     1  UNL1        0.1155
     18 C          -2.5981   -4.5000    0.0000 C.3     1  UNL1        0.0235
     19 C          -2.5981   -5.5000    0.0000 C.3     1  UNL1        0.0023
     20 C          -3.4641   -6.0000    0.0000 C.3     1  UNL1        0.0097
     21 C          -4.3301   -5.5000    0.0000 C.3     1  UNL1        0.0868
     22 C          -5.1962   -6.0000    0.0000 C.2     1  UNL1        0.2414
     23 O          -6.0622   -5.5000    0.0000 O.2     1  UNL1       -0.2733
     24 N          -5.1962   -7.0000    0.0000 N.am    1  UNL1       -0.2054
     25 C          -6.0622   -7.5000    0.0000 C.3     1  UNL1        0.1151
     26 C          -6.9282   -7.0000    0.0000 C.3     1  UNL1        0.0234
     27 C          -7.7942   -7.5000    0.0000 C.3     1  UNL1        0.0018
     28 C          -8.6603   -7.0000    0.0000 C.3     1  UNL1        0.0001
     29 C          -9.5263   -7.5000    0.0000 C.3     1  UNL1        0.0018
     30 C         -10.3923   -7.0000    0.0000 C.3     1  UNL1        0.0233
     31 C         -11.2583   -7.5000    0.0000 C.3     1  UNL1        0.1122
     32 N         -12.1244   -7.0000    0.0000 N.pl3   1  UNL1       -0.2378
     33 C         -12.9904   -7.5000    0.0000 C.ar    1  UNL1        0.0638
     34 C         -12.9904   -8.5000    0.0000 C.ar    1  UNL1        0.0062
     35 C         -13.8564   -9.0000    0.0000 C.ar    1  UNL1        0.0562
     36 N         -14.7224   -8.5000    0.0000 N.ar    1  UNL1       -0.2499
     37 C         -14.7224   -7.5000    0.0000 C.ar    1  UNL1        0.0821
     38 C         -15.5885   -7.0000    0.0000 C.ar    1  UNL1        0.0191
     39 C         -15.5885   -6.0000    0.0000 C.ar    1  UNL1        0.0015
     40 C         -14.7224   -5.5000    0.0000 C.ar    1  UNL1        0.0001
     41 C         -13.8564   -6.0000    0.0000 C.ar    1  UNL1        0.0028
     42 C         -13.8564   -7.0000    0.0000 C.ar    1  UNL1        0.0322
     43 C         -13.8564  -10.0000    0.0000 C.3     1  UNL1        0.0455
     44 C         -12.9904  -10.5000    0.0000 C.3     1  UNL1        0.0066
     45 C         -12.1244  -10.0000    0.0000 C.3     1  UNL1        0.0052
     46 C         -12.1244   -9.0000    0.0000 C.3     1  UNL1        0.0289
     47 C           0.0000   -0.0000    0.0000 C.ar    1  UNL1       -0.0105
     48 C          -0.8660    0.5000    0.0000 C.3     1  UNL1        0.0321
@<TRIPOS>BOND
     1     1     2    1
     2     2     3   ar
     3     3     4   ar
     4     4     5   ar
     5     5     6   ar
     6     6     7    1
     7     7     8    1
     8     8     9   ar
     9     9    10   ar
    10    10    11   ar
    11    11    12   ar
    12    12    13   ar
    13     8    13   ar
    14    13    14    1
    15    14    15    2
    16    14    16   am
    17    16    17    1
    18    17    18    1
    19    18    19    1
    20    19    20    1
    21    20    21    1
    22    21    22    1
    23    22    23    2
    24    22    24   am
    25    24    25    1
    26    25    26    1
    27    26    27    1
    28    27    28    1
    29    28    29    1
    30    29    30    1
    31    30    31    1
    32    31    32    1
    33    32    33    1
    34    33    34   ar
    35    34    35   ar
    36    35    36   ar
    37    36    37   ar
    38    37    38   ar
    39    38    39   ar
    40    39    40   ar
    41    40    41   ar
    42    41    42   ar
    43    33    42   ar
    44    37    42   ar
    45    35    43    1
    46    43    44    1
    47    44    45    1
    48    45    46    1
    49    34    46    1
    50     6    47   ar
    51     2    47   ar
    52    47    48    1
