MODEL 1
REMARK VINA RESULT:    -4.554      0.000      0.000
REMARK INTER + INTRA:          -3.802
REMARK INTER:                  -5.353
REMARK INTRA:                   1.550
REMARK UNBOUND:                 1.550
REMARK  Name = cpd226.pdb
REMARK  8 active torsions:
REMARK  status: ('A' for Active; 'I' for Inactive)
REMARK    1  A    between atoms: C_1  and  N_2
REMARK    2  A    between atoms: N_2  and  C_3
REMARK    3  A    between atoms: N_2  and  C_4
REMARK    4  A    between atoms: N_2  and  C_5
REMARK    5  A    between atoms: C_5  and  C_6
REMARK    6  A    between atoms: C_6  and  C_7
REMARK    7  A    between atoms: C_7  and  C_8
REMARK    8  A    between atoms: C_8  and  C_9
REMARK                            x       y       z     vdW  Elec       q    Type
REMARK                         _______ _______ _______ _____ _____    ______ ____
ROOT
ATOM      1  C   UNL     1      41.354 -36.365 -31.691  0.00  0.00    -0.089 C 
ENDROOT
BRANCH   1   3
ATOM      2  C   UNL     1      40.682 -35.797 -32.798  0.00  0.00    -0.101 C 
ATOM      3  N   UNL     1      40.429 -36.025 -31.858  0.00  0.00    +0.374 N 
ATOM      4  C   UNL     1      39.503 -35.684 -32.025  0.00  0.00    -0.101 C 
ATOM      5  C   UNL     1      40.175 -36.252 -30.918  0.00  0.00    -0.101 C 
ENDBRANCH   1   3
BRANCH   1   6
ATOM      6  C   UNL     1      42.285 -37.851 -31.938  0.00  0.00    -0.068 C 
BRANCH   6   7
ATOM      7  C   UNL     1      43.295 -38.065 -30.792  0.00  0.00    -0.054 C 
BRANCH   7   8
ATOM      8  C   UNL     1      43.020 -39.380 -30.058  0.00  0.00    -0.043 C 
BRANCH   8   9
ATOM      9  C   UNL     1      44.220 -40.313 -30.121  0.00  0.00    +0.003 C 
ATOM     10 BR   UNL     1      45.705 -39.528 -29.140  0.00  0.00    -0.092 Br
ENDBRANCH   8   9
ENDBRANCH   7   8
ENDBRANCH   6   7
ENDBRANCH   1   6
TORSDOF 5
ENDMDL
MODEL 2
REMARK VINA RESULT:    -4.526      1.723      2.517
REMARK INTER + INTRA:          -3.769
REMARK INTER:                  -5.374
REMARK INTRA:                   1.605
REMARK UNBOUND:                 1.550
REMARK  Name = cpd226.pdb
REMARK  8 active torsions:
REMARK  status: ('A' for Active; 'I' for Inactive)
REMARK    1  A    between atoms: C_1  and  N_2
REMARK    2  A    between atoms: N_2  and  C_3
REMARK    3  A    between atoms: N_2  and  C_4
REMARK    4  A    between atoms: N_2  and  C_5
REMARK    5  A    between atoms: C_5  and  C_6
REMARK    6  A    between atoms: C_6  and  C_7
REMARK    7  A    between atoms: C_7  and  C_8
REMARK    8  A    between atoms: C_8  and  C_9
REMARK                            x       y       z     vdW  Elec       q    Type
REMARK                         _______ _______ _______ _____ _____    ______ ____
ROOT
ATOM      1  C   UNL     1      38.980 -36.938 -30.930  0.00  0.00    -0.089 C 
ENDROOT
BRANCH   1   3
ATOM      2  C   UNL     1      38.138 -36.887 -29.795  0.00  0.00    -0.101 C 
ATOM      3  N   UNL     1      38.146 -36.441 -30.690  0.00  0.00    +0.374 N 
ATOM      4  C   UNL     1      37.312 -35.944 -30.450  0.00  0.00    -0.101 C 
ATOM      5  C   UNL     1      38.155 -35.996 -31.585  0.00  0.00    -0.101 C 
ENDBRANCH   1   3
BRANCH   1   6
ATOM      6  C   UNL     1      40.677 -37.002 -30.427  0.00  0.00    -0.068 C 
BRANCH   6   7
ATOM      7  C   UNL     1      41.609 -37.127 -31.649  0.00  0.00    -0.054 C 
BRANCH   7   8
ATOM      8  C   UNL     1      42.876 -37.908 -31.294  0.00  0.00    -0.043 C 
BRANCH   8   9
ATOM      9  C   UNL     1      42.598 -38.966 -30.237  0.00  0.00    +0.003 C 
ATOM     10 BR   UNL     1      44.193 -40.044 -29.962  0.00  0.00    -0.092 Br
ENDBRANCH   8   9
ENDBRANCH   7   8
ENDBRANCH   6   7
ENDBRANCH   1   6
TORSDOF 5
ENDMDL
MODEL 3
REMARK VINA RESULT:    -4.371     19.114     19.659
REMARK INTER + INTRA:          -3.587
REMARK INTER:                  -5.007
REMARK INTRA:                   1.419
REMARK UNBOUND:                 1.550
REMARK  Name = cpd226.pdb
REMARK  8 active torsions:
REMARK  status: ('A' for Active; 'I' for Inactive)
REMARK    1  A    between atoms: C_1  and  N_2
REMARK    2  A    between atoms: N_2  and  C_3
REMARK    3  A    between atoms: N_2  and  C_4
REMARK    4  A    between atoms: N_2  and  C_5
REMARK    5  A    between atoms: C_5  and  C_6
REMARK    6  A    between atoms: C_6  and  C_7
REMARK    7  A    between atoms: C_7  and  C_8
REMARK    8  A    between atoms: C_8  and  C_9
REMARK                            x       y       z     vdW  Elec       q    Type
REMARK                         _______ _______ _______ _____ _____    ______ ____
ROOT
ATOM      1  C   UNL     1      47.283 -22.223 -41.492  0.00  0.00    -0.089 C 
ENDROOT
BRANCH   1   3
ATOM      2  C   UNL     1      48.487 -22.940 -41.305  0.00  0.00    -0.101 C 
ATOM      3  N   UNL     1      47.697 -23.030 -41.911  0.00  0.00    +0.374 N 
ATOM      4  C   UNL     1      48.111 -23.838 -42.331  0.00  0.00    -0.101 C 
ATOM      5  C   UNL     1      46.907 -23.121 -42.518  0.00  0.00    -0.101 C 
ENDBRANCH   1   3
BRANCH   1   6
ATOM      6  C   UNL     1      46.495 -21.775 -39.970  0.00  0.00    -0.068 C 
BRANCH   6   7
ATOM      7  C   UNL     1      45.454 -20.659 -40.197  0.00  0.00    -0.054 C 
BRANCH   7   8
ATOM      8  C   UNL     1      44.035 -21.232 -40.221  0.00  0.00    -0.043 C 
BRANCH   8   9
ATOM      9  C   UNL     1      43.442 -21.187 -41.622  0.00  0.00    +0.003 C 
ATOM     10 BR   UNL     1      44.442 -19.923 -42.710  0.00  0.00    -0.092 Br
ENDBRANCH   8   9
ENDBRANCH   7   8
ENDBRANCH   6   7
ENDBRANCH   1   6
TORSDOF 5
ENDMDL
MODEL 4
REMARK VINA RESULT:    -4.249     33.354     34.172
REMARK INTER + INTRA:          -3.444
REMARK INTER:                  -4.888
REMARK INTRA:                   1.444
REMARK UNBOUND:                 1.550
REMARK  Name = cpd226.pdb
REMARK  8 active torsions:
REMARK  status: ('A' for Active; 'I' for Inactive)
REMARK    1  A    between atoms: C_1  and  N_2
REMARK    2  A    between atoms: N_2  and  C_3
REMARK    3  A    between atoms: N_2  and  C_4
REMARK    4  A    between atoms: N_2  and  C_5
REMARK    5  A    between atoms: C_5  and  C_6
REMARK    6  A    between atoms: C_6  and  C_7
REMARK    7  A    between atoms: C_7  and  C_8
REMARK    8  A    between atoms: C_8  and  C_9
REMARK                            x       y       z     vdW  Elec       q    Type
REMARK                         _______ _______ _______ _____ _____    ______ ____
ROOT
ATOM      1  C   UNL     1      63.733 -23.666  -8.686  0.00  0.00    -0.089 C 
ENDROOT
BRANCH   1   3
ATOM      2  C   UNL     1      63.220 -22.536  -9.365  0.00  0.00    -0.101 C 
ATOM      3  N   UNL     1      63.719 -23.358  -9.638  0.00  0.00    +0.374 N 
ATOM      4  C   UNL     1      63.706 -23.050 -10.589  0.00  0.00    -0.101 C 
ATOM      5  C   UNL     1      64.219 -24.180  -9.911  0.00  0.00    -0.101 C 
ENDBRANCH   1   3
BRANCH   1   6
ATOM      6  C   UNL     1      62.735 -24.639  -7.593  0.00  0.00    -0.068 C 
BRANCH   6   7
ATOM      7  C   UNL     1      63.152 -24.417  -6.125  0.00  0.00    -0.054 C 
BRANCH   7   8
ATOM      8  C   UNL     1      63.799 -25.676  -5.543  0.00  0.00    -0.043 C 
BRANCH   8   9
ATOM      9  C   UNL     1      64.136 -26.682  -6.634  0.00  0.00    +0.003 C 
ATOM     10 BR   UNL     1      63.273 -28.380  -6.242  0.00  0.00    -0.092 Br
ENDBRANCH   8   9
ENDBRANCH   7   8
ENDBRANCH   6   7
ENDBRANCH   1   6
TORSDOF 5
ENDMDL
MODEL 5
REMARK VINA RESULT:    -4.202     19.100     20.207
REMARK INTER + INTRA:          -3.388
REMARK INTER:                  -4.848
REMARK INTRA:                   1.459
REMARK UNBOUND:                 1.550
REMARK  Name = cpd226.pdb
REMARK  8 active torsions:
REMARK  status: ('A' for Active; 'I' for Inactive)
REMARK    1  A    between atoms: C_1  and  N_2
REMARK    2  A    between atoms: N_2  and  C_3
REMARK    3  A    between atoms: N_2  and  C_4
REMARK    4  A    between atoms: N_2  and  C_5
REMARK    5  A    between atoms: C_5  and  C_6
REMARK    6  A    between atoms: C_6  and  C_7
REMARK    7  A    between atoms: C_7  and  C_8
REMARK    8  A    between atoms: C_8  and  C_9
REMARK                            x       y       z     vdW  Elec       q    Type
REMARK                         _______ _______ _______ _____ _____    ______ ____
ROOT
ATOM      1  C   UNL     1      46.349 -22.399 -41.290  0.00  0.00    -0.089 C 
ENDROOT
BRANCH   1   3
ATOM      2  C   UNL     1      47.498 -23.152 -41.626  0.00  0.00    -0.101 C 
ATOM      3  N   UNL     1      47.320 -22.348 -41.058  0.00  0.00    +0.374 N 
ATOM      4  C   UNL     1      48.292 -22.298 -40.826  0.00  0.00    -0.101 C 
ATOM      5  C   UNL     1      47.143 -21.544 -40.491  0.00  0.00    -0.101 C 
ENDBRANCH   1   3
BRANCH   1   6
ATOM      6  C   UNL     1      45.309 -22.157 -42.703  0.00  0.00    -0.068 C 
BRANCH   6   7
ATOM      7  C   UNL     1      44.105 -21.260 -42.353  0.00  0.00    -0.054 C 
BRANCH   7   8
ATOM      8  C   UNL     1      44.251 -19.875 -42.988  0.00  0.00    -0.043 C 
BRANCH   8   9
ATOM      9  C   UNL     1      44.702 -18.841 -41.967  0.00  0.00    +0.003 C 
ATOM     10 BR   UNL     1      43.899 -19.238 -40.241  0.00  0.00    -0.092 Br
ENDBRANCH   8   9
ENDBRANCH   7   8
ENDBRANCH   6   7
ENDBRANCH   1   6
TORSDOF 5
ENDMDL
MODEL 6
REMARK VINA RESULT:    -4.167     33.428     34.441
REMARK INTER + INTRA:          -3.348
REMARK INTER:                  -4.814
REMARK INTRA:                   1.466
REMARK UNBOUND:                 1.550
REMARK  Name = cpd226.pdb
REMARK  8 active torsions:
REMARK  status: ('A' for Active; 'I' for Inactive)
REMARK    1  A    between atoms: C_1  and  N_2
REMARK    2  A    between atoms: N_2  and  C_3
REMARK    3  A    between atoms: N_2  and  C_4
REMARK    4  A    between atoms: N_2  and  C_5
REMARK    5  A    between atoms: C_5  and  C_6
REMARK    6  A    between atoms: C_6  and  C_7
REMARK    7  A    between atoms: C_7  and  C_8
REMARK    8  A    between atoms: C_8  and  C_9
REMARK                            x       y       z     vdW  Elec       q    Type
REMARK                         _______ _______ _______ _____ _____    ______ ____
ROOT
ATOM      1  C   UNL     1      63.219 -25.882  -6.274  0.00  0.00    -0.089 C 
ENDROOT
BRANCH   1   3
ATOM      2  C   UNL     1      63.884 -27.088  -5.954  0.00  0.00    -0.101 C 
ATOM      3  N   UNL     1      63.033 -26.853  -6.424  0.00  0.00    +0.374 N 
ATOM      4  C   UNL     1      62.847 -27.824  -6.574  0.00  0.00    -0.101 C 
ATOM      5  C   UNL     1      62.182 -26.617  -6.894  0.00  0.00    -0.101 C 
ENDBRANCH   1   3
BRANCH   1   6
ATOM      6  C   UNL     1      64.401 -24.664  -6.782  0.00  0.00    -0.068 C 
BRANCH   6   7
ATOM      7  C   UNL     1      63.764 -23.260  -6.814  0.00  0.00    -0.054 C 
BRANCH   7   8
ATOM      8  C   UNL     1      63.556 -22.786  -8.255  0.00  0.00    -0.043 C 
BRANCH   8   9
ATOM      9  C   UNL     1      63.976 -23.851  -9.256  0.00  0.00    +0.003 C 
ATOM     10 BR   UNL     1      62.395 -24.653 -10.054  0.00  0.00    -0.092 Br
ENDBRANCH   8   9
ENDBRANCH   7   8
ENDBRANCH   6   7
ENDBRANCH   1   6
TORSDOF 5
ENDMDL
MODEL 7
REMARK VINA RESULT:    -4.149      4.116      5.488
REMARK INTER + INTRA:          -3.326
REMARK INTER:                  -4.912
REMARK INTRA:                   1.586
REMARK UNBOUND:                 1.550
REMARK  Name = cpd226.pdb
REMARK  8 active torsions:
REMARK  status: ('A' for Active; 'I' for Inactive)
REMARK    1  A    between atoms: C_1  and  N_2
REMARK    2  A    between atoms: N_2  and  C_3
REMARK    3  A    between atoms: N_2  and  C_4
REMARK    4  A    between atoms: N_2  and  C_5
REMARK    5  A    between atoms: C_5  and  C_6
REMARK    6  A    between atoms: C_6  and  C_7
REMARK    7  A    between atoms: C_7  and  C_8
REMARK    8  A    between atoms: C_8  and  C_9
REMARK                            x       y       z     vdW  Elec       q    Type
REMARK                         _______ _______ _______ _____ _____    ______ ____
ROOT
ATOM      1  C   UNL     1      41.027 -36.976 -31.263  0.00  0.00    -0.089 C 
ENDROOT
BRANCH   1   3
ATOM      2  C   UNL     1      41.978 -35.959 -31.508  0.00  0.00    -0.101 C 
ATOM      3  N   UNL     1      42.017 -36.952 -31.397  0.00  0.00    +0.374 N 
ATOM      4  C   UNL     1      43.008 -36.928 -31.531  0.00  0.00    -0.101 C 
ATOM      5  C   UNL     1      42.057 -37.945 -31.286  0.00  0.00    -0.101 C 
ENDBRANCH   1   3
BRANCH   1   6
ATOM      6  C   UNL     1      39.873 -37.280 -29.954  0.00  0.00    -0.068 C 
BRANCH   6   7
ATOM      7  C   UNL     1      38.422 -37.193 -30.468  0.00  0.00    -0.054 C 
BRANCH   7   8
ATOM      8  C   UNL     1      37.423 -37.338 -29.317  0.00  0.00    -0.043 C 
BRANCH   8   9
ATOM      9  C   UNL     1      35.988 -37.287 -29.818  0.00  0.00    +0.003 C 
ATOM     10 BR   UNL     1      35.278 -35.493 -29.575  0.00  0.00    -0.092 Br
ENDBRANCH   8   9
ENDBRANCH   7   8
ENDBRANCH   6   7
ENDBRANCH   1   6
TORSDOF 5
ENDMDL
MODEL 8
REMARK VINA RESULT:    -4.030      3.693      4.785
REMARK INTER + INTRA:          -3.186
REMARK INTER:                  -4.756
REMARK INTRA:                   1.570
REMARK UNBOUND:                 1.550
REMARK  Name = cpd226.pdb
REMARK  8 active torsions:
REMARK  status: ('A' for Active; 'I' for Inactive)
REMARK    1  A    between atoms: C_1  and  N_2
REMARK    2  A    between atoms: N_2  and  C_3
REMARK    3  A    between atoms: N_2  and  C_4
REMARK    4  A    between atoms: N_2  and  C_5
REMARK    5  A    between atoms: C_5  and  C_6
REMARK    6  A    between atoms: C_6  and  C_7
REMARK    7  A    between atoms: C_7  and  C_8
REMARK    8  A    between atoms: C_8  and  C_9
REMARK                            x       y       z     vdW  Elec       q    Type
REMARK                         _______ _______ _______ _____ _____    ______ ____
ROOT
ATOM      1  C   UNL     1      40.435 -36.031 -30.809  0.00  0.00    -0.089 C 
ENDROOT
BRANCH   1   3
ATOM      2  C   UNL     1      40.986 -35.135 -31.754  0.00  0.00    -0.101 C 
ATOM      3  N   UNL     1      41.300 -35.973 -31.307  0.00  0.00    +0.374 N 
ATOM      4  C   UNL     1      42.165 -35.914 -31.805  0.00  0.00    -0.101 C 
ATOM      5  C   UNL     1      41.615 -36.810 -30.859  0.00  0.00    -0.101 C 
ENDBRANCH   1   3
BRANCH   1   6
ATOM      6  C   UNL     1      38.839 -36.773 -31.006  0.00  0.00    -0.068 C 
BRANCH   6   7
ATOM      7  C   UNL     1      38.207 -37.092 -29.636  0.00  0.00    -0.054 C 
BRANCH   7   8
ATOM      8  C   UNL     1      37.195 -38.235 -29.753  0.00  0.00    -0.043 C 
BRANCH   8   9
ATOM      9  C   UNL     1      37.366 -39.245 -28.628  0.00  0.00    +0.003 C 
ATOM     10 BR   UNL     1      36.469 -40.904 -29.103  0.00  0.00    -0.092 Br
ENDBRANCH   8   9
ENDBRANCH   7   8
ENDBRANCH   6   7
ENDBRANCH   1   6
TORSDOF 5
ENDMDL
MODEL 9
REMARK VINA RESULT:    -3.996     18.747     19.830
REMARK INTER + INTRA:          -3.146
REMARK INTER:                  -4.590
REMARK INTRA:                   1.444
REMARK UNBOUND:                 1.550
REMARK  Name = cpd226.pdb
REMARK  8 active torsions:
REMARK  status: ('A' for Active; 'I' for Inactive)
REMARK    1  A    between atoms: C_1  and  N_2
REMARK    2  A    between atoms: N_2  and  C_3
REMARK    3  A    between atoms: N_2  and  C_4
REMARK    4  A    between atoms: N_2  and  C_5
REMARK    5  A    between atoms: C_5  and  C_6
REMARK    6  A    between atoms: C_6  and  C_7
REMARK    7  A    between atoms: C_7  and  C_8
REMARK    8  A    between atoms: C_8  and  C_9
REMARK                            x       y       z     vdW  Elec       q    Type
REMARK                         _______ _______ _______ _____ _____    ______ ____
ROOT
ATOM      1  C   UNL     1      46.783 -21.886 -41.582  0.00  0.00    -0.089 C 
ENDROOT
BRANCH   1   3
ATOM      2  C   UNL     1      48.177 -21.827 -41.816  0.00  0.00    -0.101 C 
ATOM      3  N   UNL     1      47.578 -22.395 -41.251  0.00  0.00    +0.374 N 
ATOM      4  C   UNL     1      48.373 -22.903 -40.920  0.00  0.00    -0.101 C 
ATOM      5  C   UNL     1      46.979 -22.963 -40.686  0.00  0.00    -0.101 C 
ENDBRANCH   1   3
BRANCH   1   6
ATOM      6  C   UNL     1      45.422 -22.128 -42.689  0.00  0.00    -0.068 C 
BRANCH   6   7
ATOM      7  C   UNL     1      44.441 -20.939 -42.622  0.00  0.00    -0.054 C 
BRANCH   7   8
ATOM      8  C   UNL     1      43.165 -21.324 -41.869  0.00  0.00    -0.043 C 
BRANCH   8   9
ATOM      9  C   UNL     1      43.226 -20.886 -40.413  0.00  0.00    +0.003 C 
ATOM     10 BR   UNL     1      44.133 -19.170 -40.288  0.00  0.00    -0.092 Br
ENDBRANCH   8   9
ENDBRANCH   7   8
ENDBRANCH   6   7
ENDBRANCH   1   6
TORSDOF 5
ENDMDL
MODEL 10
REMARK VINA RESULT:    -3.981     33.742     34.759
REMARK INTER + INTRA:          -3.128
REMARK INTER:                  -4.517
REMARK INTRA:                   1.388
REMARK UNBOUND:                 1.550
REMARK  Name = cpd226.pdb
REMARK  8 active torsions:
REMARK  status: ('A' for Active; 'I' for Inactive)
REMARK    1  A    between atoms: C_1  and  N_2
REMARK    2  A    between atoms: N_2  and  C_3
REMARK    3  A    between atoms: N_2  and  C_4
REMARK    4  A    between atoms: N_2  and  C_5
REMARK    5  A    between atoms: C_5  and  C_6
REMARK    6  A    between atoms: C_6  and  C_7
REMARK    7  A    between atoms: C_7  and  C_8
REMARK    8  A    between atoms: C_8  and  C_9
REMARK                            x       y       z     vdW  Elec       q    Type
REMARK                         _______ _______ _______ _____ _____    ______ ____
ROOT
ATOM      1  C   UNL     1      62.687 -25.963  -7.017  0.00  0.00    -0.089 C 
ENDROOT
BRANCH   1   3
ATOM      2  C   UNL     1      62.227 -27.286  -7.211  0.00  0.00    -0.101 C 
ATOM      3  N   UNL     1      62.809 -26.832  -6.536  0.00  0.00    +0.374 N 
ATOM      4  C   UNL     1      62.930 -27.700  -6.056  0.00  0.00    -0.101 C 
ATOM      5  C   UNL     1      63.390 -26.377  -5.862  0.00  0.00    -0.101 C 
ENDBRANCH   1   3
BRANCH   1   6
ATOM      6  C   UNL     1      63.508 -25.012  -8.265  0.00  0.00    -0.068 C 
BRANCH   6   7
ATOM      7  C   UNL     1      62.818 -23.647  -8.460  0.00  0.00    -0.054 C 
BRANCH   7   8
ATOM      8  C   UNL     1      63.706 -22.508  -7.954  0.00  0.00    -0.043 C 
BRANCH   8   9
ATOM      9  C   UNL     1      63.601 -22.349  -6.445  0.00  0.00    +0.003 C 
ATOM     10 BR   UNL     1      65.304 -22.806  -5.624  0.00  0.00    -0.092 Br
ENDBRANCH   8   9
ENDBRANCH   7   8
ENDBRANCH   6   7
ENDBRANCH   1   6
TORSDOF 5
ENDMDL
MODEL 11
REMARK VINA RESULT:    -3.974     33.591     34.430
REMARK INTER + INTRA:          -3.120
REMARK INTER:                  -4.549
REMARK INTRA:                   1.429
REMARK UNBOUND:                 1.550
REMARK  Name = cpd226.pdb
REMARK  8 active torsions:
REMARK  status: ('A' for Active; 'I' for Inactive)
REMARK    1  A    between atoms: C_1  and  N_2
REMARK    2  A    between atoms: N_2  and  C_3
REMARK    3  A    between atoms: N_2  and  C_4
REMARK    4  A    between atoms: N_2  and  C_5
REMARK    5  A    between atoms: C_5  and  C_6
REMARK    6  A    between atoms: C_6  and  C_7
REMARK    7  A    between atoms: C_7  and  C_8
REMARK    8  A    between atoms: C_8  and  C_9
REMARK                            x       y       z     vdW  Elec       q    Type
REMARK                         _______ _______ _______ _____ _____    ______ ____
ROOT
ATOM      1  C   UNL     1      62.748 -25.693  -7.063  0.00  0.00    -0.089 C 
ENDROOT
BRANCH   1   3
ATOM      2  C   UNL     1      63.791 -25.934  -6.140  0.00  0.00    -0.101 C 
ATOM      3  N   UNL     1      63.049 -26.481  -6.527  0.00  0.00    +0.374 N 
ATOM      4  C   UNL     1      63.350 -27.269  -5.990  0.00  0.00    -0.101 C 
ATOM      5  C   UNL     1      62.307 -27.028  -6.914  0.00  0.00    -0.101 C 
ENDBRANCH   1   3
BRANCH   1   6
ATOM      6  C   UNL     1      62.906 -25.075  -8.716  0.00  0.00    -0.068 C 
BRANCH   6   7
ATOM      7  C   UNL     1      62.337 -23.645  -8.825  0.00  0.00    -0.054 C 
BRANCH   7   8
ATOM      8  C   UNL     1      63.384 -22.681  -9.388  0.00  0.00    -0.043 C 
BRANCH   8   9
ATOM      9  C   UNL     1      63.438 -21.389  -8.586  0.00  0.00    +0.003 C 
ATOM     10 BR   UNL     1      63.321 -21.797  -6.688  0.00  0.00    -0.092 Br
ENDBRANCH   8   9
ENDBRANCH   7   8
ENDBRANCH   6   7
ENDBRANCH   1   6
TORSDOF 5
ENDMDL
MODEL 12
REMARK VINA RESULT:    -3.857      4.611      6.219
REMARK INTER + INTRA:          -2.983
REMARK INTER:                  -4.631
REMARK INTRA:                   1.648
REMARK UNBOUND:                 1.550
REMARK  Name = cpd226.pdb
REMARK  8 active torsions:
REMARK  status: ('A' for Active; 'I' for Inactive)
REMARK    1  A    between atoms: C_1  and  N_2
REMARK    2  A    between atoms: N_2  and  C_3
REMARK    3  A    between atoms: N_2  and  C_4
REMARK    4  A    between atoms: N_2  and  C_5
REMARK    5  A    between atoms: C_5  and  C_6
REMARK    6  A    between atoms: C_6  and  C_7
REMARK    7  A    between atoms: C_7  and  C_8
REMARK    8  A    between atoms: C_8  and  C_9
REMARK                            x       y       z     vdW  Elec       q    Type
REMARK                         _______ _______ _______ _____ _____    ______ ____
ROOT
ATOM      1  C   UNL     1      40.312 -36.358 -31.748  0.00  0.00    -0.089 C 
ENDROOT
BRANCH   1   3
ATOM      2  C   UNL     1      41.307 -36.235 -30.751  0.00  0.00    -0.101 C 
ATOM      3  N   UNL     1      41.284 -36.123 -31.744  0.00  0.00    +0.374 N 
ATOM      4  C   UNL     1      42.256 -35.887 -31.740  0.00  0.00    -0.101 C 
ATOM      5  C   UNL     1      41.261 -36.011 -32.738  0.00  0.00    -0.101 C 
ENDBRANCH   1   3
BRANCH   1   6
ATOM      6  C   UNL     1      38.748 -35.530 -31.817  0.00  0.00    -0.068 C 
BRANCH   6   7
ATOM      7  C   UNL     1      37.779 -36.096 -30.759  0.00  0.00    -0.054 C 
BRANCH   7   8
ATOM      8  C   UNL     1      36.465 -35.311 -30.745  0.00  0.00    -0.043 C 
BRANCH   8   9
ATOM      9  C   UNL     1      35.552 -35.776 -29.620  0.00  0.00    +0.003 C 
ATOM     10 BR   UNL     1      34.115 -34.488 -29.375  0.00  0.00    -0.092 Br
ENDBRANCH   8   9
ENDBRANCH   7   8
ENDBRANCH   6   7
ENDBRANCH   1   6
TORSDOF 5
ENDMDL
MODEL 13
REMARK VINA RESULT:    -3.832      5.165      6.817
REMARK INTER + INTRA:          -2.954
REMARK INTER:                  -4.492
REMARK INTRA:                   1.538
REMARK UNBOUND:                 1.550
REMARK  Name = cpd226.pdb
REMARK  8 active torsions:
REMARK  status: ('A' for Active; 'I' for Inactive)
REMARK    1  A    between atoms: C_1  and  N_2
REMARK    2  A    between atoms: N_2  and  C_3
REMARK    3  A    between atoms: N_2  and  C_4
REMARK    4  A    between atoms: N_2  and  C_5
REMARK    5  A    between atoms: C_5  and  C_6
REMARK    6  A    between atoms: C_6  and  C_7
REMARK    7  A    between atoms: C_7  and  C_8
REMARK    8  A    between atoms: C_8  and  C_9
REMARK                            x       y       z     vdW  Elec       q    Type
REMARK                         _______ _______ _______ _____ _____    ______ ____
ROOT
ATOM      1  C   UNL     1      34.742 -34.034 -30.441  0.00  0.00    -0.089 C 
ENDROOT
BRANCH   1   3
ATOM      2  C   UNL     1      34.465 -32.820 -29.771  0.00  0.00    -0.101 C 
ATOM      3  N   UNL     1      34.307 -33.170 -30.694  0.00  0.00    +0.374 N 
ATOM      4  C   UNL     1      33.872 -32.306 -30.947  0.00  0.00    -0.101 C 
ATOM      5  C   UNL     1      34.149 -33.520 -31.617  0.00  0.00    -0.101 C 
ENDBRANCH   1   3
BRANCH   1   6
ATOM      6  C   UNL     1      36.295 -34.855 -30.672  0.00  0.00    -0.068 C 
BRANCH   6   7
ATOM      7  C   UNL     1      36.441 -36.040 -29.695  0.00  0.00    -0.054 C 
BRANCH   7   8
ATOM      8  C   UNL     1      37.801 -36.721 -29.862  0.00  0.00    -0.043 C 
BRANCH   8   9
ATOM      9  C   UNL     1      38.627 -36.055 -30.953  0.00  0.00    +0.003 C 
ATOM     10 BR   UNL     1      40.418 -36.812 -30.966  0.00  0.00    -0.092 Br
ENDBRANCH   8   9
ENDBRANCH   7   8
ENDBRANCH   6   7
ENDBRANCH   1   6
TORSDOF 5
ENDMDL
MODEL 14
REMARK VINA RESULT:    -3.690     18.935     19.487
REMARK INTER + INTRA:          -2.787
REMARK INTER:                  -4.340
REMARK INTRA:                   1.553
REMARK UNBOUND:                 1.550
REMARK  Name = cpd226.pdb
REMARK  8 active torsions:
REMARK  status: ('A' for Active; 'I' for Inactive)
REMARK    1  A    between atoms: C_1  and  N_2
REMARK    2  A    between atoms: N_2  and  C_3
REMARK    3  A    between atoms: N_2  and  C_4
REMARK    4  A    between atoms: N_2  and  C_5
REMARK    5  A    between atoms: C_5  and  C_6
REMARK    6  A    between atoms: C_6  and  C_7
REMARK    7  A    between atoms: C_7  and  C_8
REMARK    8  A    between atoms: C_8  and  C_9
REMARK                            x       y       z     vdW  Elec       q    Type
REMARK                         _______ _______ _______ _____ _____    ______ ____
ROOT
ATOM      1  C   UNL     1      47.220 -21.580 -40.513  0.00  0.00    -0.089 C 
ENDROOT
BRANCH   1   3
ATOM      2  C   UNL     1      46.365 -22.032 -41.545  0.00  0.00    -0.101 C 
ATOM      3  N   UNL     1      47.220 -22.357 -41.141  0.00  0.00    +0.374 N 
ATOM      4  C   UNL     1      47.220 -23.135 -41.770  0.00  0.00    -0.101 C 
ATOM      5  C   UNL     1      48.075 -22.683 -40.738  0.00  0.00    -0.101 C 
ENDBRANCH   1   3
BRANCH   1   6
ATOM      6  C   UNL     1      46.424 -21.091 -39.008  0.00  0.00    -0.068 C 
BRANCH   6   7
ATOM      7  C   UNL     1      47.157 -19.898 -38.361  0.00  0.00    -0.054 C 
BRANCH   7   8
ATOM      8  C   UNL     1      46.827 -19.797 -36.870  0.00  0.00    -0.043 C 
BRANCH   8   9
ATOM      9  C   UNL     1      47.284 -18.467 -36.288  0.00  0.00    +0.003 C 
ATOM     10 BR   UNL     1      48.747 -18.771 -35.044  0.00  0.00    -0.092 Br
ENDBRANCH   8   9
ENDBRANCH   7   8
ENDBRANCH   6   7
ENDBRANCH   1   6
TORSDOF 5
ENDMDL
MODEL 15
REMARK VINA RESULT:    -3.678      4.671      6.175
REMARK INTER + INTRA:          -2.773
REMARK INTER:                  -4.293
REMARK INTRA:                   1.520
REMARK UNBOUND:                 1.550
REMARK  Name = cpd226.pdb
REMARK  8 active torsions:
REMARK  status: ('A' for Active; 'I' for Inactive)
REMARK    1  A    between atoms: C_1  and  N_2
REMARK    2  A    between atoms: N_2  and  C_3
REMARK    3  A    between atoms: N_2  and  C_4
REMARK    4  A    between atoms: N_2  and  C_5
REMARK    5  A    between atoms: C_5  and  C_6
REMARK    6  A    between atoms: C_6  and  C_7
REMARK    7  A    between atoms: C_7  and  C_8
REMARK    8  A    between atoms: C_8  and  C_9
REMARK                            x       y       z     vdW  Elec       q    Type
REMARK                         _______ _______ _______ _____ _____    ______ ____
ROOT
ATOM      1  C   UNL     1      35.576 -35.402 -30.603  0.00  0.00    -0.089 C 
ENDROOT
BRANCH   1   3
ATOM      2  C   UNL     1      34.225 -35.739 -30.358  0.00  0.00    -0.101 C 
ATOM      3  N   UNL     1      34.739 -34.884 -30.429  0.00  0.00    +0.374 N 
ATOM      4  C   UNL     1      33.901 -34.366 -30.254  0.00  0.00    -0.101 C 
ATOM      5  C   UNL     1      35.253 -34.029 -30.499  0.00  0.00    -0.101 C 
ENDBRANCH   1   3
BRANCH   1   6
ATOM      6  C   UNL     1      36.879 -36.166 -29.678  0.00  0.00    -0.068 C 
BRANCH   6   7
ATOM      7  C   UNL     1      37.553 -37.285 -30.499  0.00  0.00    -0.054 C 
BRANCH   7   8
ATOM      8  C   UNL     1      38.975 -36.890 -30.900  0.00  0.00    -0.043 C 
BRANCH   8   9
ATOM      9  C   UNL     1      38.974 -35.937 -32.086  0.00  0.00    +0.003 C 
ATOM     10 BR   UNL     1      40.693 -36.023 -32.992  0.00  0.00    -0.092 Br
ENDBRANCH   8   9
ENDBRANCH   7   8
ENDBRANCH   6   7
ENDBRANCH   1   6
TORSDOF 5
ENDMDL
MODEL 16
REMARK VINA RESULT:    -3.673     21.039     21.712
REMARK INTER + INTRA:          -2.767
REMARK INTER:                  -4.241
REMARK INTRA:                   1.474
REMARK UNBOUND:                 1.550
REMARK  Name = cpd226.pdb
REMARK  8 active torsions:
REMARK  status: ('A' for Active; 'I' for Inactive)
REMARK    1  A    between atoms: C_1  and  N_2
REMARK    2  A    between atoms: N_2  and  C_3
REMARK    3  A    between atoms: N_2  and  C_4
REMARK    4  A    between atoms: N_2  and  C_5
REMARK    5  A    between atoms: C_5  and  C_6
REMARK    6  A    between atoms: C_6  and  C_7
REMARK    7  A    between atoms: C_7  and  C_8
REMARK    8  A    between atoms: C_8  and  C_9
REMARK                            x       y       z     vdW  Elec       q    Type
REMARK                         _______ _______ _______ _____ _____    ______ ____
ROOT
ATOM      1  C   UNL     1      55.027 -35.965 -46.648  0.00  0.00    -0.089 C 
ENDROOT
BRANCH   1   3
ATOM      2  C   UNL     1      53.632 -35.843 -46.847  0.00  0.00    -0.101 C 
ATOM      3  N   UNL     1      54.285 -35.484 -46.180  0.00  0.00    +0.374 N 
ATOM      4  C   UNL     1      53.544 -35.004 -45.711  0.00  0.00    -0.101 C 
ATOM      5  C   UNL     1      54.938 -35.126 -45.513  0.00  0.00    -0.101 C 
ENDBRANCH   1   3
BRANCH   1   6
ATOM      6  C   UNL     1      56.417 -35.578 -47.674  0.00  0.00    -0.068 C 
BRANCH   6   7
ATOM      7  C   UNL     1      56.843 -36.804 -48.508  0.00  0.00    -0.054 C 
BRANCH   7   8
ATOM      8  C   UNL     1      56.670 -36.535 -50.005  0.00  0.00    -0.043 C 
BRANCH   8   9
ATOM      9  C   UNL     1      55.536 -35.555 -50.266  0.00  0.00    +0.003 C 
ATOM     10 BR   UNL     1      56.250 -33.932 -51.064  0.00  0.00    -0.092 Br
ENDBRANCH   8   9
ENDBRANCH   7   8
ENDBRANCH   6   7
ENDBRANCH   1   6
TORSDOF 5
ENDMDL
MODEL 17
REMARK VINA RESULT:    -3.624     34.822     35.793
REMARK INTER + INTRA:          -2.709
REMARK INTER:                  -4.068
REMARK INTRA:                   1.359
REMARK UNBOUND:                 1.550
REMARK  Name = cpd226.pdb
REMARK  8 active torsions:
REMARK  status: ('A' for Active; 'I' for Inactive)
REMARK    1  A    between atoms: C_1  and  N_2
REMARK    2  A    between atoms: N_2  and  C_3
REMARK    3  A    between atoms: N_2  and  C_4
REMARK    4  A    between atoms: N_2  and  C_5
REMARK    5  A    between atoms: C_5  and  C_6
REMARK    6  A    between atoms: C_6  and  C_7
REMARK    7  A    between atoms: C_7  and  C_8
REMARK    8  A    between atoms: C_8  and  C_9
REMARK                            x       y       z     vdW  Elec       q    Type
REMARK                         _______ _______ _______ _____ _____    ______ ____
ROOT
ATOM      1  C   UNL     1      63.687 -25.549  -6.334  0.00  0.00    -0.089 C 
ENDROOT
BRANCH   1   3
ATOM      2  C   UNL     1      62.402 -25.337  -6.885  0.00  0.00    -0.101 C 
ATOM      3  N   UNL     1      62.988 -26.135  -6.745  0.00  0.00    +0.374 N 
ATOM      4  C   UNL     1      62.289 -26.721  -7.156  0.00  0.00    -0.101 C 
ATOM      5  C   UNL     1      63.574 -26.933  -6.605  0.00  0.00    -0.101 C 
ENDBRANCH   1   3
BRANCH   1   6
ATOM      6  C   UNL     1      64.187 -25.013  -4.722  0.00  0.00    -0.068 C 
BRANCH   6   7
ATOM      7  C   UNL     1      64.999 -23.704  -4.806  0.00  0.00    -0.054 C 
BRANCH   7   8
ATOM      8  C   UNL     1      64.282 -22.567  -4.073  0.00  0.00    -0.043 C 
BRANCH   8   9
ATOM      9  C   UNL     1      63.123 -22.022  -4.893  0.00  0.00    +0.003 C 
ATOM     10 BR   UNL     1      63.704 -21.731  -6.726  0.00  0.00    -0.092 Br
ENDBRANCH   8   9
ENDBRANCH   7   8
ENDBRANCH   6   7
ENDBRANCH   1   6
TORSDOF 5
ENDMDL
MODEL 18
REMARK VINA RESULT:    -3.606     18.524     19.458
REMARK INTER + INTRA:          -2.688
REMARK INTER:                  -4.179
REMARK INTRA:                   1.491
REMARK UNBOUND:                 1.550
REMARK  Name = cpd226.pdb
REMARK  8 active torsions:
REMARK  status: ('A' for Active; 'I' for Inactive)
REMARK    1  A    between atoms: C_1  and  N_2
REMARK    2  A    between atoms: N_2  and  C_3
REMARK    3  A    between atoms: N_2  and  C_4
REMARK    4  A    between atoms: N_2  and  C_5
REMARK    5  A    between atoms: C_5  and  C_6
REMARK    6  A    between atoms: C_6  and  C_7
REMARK    7  A    between atoms: C_7  and  C_8
REMARK    8  A    between atoms: C_8  and  C_9
REMARK                            x       y       z     vdW  Elec       q    Type
REMARK                         _______ _______ _______ _____ _____    ______ ____
ROOT
ATOM      1  C   UNL     1      46.408 -22.102 -41.423  0.00  0.00    -0.089 C 
ENDROOT
BRANCH   1   3
ATOM      2  C   UNL     1      47.629 -21.465 -41.745  0.00  0.00    -0.101 C 
ATOM      3  N   UNL     1      47.364 -22.391 -41.475  0.00  0.00    +0.374 N 
ATOM      4  C   UNL     1      48.320 -22.679 -41.528  0.00  0.00    -0.101 C 
ATOM      5  C   UNL     1      47.100 -23.317 -41.206  0.00  0.00    -0.101 C 
ENDBRANCH   1   3
BRANCH   1   6
ATOM      6  C   UNL     1      45.215 -21.684 -40.182  0.00  0.00    -0.068 C 
BRANCH   6   7
ATOM      7  C   UNL     1      43.916 -21.157 -40.824  0.00  0.00    -0.054 C 
BRANCH   7   8
ATOM      8  C   UNL     1      43.375 -19.950 -40.054  0.00  0.00    -0.043 C 
BRANCH   8   9
ATOM      9  C   UNL     1      42.022 -20.252 -39.428  0.00  0.00    +0.003 C 
ATOM     10 BR   UNL     1      41.360 -21.954 -40.097  0.00  0.00    -0.092 Br
ENDBRANCH   8   9
ENDBRANCH   7   8
ENDBRANCH   6   7
ENDBRANCH   1   6
TORSDOF 5
ENDMDL
MODEL 19
REMARK VINA RESULT:    -3.508     34.738     35.611
REMARK INTER + INTRA:          -2.573
REMARK INTER:                  -4.055
REMARK INTRA:                   1.482
REMARK UNBOUND:                 1.550
REMARK  Name = cpd226.pdb
REMARK  8 active torsions:
REMARK  status: ('A' for Active; 'I' for Inactive)
REMARK    1  A    between atoms: C_1  and  N_2
REMARK    2  A    between atoms: N_2  and  C_3
REMARK    3  A    between atoms: N_2  and  C_4
REMARK    4  A    between atoms: N_2  and  C_5
REMARK    5  A    between atoms: C_5  and  C_6
REMARK    6  A    between atoms: C_6  and  C_7
REMARK    7  A    between atoms: C_7  and  C_8
REMARK    8  A    between atoms: C_8  and  C_9
REMARK                            x       y       z     vdW  Elec       q    Type
REMARK                         _______ _______ _______ _____ _____    ______ ____
ROOT
ATOM      1  C   UNL     1      63.316 -25.005  -7.323  0.00  0.00    -0.089 C 
ENDROOT
BRANCH   1   3
ATOM      2  C   UNL     1      62.113 -25.595  -7.774  0.00  0.00    -0.101 C 
ATOM      3  N   UNL     1      62.776 -24.955  -8.163  0.00  0.00    +0.374 N 
ATOM      4  C   UNL     1      62.236 -24.906  -9.003  0.00  0.00    -0.101 C 
ATOM      5  C   UNL     1      63.439 -24.315  -8.551  0.00  0.00    -0.101 C 
ENDBRANCH   1   3
BRANCH   1   6
ATOM      6  C   UNL     1      63.430 -24.164  -5.768  0.00  0.00    -0.068 C 
BRANCH   6   7
ATOM      7  C   UNL     1      64.240 -24.996  -4.752  0.00  0.00    -0.054 C 
BRANCH   7   8
ATOM      8  C   UNL     1      64.955 -24.088  -3.748  0.00  0.00    -0.043 C 
BRANCH   8   9
ATOM      9  C   UNL     1      64.829 -22.622  -4.137  0.00  0.00    +0.003 C 
ATOM     10 BR   UNL     1      66.520 -21.997  -4.868  0.00  0.00    -0.092 Br
ENDBRANCH   8   9
ENDBRANCH   7   8
ENDBRANCH   6   7
ENDBRANCH   1   6
TORSDOF 5
ENDMDL
MODEL 20
REMARK VINA RESULT:    -3.432     30.979     31.405
REMARK INTER + INTRA:          -2.483
REMARK INTER:                  -3.914
REMARK INTRA:                   1.431
REMARK UNBOUND:                 1.550
REMARK  Name = cpd226.pdb
REMARK  8 active torsions:
REMARK  status: ('A' for Active; 'I' for Inactive)
REMARK    1  A    between atoms: C_1  and  N_2
REMARK    2  A    between atoms: N_2  and  C_3
REMARK    3  A    between atoms: N_2  and  C_4
REMARK    4  A    between atoms: N_2  and  C_5
REMARK    5  A    between atoms: C_5  and  C_6
REMARK    6  A    between atoms: C_6  and  C_7
REMARK    7  A    between atoms: C_7  and  C_8
REMARK    8  A    between atoms: C_8  and  C_9
REMARK                            x       y       z     vdW  Elec       q    Type
REMARK                         _______ _______ _______ _____ _____    ______ ____
ROOT
ATOM      1  C   UNL     1      61.508 -13.612 -31.278  0.00  0.00    -0.089 C 
ENDROOT
BRANCH   1   3
ATOM      2  C   UNL     1      60.224 -13.808 -31.838  0.00  0.00    -0.101 C 
ATOM      3  N   UNL     1      60.761 -13.011 -31.564  0.00  0.00    +0.374 N 
ATOM      4  C   UNL     1      60.015 -12.410 -31.849  0.00  0.00    -0.101 C 
ATOM      5  C   UNL     1      61.299 -12.213 -31.289  0.00  0.00    -0.101 C 
ENDBRANCH   1   3
BRANCH   1   6
ATOM      6  C   UNL     1      63.137 -14.051 -31.817  0.00  0.00    -0.068 C 
BRANCH   6   7
ATOM      7  C   UNL     1      63.717 -15.184 -30.946  0.00  0.00    -0.054 C 
BRANCH   7   8
ATOM      8  C   UNL     1      64.937 -14.699 -30.159  0.00  0.00    -0.043 C 
BRANCH   8   9
ATOM      9  C   UNL     1      64.623 -13.438 -29.369  0.00  0.00    +0.003 C 
ATOM     10 BR   UNL     1      63.350 -13.854 -27.958  0.00  0.00    -0.092 Br
ENDBRANCH   8   9
ENDBRANCH   7   8
ENDBRANCH   6   7
ENDBRANCH   1   6
TORSDOF 5
ENDMDL
