REMARK  Name = cpd226.pdb
REMARK  8 active torsions:
REMARK  status: ('A' for Active; 'I' for Inactive)
REMARK    1  A    between atoms: C_1  and  N_2
REMARK    2  A    between atoms: N_2  and  C_3
REMARK    3  A    between atoms: N_2  and  C_4
REMARK    4  A    between atoms: N_2  and  C_5
REMARK    5  A    between atoms: C_5  and  C_6
REMARK    6  A    between atoms: C_6  and  C_7
REMARK    7  A    between atoms: C_7  and  C_8
REMARK    8  A    between atoms: C_8  and  C_9
REMARK                            x       y       z     vdW  Elec       q    Type
REMARK                         _______ _______ _______ _____ _____    ______ ____
ROOT
ATOM      1  C   UNL     1       0.000   0.000   0.000  0.00  0.00    -0.089 C 
ENDROOT
BRANCH   1   3
ATOM      2  C   UNL     1       1.000  -1.000   0.000  0.00  0.00    -0.101 C 
ATOM      3  N   UNL     1       1.000   0.000   0.000  0.00  0.00    +0.374 N 
ATOM      4  C   UNL     1       2.000   0.000   0.000  0.00  0.00    -0.101 C 
ATOM      5  C   UNL     1       1.000   1.000   0.000  0.00  0.00    -0.101 C 
ENDBRANCH   1   3
BRANCH   1   6
ATOM      6  C   UNL     1      -1.326   1.174   0.015  0.00  0.00    -0.068 C 
BRANCH   6   7
ATOM      7  C   UNL     1      -2.693   0.460  -0.009  0.00  0.00    -0.054 C 
BRANCH   7   8
ATOM      8  C   UNL     1      -3.840   1.473   0.014  0.00  0.00    -0.043 C 
BRANCH   8   9
ATOM      9  C   UNL     1      -5.194   0.780  -0.015  0.00  0.00    +0.003 C 
ATOM     10 BR   UNL     1      -6.608   2.115   0.019  0.00  0.00    -0.092 Br
ENDBRANCH   8   9
ENDBRANCH   7   8
ENDBRANCH   6   7
ENDBRANCH   1   6
TORSDOF 5
