MODEL 1
REMARK VINA RESULT:    -6.903      0.000      0.000
REMARK INTER + INTRA:         -12.977
REMARK INTER:                 -11.141
REMARK INTRA:                  -1.836
REMARK UNBOUND:                -1.836
REMARK  Name = cpd302.pdb
REMARK  15 active torsions:
REMARK  status: ('A' for Active; 'I' for Inactive)
REMARK    1  A    between atoms: C_1  and  C_2
REMARK    2  A    between atoms: C_2  and  C_3
REMARK    3  A    between atoms: C_2  and  C_20
REMARK    4  A    between atoms: C_3  and  C_4
REMARK    5  A    between atoms: C_4  and  C_5
REMARK    6  A    between atoms: C_6  and  C_7
REMARK    7  A    between atoms: C_7  and  O_8
REMARK    8  A    between atoms: C_12  and  C_13
REMARK    9  A    between atoms: C_12  and  C_14
REMARK   10  A    between atoms: C_18  and  C_19
REMARK   11  A    between atoms: C_20  and  C_21
REMARK   12  A    between atoms: C_21  and  O_23
REMARK   13  A    between atoms: O_23  and  C_24
REMARK   14  A    between atoms: C_24  and  C_25
REMARK   15  A    between atoms: C_25  and  N_26
REMARK                            x       y       z     vdW  Elec       q    Type
REMARK                         _______ _______ _______ _____ _____    ______ ____
ROOT
ATOM      1  C   UNL     1      44.670 -19.342 -36.845  0.00  0.00    -0.046 C 
ENDROOT
BRANCH   1   2
ATOM      2  C   UNL     1      44.448 -20.578 -37.779  0.00  0.00    -0.012 C 
ATOM      3  C   UNL     1      42.965 -20.788 -38.123  0.00  0.00    -0.045 C 
ATOM      4  C   UNL     1      42.583 -21.126 -39.367  0.00  0.00    -0.082 C 
ATOM      5  C   UNL     1      43.502 -21.368 -40.513  0.00  0.00    -0.031 C 
ATOM      6  C   UNL     1      44.984 -21.595 -40.130  0.00  0.00    -0.027 C 
ATOM      7  C   UNL     1      45.925 -21.655 -41.410  0.00  0.00    -0.031 C 
ATOM      8  C   UNL     1      47.002 -22.753 -41.227  0.00  0.00    -0.060 C 
ATOM      9  C   UNL     1      45.163 -22.064 -42.699  0.00  0.00    -0.060 C 
ATOM     10  C   UNL     1      46.626 -20.298 -41.679  0.00  0.00    -0.048 C 
ATOM     11  C   UNL     1      45.820 -19.098 -41.202  0.00  0.00    -0.052 C 
ATOM     12  C   UNL     1      45.467 -19.130 -39.709  0.00  0.00    -0.047 C 
ATOM     13  C   UNL     1      45.425 -20.540 -39.051  0.00  0.00    -0.022 C 
ATOM     14  C   UNL     1      46.836 -20.886 -38.497  0.00  0.00    -0.059 C 
BRANCH   3  15
ATOM     15  C   UNL     1      41.960 -20.696 -36.989  0.00  0.00    +0.066 C 
BRANCH  15  16
ATOM     16  O   UNL     1      42.122 -21.734 -36.030  0.00  0.00    -0.391 OA
ATOM     17  H   UNL     1      42.806 -21.480 -35.390  0.00  0.00    +0.000 HD
ENDBRANCH  15  16
ENDBRANCH   3  15
ENDBRANCH   1   2
BRANCH   1  18
ATOM     18  C   UNL     1      45.139 -19.682 -35.416  0.00  0.00    -0.049 C 
BRANCH  18  20
ATOM     19  C   UNL     1      46.980 -17.937 -35.661  0.00  0.00    -0.062 C 
ATOM     20  C   UNL     1      45.956 -18.572 -34.716  0.00  0.00    -0.034 C 
BRANCH  20  21
ATOM     21  C   UNL     1      45.039 -17.500 -34.088  0.00  0.00    +0.048 C 
BRANCH  21  22
ATOM     22  C   UNL     1      44.315 -17.957 -32.840  0.00  0.00    +0.307 C 
ATOM     23  O   UNL     1      44.910 -18.065 -31.770  0.00  0.00    -0.251 OA
BRANCH  22  24
ATOM     24  O   UNL     1      43.010 -18.296 -32.924  0.00  0.00    -0.463 OA
BRANCH  24  25
ATOM     25  C   UNL     1      42.498 -19.639 -32.783  0.00  0.00    +0.105 C 
BRANCH  25  26
ATOM     26  C   UNL     1      41.052 -19.713 -33.294  0.00  0.00    +0.033 C 
BRANCH  26  27
ATOM     27  N   UNL     1      40.638 -21.070 -33.697  0.00  0.00    -0.299 N 
ATOM     28  C   UNL     1      39.204 -21.130 -34.026  0.00  0.00    -0.001 C 
ATOM     29  C   UNL     1      38.794 -22.533 -34.479  0.00  0.00    -0.040 C 
ATOM     30  C   UNL     1      39.146 -23.581 -33.431  0.00  0.00    -0.051 C 
ATOM     31  C   UNL     1      40.611 -23.462 -33.036  0.00  0.00    -0.040 C 
ATOM     32  C   UNL     1      40.961 -22.031 -32.627  0.00  0.00    -0.001 C 
ATOM     33  H   UNL     1      41.154 -21.318 -34.541  0.00  0.00    +0.000 HD
ENDBRANCH  26  27
ENDBRANCH  25  26
ENDBRANCH  24  25
ENDBRANCH  22  24
ENDBRANCH  21  22
ENDBRANCH  20  21
ENDBRANCH  18  20
ENDBRANCH   1  18
TORSDOF 11
ENDMDL
MODEL 2
REMARK VINA RESULT:    -6.496     16.418     20.402
REMARK INTER + INTRA:         -12.319
REMARK INTER:                  -9.959
REMARK INTRA:                  -2.360
REMARK UNBOUND:                -1.836
REMARK  Name = cpd302.pdb
REMARK  15 active torsions:
REMARK  status: ('A' for Active; 'I' for Inactive)
REMARK    1  A    between atoms: C_1  and  C_2
REMARK    2  A    between atoms: C_2  and  C_3
REMARK    3  A    between atoms: C_2  and  C_20
REMARK    4  A    between atoms: C_3  and  C_4
REMARK    5  A    between atoms: C_4  and  C_5
REMARK    6  A    between atoms: C_6  and  C_7
REMARK    7  A    between atoms: C_7  and  O_8
REMARK    8  A    between atoms: C_12  and  C_13
REMARK    9  A    between atoms: C_12  and  C_14
REMARK   10  A    between atoms: C_18  and  C_19
REMARK   11  A    between atoms: C_20  and  C_21
REMARK   12  A    between atoms: C_21  and  O_23
REMARK   13  A    between atoms: O_23  and  C_24
REMARK   14  A    between atoms: C_24  and  C_25
REMARK   15  A    between atoms: C_25  and  N_26
REMARK                            x       y       z     vdW  Elec       q    Type
REMARK                         _______ _______ _______ _____ _____    ______ ____
ROOT
ATOM      1  C   UNL     1      35.634 -34.276 -30.639  0.00  0.00    -0.046 C 
ENDROOT
BRANCH   1   2
ATOM      2  C   UNL     1      36.322 -35.647 -30.950  0.00  0.00    -0.012 C 
ATOM      3  C   UNL     1      37.854 -35.534 -30.986  0.00  0.00    -0.045 C 
ATOM      4  C   UNL     1      38.632 -36.482 -30.436  0.00  0.00    -0.082 C 
ATOM      5  C   UNL     1      38.141 -37.727 -29.783  0.00  0.00    -0.031 C 
ATOM      6  C   UNL     1      36.671 -38.096 -30.097  0.00  0.00    -0.027 C 
ATOM      7  C   UNL     1      36.168 -39.321 -29.217  0.00  0.00    -0.031 C 
ATOM      8  C   UNL     1      35.283 -40.262 -30.073  0.00  0.00    -0.060 C 
ATOM      9  C   UNL     1      37.329 -40.222 -28.718  0.00  0.00    -0.060 C 
ATOM     10  C   UNL     1      35.358 -38.854 -27.979  0.00  0.00    -0.048 C 
ATOM     11  C   UNL     1      35.778 -37.483 -27.468  0.00  0.00    -0.052 C 
ATOM     12  C   UNL     1      35.681 -36.364 -28.513  0.00  0.00    -0.047 C 
ATOM     13  C   UNL     1      35.765 -36.815 -30.000  0.00  0.00    -0.022 C 
ATOM     14  C   UNL     1      34.333 -37.121 -30.522  0.00  0.00    -0.059 C 
BRANCH   3  15
ATOM     15  C   UNL     1      38.455 -34.367 -31.748  0.00  0.00    +0.066 C 
BRANCH  15  16
ATOM     16  O   UNL     1      39.579 -34.749 -32.533  0.00  0.00    -0.391 OA
ATOM     17  H   UNL     1      40.395 -34.503 -32.071  0.00  0.00    +0.000 HD
ENDBRANCH  15  16
ENDBRANCH   3  15
ENDBRANCH   1   2
BRANCH   1  18
ATOM     18  C   UNL     1      34.718 -33.739 -31.758  0.00  0.00    -0.049 C 
BRANCH  18  20
ATOM     19  C   UNL     1      32.313 -34.435 -32.235  0.00  0.00    -0.062 C 
ATOM     20  C   UNL     1      33.232 -33.574 -31.363  0.00  0.00    -0.034 C 
BRANCH  20  21
ATOM     21  C   UNL     1      33.007 -33.863 -29.863  0.00  0.00    +0.048 C 
BRANCH  21  22
ATOM     22  C   UNL     1      31.552 -33.878 -29.446  0.00  0.00    +0.307 C 
ATOM     23  O   UNL     1      30.920 -32.831 -29.330  0.00  0.00    -0.251 OA
BRANCH  22  24
ATOM     24  O   UNL     1      30.965 -35.058 -29.149  0.00  0.00    -0.463 OA
BRANCH  24  25
ATOM     25  C   UNL     1      31.535 -36.066 -28.287  0.00  0.00    +0.105 C 
BRANCH  25  26
ATOM     26  C   UNL     1      31.551 -35.575 -26.832  0.00  0.00    +0.033 C 
BRANCH  26  27
ATOM     27  N   UNL     1      31.891 -36.629 -25.858  0.00  0.00    -0.299 N 
ATOM     28  C   UNL     1      33.110 -36.301 -25.099  0.00  0.00    -0.001 C 
ATOM     29  C   UNL     1      33.431 -37.382 -24.066  0.00  0.00    -0.040 C 
ATOM     30  C   UNL     1      33.560 -38.753 -24.716  0.00  0.00    -0.051 C 
ATOM     31  C   UNL     1      32.332 -39.054 -25.564  0.00  0.00    -0.040 C 
ATOM     32  C   UNL     1      32.047 -37.920 -26.550  0.00  0.00    -0.001 C 
ATOM     33  H   UNL     1      31.125 -36.695 -25.187  0.00  0.00    +0.000 HD
ENDBRANCH  26  27
ENDBRANCH  25  26
ENDBRANCH  24  25
ENDBRANCH  22  24
ENDBRANCH  21  22
ENDBRANCH  20  21
ENDBRANCH  18  20
ENDBRANCH   1  18
TORSDOF 11
ENDMDL
MODEL 3
REMARK VINA RESULT:    -6.299      2.252      4.260
REMARK INTER + INTRA:         -12.001
REMARK INTER:                  -9.613
REMARK INTRA:                  -2.388
REMARK UNBOUND:                -1.836
REMARK  Name = cpd302.pdb
REMARK  15 active torsions:
REMARK  status: ('A' for Active; 'I' for Inactive)
REMARK    1  A    between atoms: C_1  and  C_2
REMARK    2  A    between atoms: C_2  and  C_3
REMARK    3  A    between atoms: C_2  and  C_20
REMARK    4  A    between atoms: C_3  and  C_4
REMARK    5  A    between atoms: C_4  and  C_5
REMARK    6  A    between atoms: C_6  and  C_7
REMARK    7  A    between atoms: C_7  and  O_8
REMARK    8  A    between atoms: C_12  and  C_13
REMARK    9  A    between atoms: C_12  and  C_14
REMARK   10  A    between atoms: C_18  and  C_19
REMARK   11  A    between atoms: C_20  and  C_21
REMARK   12  A    between atoms: C_21  and  O_23
REMARK   13  A    between atoms: O_23  and  C_24
REMARK   14  A    between atoms: C_24  and  C_25
REMARK   15  A    between atoms: C_25  and  N_26
REMARK                            x       y       z     vdW  Elec       q    Type
REMARK                         _______ _______ _______ _____ _____    ______ ____
ROOT
ATOM      1  C   UNL     1      43.966 -19.027 -39.073  0.00  0.00    -0.046 C 
ENDROOT
BRANCH   1   2
ATOM      2  C   UNL     1      44.255 -20.486 -39.561  0.00  0.00    -0.012 C 
ATOM      3  C   UNL     1      43.187 -20.992 -40.544  0.00  0.00    -0.045 C 
ATOM      4  C   UNL     1      43.528 -21.701 -41.634  0.00  0.00    -0.082 C 
ATOM      5  C   UNL     1      44.914 -22.104 -41.999  0.00  0.00    -0.031 C 
ATOM      6  C   UNL     1      45.950 -22.004 -40.854  0.00  0.00    -0.027 C 
ATOM      7  C   UNL     1      47.431 -22.266 -41.369  0.00  0.00    -0.031 C 
ATOM      8  C   UNL     1      48.214 -23.108 -40.332  0.00  0.00    -0.060 C 
ATOM      9  C   UNL     1      47.475 -23.109 -42.672  0.00  0.00    -0.060 C 
ATOM     10  C   UNL     1      48.197 -20.943 -41.630  0.00  0.00    -0.048 C 
ATOM     11  C   UNL     1      47.289 -19.789 -42.030  0.00  0.00    -0.052 C 
ATOM     12  C   UNL     1      46.186 -19.473 -41.011  0.00  0.00    -0.047 C 
ATOM     13  C   UNL     1      45.764 -20.647 -40.081  0.00  0.00    -0.022 C 
ATOM     14  C   UNL     1      46.645 -20.625 -38.800  0.00  0.00    -0.059 C 
BRANCH   3  15
ATOM     15  C   UNL     1      41.731 -20.747 -40.188  0.00  0.00    +0.066 C 
BRANCH  15  16
ATOM     16  O   UNL     1      41.307 -21.516 -39.068  0.00  0.00    -0.391 OA
ATOM     17  H   UNL     1      40.673 -22.190 -39.360  0.00  0.00    +0.000 HD
ENDBRANCH  15  16
ENDBRANCH   3  15
ENDBRANCH   1   2
BRANCH   1  18
ATOM     18  C   UNL     1      43.609 -18.899 -37.578  0.00  0.00    -0.049 C 
BRANCH  18  20
ATOM     19  C   UNL     1      42.088 -17.042 -38.431  0.00  0.00    -0.062 C 
ATOM     20  C   UNL     1      42.394 -17.995 -37.272  0.00  0.00    -0.034 C 
BRANCH  20  21
ATOM     21  C   UNL     1      41.149 -18.826 -36.891  0.00  0.00    +0.048 C 
BRANCH  21  22
ATOM     22  C   UNL     1      41.418 -19.918 -35.878  0.00  0.00    +0.307 C 
ATOM     23  O   UNL     1      41.210 -21.097 -36.153  0.00  0.00    -0.251 OA
BRANCH  22  24
ATOM     24  O   UNL     1      41.843 -19.577 -34.641  0.00  0.00    -0.463 OA
BRANCH  24  25
ATOM     25  C   UNL     1      42.879 -20.265 -33.909  0.00  0.00    +0.105 C 
BRANCH  25  26
ATOM     26  C   UNL     1      43.735 -19.259 -33.125  0.00  0.00    +0.033 C 
BRANCH  26  27
ATOM     27  N   UNL     1      45.084 -19.069 -33.688  0.00  0.00    -0.299 N 
ATOM     28  C   UNL     1      45.205 -17.784 -34.398  0.00  0.00    -0.001 C 
ATOM     29  C   UNL     1      46.620 -17.581 -34.945  0.00  0.00    -0.040 C 
ATOM     30  C   UNL     1      47.038 -18.733 -35.849  0.00  0.00    -0.051 C 
ATOM     31  C   UNL     1      46.836 -20.063 -35.138  0.00  0.00    -0.040 C 
ATOM     32  C   UNL     1      45.415 -20.188 -34.588  0.00  0.00    -0.001 C 
ATOM     33  H   UNL     1      45.748 -19.051 -32.913  0.00  0.00    +0.000 HD
ENDBRANCH  26  27
ENDBRANCH  25  26
ENDBRANCH  24  25
ENDBRANCH  22  24
ENDBRANCH  21  22
ENDBRANCH  20  21
ENDBRANCH  18  20
ENDBRANCH   1  18
TORSDOF 11
ENDMDL
MODEL 4
REMARK VINA RESULT:    -6.296      2.433      5.368
REMARK INTER + INTRA:         -11.996
REMARK INTER:                  -9.023
REMARK INTRA:                  -2.973
REMARK UNBOUND:                -1.836
REMARK  Name = cpd302.pdb
REMARK  15 active torsions:
REMARK  status: ('A' for Active; 'I' for Inactive)
REMARK    1  A    between atoms: C_1  and  C_2
REMARK    2  A    between atoms: C_2  and  C_3
REMARK    3  A    between atoms: C_2  and  C_20
REMARK    4  A    between atoms: C_3  and  C_4
REMARK    5  A    between atoms: C_4  and  C_5
REMARK    6  A    between atoms: C_6  and  C_7
REMARK    7  A    between atoms: C_7  and  O_8
REMARK    8  A    between atoms: C_12  and  C_13
REMARK    9  A    between atoms: C_12  and  C_14
REMARK   10  A    between atoms: C_18  and  C_19
REMARK   11  A    between atoms: C_20  and  C_21
REMARK   12  A    between atoms: C_21  and  O_23
REMARK   13  A    between atoms: O_23  and  C_24
REMARK   14  A    between atoms: C_24  and  C_25
REMARK   15  A    between atoms: C_25  and  N_26
REMARK                            x       y       z     vdW  Elec       q    Type
REMARK                         _______ _______ _______ _____ _____    ______ ____
ROOT
ATOM      1  C   UNL     1      42.341 -18.777 -38.242  0.00  0.00    -0.046 C 
ENDROOT
BRANCH   1   2
ATOM      2  C   UNL     1      43.076 -18.722 -39.624  0.00  0.00    -0.012 C 
ATOM      3  C   UNL     1      43.839 -17.404 -39.824  0.00  0.00    -0.045 C 
ATOM      4  C   UNL     1      45.065 -17.390 -40.377  0.00  0.00    -0.082 C 
ATOM      5  C   UNL     1      45.796 -18.585 -40.880  0.00  0.00    -0.031 C 
ATOM      6  C   UNL     1      44.922 -19.844 -41.100  0.00  0.00    -0.027 C 
ATOM      7  C   UNL     1      45.801 -21.121 -41.452  0.00  0.00    -0.031 C 
ATOM      8  C   UNL     1      45.099 -21.966 -42.544  0.00  0.00    -0.060 C 
ATOM      9  C   UNL     1      47.179 -20.755 -42.064  0.00  0.00    -0.060 C 
ATOM     10  C   UNL     1      46.053 -22.013 -40.207  0.00  0.00    -0.048 C 
ATOM     11  C   UNL     1      46.069 -21.232 -38.901  0.00  0.00    -0.052 C 
ATOM     12  C   UNL     1      44.788 -20.435 -38.626  0.00  0.00    -0.047 C 
ATOM     13  C   UNL     1      43.952 -20.042 -39.879  0.00  0.00    -0.022 C 
ATOM     14  C   UNL     1      42.922 -21.168 -40.179  0.00  0.00    -0.059 C 
BRANCH   3  15
ATOM     15  C   UNL     1      43.123 -16.114 -39.466  0.00  0.00    +0.066 C 
BRANCH  15  16
ATOM     16  O   UNL     1      42.697 -15.390 -40.614  0.00  0.00    -0.391 OA
ATOM     17  H   UNL     1      43.197 -15.689 -41.390  0.00  0.00    +0.000 HD
ENDBRANCH  15  16
ENDBRANCH   3  15
ENDBRANCH   1   2
BRANCH   1  18
ATOM     18  C   UNL     1      40.822 -19.030 -38.323  0.00  0.00    -0.049 C 
BRANCH  18  20
ATOM     19  C   UNL     1      39.534 -21.225 -38.453  0.00  0.00    -0.062 C 
ATOM     20  C   UNL     1      40.326 -20.274 -37.551  0.00  0.00    -0.034 C 
BRANCH  20  21
ATOM     21  C   UNL     1      41.488 -21.010 -36.851  0.00  0.00    +0.048 C 
BRANCH  21  22
ATOM     22  C   UNL     1      41.464 -20.915 -35.341  0.00  0.00    +0.307 C 
ATOM     23  O   UNL     1      40.564 -21.442 -34.690  0.00  0.00    -0.251 OA
BRANCH  22  24
ATOM     24  O   UNL     1      42.420 -20.196 -34.711  0.00  0.00    -0.463 OA
BRANCH  24  25
ATOM     25  C   UNL     1      43.835 -20.297 -34.980  0.00  0.00    +0.105 C 
BRANCH  25  26
ATOM     26  C   UNL     1      44.605 -19.239 -34.176  0.00  0.00    +0.033 C 
BRANCH  26  27
ATOM     27  N   UNL     1      45.653 -18.554 -34.954  0.00  0.00    -0.299 N 
ATOM     28  C   UNL     1      45.083 -17.726 -36.030  0.00  0.00    -0.001 C 
ATOM     29  C   UNL     1      46.177 -16.990 -36.807  0.00  0.00    -0.040 C 
ATOM     30  C   UNL     1      47.208 -17.960 -37.369  0.00  0.00    -0.051 C 
ATOM     31  C   UNL     1      47.736 -18.868 -36.267  0.00  0.00    -0.040 C 
ATOM     32  C   UNL     1      46.593 -19.544 -35.510  0.00  0.00    -0.001 C 
ATOM     33  H   UNL     1      46.155 -17.929 -34.323  0.00  0.00    +0.000 HD
ENDBRANCH  26  27
ENDBRANCH  25  26
ENDBRANCH  24  25
ENDBRANCH  22  24
ENDBRANCH  21  22
ENDBRANCH  20  21
ENDBRANCH  18  20
ENDBRANCH   1  18
TORSDOF 11
ENDMDL
MODEL 5
REMARK VINA RESULT:    -6.190      1.650      2.214
REMARK INTER + INTRA:         -11.825
REMARK INTER:                 -10.012
REMARK INTRA:                  -1.813
REMARK UNBOUND:                -1.836
REMARK  Name = cpd302.pdb
REMARK  15 active torsions:
REMARK  status: ('A' for Active; 'I' for Inactive)
REMARK    1  A    between atoms: C_1  and  C_2
REMARK    2  A    between atoms: C_2  and  C_3
REMARK    3  A    between atoms: C_2  and  C_20
REMARK    4  A    between atoms: C_3  and  C_4
REMARK    5  A    between atoms: C_4  and  C_5
REMARK    6  A    between atoms: C_6  and  C_7
REMARK    7  A    between atoms: C_7  and  O_8
REMARK    8  A    between atoms: C_12  and  C_13
REMARK    9  A    between atoms: C_12  and  C_14
REMARK   10  A    between atoms: C_18  and  C_19
REMARK   11  A    between atoms: C_20  and  C_21
REMARK   12  A    between atoms: C_21  and  O_23
REMARK   13  A    between atoms: O_23  and  C_24
REMARK   14  A    between atoms: C_24  and  C_25
REMARK   15  A    between atoms: C_25  and  N_26
REMARK                            x       y       z     vdW  Elec       q    Type
REMARK                         _______ _______ _______ _____ _____    ______ ____
ROOT
ATOM      1  C   UNL     1      44.564 -18.672 -38.259  0.00  0.00    -0.046 C 
ENDROOT
BRANCH   1   2
ATOM      2  C   UNL     1      44.505 -20.116 -38.862  0.00  0.00    -0.012 C 
ATOM      3  C   UNL     1      43.191 -20.379 -39.614  0.00  0.00    -0.045 C 
ATOM      4  C   UNL     1      43.183 -21.044 -40.781  0.00  0.00    -0.082 C 
ATOM      5  C   UNL     1      44.380 -21.621 -41.453  0.00  0.00    -0.031 C 
ATOM      6  C   UNL     1      45.630 -21.766 -40.552  0.00  0.00    -0.027 C 
ATOM      7  C   UNL     1      46.911 -22.206 -41.384  0.00  0.00    -0.031 C 
ATOM      8  C   UNL     1      47.743 -23.233 -40.576  0.00  0.00    -0.060 C 
ATOM      9  C   UNL     1      46.551 -22.943 -42.702  0.00  0.00    -0.060 C 
ATOM     10  C   UNL     1      47.814 -20.996 -41.744  0.00  0.00    -0.048 C 
ATOM     11  C   UNL     1      47.042 -19.692 -41.889  0.00  0.00    -0.052 C 
ATOM     12  C   UNL     1      46.238 -19.294 -40.646  0.00  0.00    -0.047 C 
ATOM     13  C   UNL     1      45.829 -20.460 -39.699  0.00  0.00    -0.022 C 
ATOM     14  C   UNL     1      46.945 -20.670 -38.637  0.00  0.00    -0.059 C 
BRANCH   3  15
ATOM     15  C   UNL     1      41.899 -19.947 -38.944  0.00  0.00    +0.066 C 
BRANCH  15  16
ATOM     16  O   UNL     1      40.746 -20.469 -39.596  0.00  0.00    -0.391 OA
ATOM     17  H   UNL     1      39.998 -20.472 -38.978  0.00  0.00    +0.000 HD
ENDBRANCH  15  16
ENDBRANCH   3  15
ENDBRANCH   1   2
BRANCH   1  18
ATOM     18  C   UNL     1      44.681 -18.612 -36.722  0.00  0.00    -0.049 C 
BRANCH  18  20
ATOM     19  C   UNL     1      45.553 -20.186 -34.919  0.00  0.00    -0.062 C 
ATOM     20  C   UNL     1      44.492 -19.965 -36.000  0.00  0.00    -0.034 C 
BRANCH  20  21
ATOM     21  C   UNL     1      43.069 -20.106 -35.419  0.00  0.00    +0.048 C 
BRANCH  21  22
ATOM     22  C   UNL     1      42.812 -19.256 -34.193  0.00  0.00    +0.307 C 
ATOM     23  O   UNL     1      42.900 -18.031 -34.245  0.00  0.00    -0.251 OA
BRANCH  22  24
ATOM     24  O   UNL     1      42.534 -19.864 -33.018  0.00  0.00    -0.463 OA
BRANCH  24  25
ATOM     25  C   UNL     1      41.575 -20.930 -32.851  0.00  0.00    +0.105 C 
BRANCH  25  26
ATOM     26  C   UNL     1      40.151 -20.406 -33.088  0.00  0.00    +0.033 C 
BRANCH  26  27
ATOM     27  N   UNL     1      39.467 -21.052 -34.223  0.00  0.00    -0.299 N 
ATOM     28  C   UNL     1      40.076 -22.350 -34.563  0.00  0.00    -0.001 C 
ATOM     29  C   UNL     1      39.334 -23.028 -35.717  0.00  0.00    -0.040 C 
ATOM     30  C   UNL     1      39.273 -22.129 -36.944  0.00  0.00    -0.051 C 
ATOM     31  C   UNL     1      38.717 -20.762 -36.571  0.00  0.00    -0.040 C 
ATOM     32  C   UNL     1      39.480 -20.155 -35.392  0.00  0.00    -0.001 C 
ATOM     33  H   UNL     1      38.502 -21.233 -33.946  0.00  0.00    +0.000 HD
ENDBRANCH  26  27
ENDBRANCH  25  26
ENDBRANCH  24  25
ENDBRANCH  22  24
ENDBRANCH  21  22
ENDBRANCH  20  21
ENDBRANCH  18  20
ENDBRANCH   1  18
TORSDOF 11
ENDMDL
MODEL 6
REMARK VINA RESULT:    -6.186     16.369     20.176
REMARK INTER + INTRA:         -11.819
REMARK INTER:                 -10.130
REMARK INTRA:                  -1.689
REMARK UNBOUND:                -1.836
REMARK  Name = cpd302.pdb
REMARK  15 active torsions:
REMARK  status: ('A' for Active; 'I' for Inactive)
REMARK    1  A    between atoms: C_1  and  C_2
REMARK    2  A    between atoms: C_2  and  C_3
REMARK    3  A    between atoms: C_2  and  C_20
REMARK    4  A    between atoms: C_3  and  C_4
REMARK    5  A    between atoms: C_4  and  C_5
REMARK    6  A    between atoms: C_6  and  C_7
REMARK    7  A    between atoms: C_7  and  O_8
REMARK    8  A    between atoms: C_12  and  C_13
REMARK    9  A    between atoms: C_12  and  C_14
REMARK   10  A    between atoms: C_18  and  C_19
REMARK   11  A    between atoms: C_20  and  C_21
REMARK   12  A    between atoms: C_21  and  O_23
REMARK   13  A    between atoms: O_23  and  C_24
REMARK   14  A    between atoms: C_24  and  C_25
REMARK   15  A    between atoms: C_25  and  N_26
REMARK                            x       y       z     vdW  Elec       q    Type
REMARK                         _______ _______ _______ _____ _____    ______ ____
ROOT
ATOM      1  C   UNL     1      36.075 -34.371 -30.833  0.00  0.00    -0.046 C 
ENDROOT
BRANCH   1   2
ATOM      2  C   UNL     1      36.745 -35.766 -31.071  0.00  0.00    -0.012 C 
ATOM      3  C   UNL     1      38.279 -35.677 -31.097  0.00  0.00    -0.045 C 
ATOM      4  C   UNL     1      39.037 -36.610 -30.495  0.00  0.00    -0.082 C 
ATOM      5  C   UNL     1      38.521 -37.814 -29.789  0.00  0.00    -0.031 C 
ATOM      6  C   UNL     1      37.049 -38.176 -30.100  0.00  0.00    -0.027 C 
ATOM      7  C   UNL     1      36.518 -39.351 -29.169  0.00  0.00    -0.031 C 
ATOM      8  C   UNL     1      35.628 -40.318 -29.988  0.00  0.00    -0.060 C 
ATOM      9  C   UNL     1      37.660 -40.244 -28.615  0.00  0.00    -0.060 C 
ATOM     10  C   UNL     1      35.704 -38.813 -27.963  0.00  0.00    -0.048 C 
ATOM     11  C   UNL     1      36.140 -37.426 -27.513  0.00  0.00    -0.052 C 
ATOM     12  C   UNL     1      36.071 -36.356 -28.610  0.00  0.00    -0.047 C 
ATOM     13  C   UNL     1      36.162 -36.879 -30.074  0.00  0.00    -0.022 C 
ATOM     14  C   UNL     1      34.729 -37.188 -30.595  0.00  0.00    -0.059 C 
BRANCH   3  15
ATOM     15  C   UNL     1      38.905 -34.557 -31.908  0.00  0.00    +0.066 C 
BRANCH  15  16
ATOM     16  O   UNL     1      40.065 -34.978 -32.616  0.00  0.00    -0.391 OA
ATOM     17  H   UNL     1      40.392 -35.809 -32.237  0.00  0.00    +0.000 HD
ENDBRANCH  15  16
ENDBRANCH   3  15
ENDBRANCH   1   2
BRANCH   1  18
ATOM     18  C   UNL     1      34.704 -34.182 -31.514  0.00  0.00    -0.049 C 
BRANCH  18  20
ATOM     19  C   UNL     1      33.902 -32.685 -29.615  0.00  0.00    -0.062 C 
ATOM     20  C   UNL     1      33.541 -33.838 -30.556  0.00  0.00    -0.034 C 
BRANCH  20  21
ATOM     21  C   UNL     1      32.238 -33.540 -31.327  0.00  0.00    +0.048 C 
BRANCH  21  22
ATOM     22  C   UNL     1      31.344 -34.746 -31.525  0.00  0.00    +0.307 C 
ATOM     23  O   UNL     1      31.532 -35.523 -32.459  0.00  0.00    -0.251 OA
BRANCH  22  24
ATOM     24  O   UNL     1      30.300 -34.935 -30.689  0.00  0.00    -0.463 OA
BRANCH  24  25
ATOM     25  C   UNL     1      30.110 -34.237 -29.439  0.00  0.00    +0.105 C 
BRANCH  25  26
ATOM     26  C   UNL     1      29.550 -35.193 -28.376  0.00  0.00    +0.033 C 
BRANCH  26  27
ATOM     27  N   UNL     1      30.515 -35.516 -27.308  0.00  0.00    -0.299 N 
ATOM     28  C   UNL     1      31.876 -35.705 -27.838  0.00  0.00    -0.001 C 
ATOM     29  C   UNL     1      32.874 -36.002 -26.717  0.00  0.00    -0.040 C 
ATOM     30  C   UNL     1      32.447 -37.212 -25.898  0.00  0.00    -0.051 C 
ATOM     31  C   UNL     1      31.011 -37.048 -25.419  0.00  0.00    -0.040 C 
ATOM     32  C   UNL     1      30.073 -36.720 -26.581  0.00  0.00    -0.001 C 
ATOM     33  H   UNL     1      30.547 -34.725 -26.664  0.00  0.00    +0.000 HD
ENDBRANCH  26  27
ENDBRANCH  25  26
ENDBRANCH  24  25
ENDBRANCH  22  24
ENDBRANCH  21  22
ENDBRANCH  20  21
ENDBRANCH  18  20
ENDBRANCH   1  18
TORSDOF 11
ENDMDL
MODEL 7
REMARK VINA RESULT:    -6.116     17.497     21.571
REMARK INTER + INTRA:         -11.706
REMARK INTER:                  -9.995
REMARK INTRA:                  -1.711
REMARK UNBOUND:                -1.836
REMARK  Name = cpd302.pdb
REMARK  15 active torsions:
REMARK  status: ('A' for Active; 'I' for Inactive)
REMARK    1  A    between atoms: C_1  and  C_2
REMARK    2  A    between atoms: C_2  and  C_3
REMARK    3  A    between atoms: C_2  and  C_20
REMARK    4  A    between atoms: C_3  and  C_4
REMARK    5  A    between atoms: C_4  and  C_5
REMARK    6  A    between atoms: C_6  and  C_7
REMARK    7  A    between atoms: C_7  and  O_8
REMARK    8  A    between atoms: C_12  and  C_13
REMARK    9  A    between atoms: C_12  and  C_14
REMARK   10  A    between atoms: C_18  and  C_19
REMARK   11  A    between atoms: C_20  and  C_21
REMARK   12  A    between atoms: C_21  and  O_23
REMARK   13  A    between atoms: O_23  and  C_24
REMARK   14  A    between atoms: C_24  and  C_25
REMARK   15  A    between atoms: C_25  and  N_26
REMARK                            x       y       z     vdW  Elec       q    Type
REMARK                         _______ _______ _______ _____ _____    ______ ____
ROOT
ATOM      1  C   UNL     1      36.066 -38.195 -30.725  0.00  0.00    -0.046 C 
ENDROOT
BRANCH   1   2
ATOM      2  C   UNL     1      36.008 -36.770 -30.077  0.00  0.00    -0.012 C 
ATOM      3  C   UNL     1      37.051 -35.815 -30.680  0.00  0.00    -0.045 C 
ATOM      4  C   UNL     1      36.742 -34.535 -30.951  0.00  0.00    -0.082 C 
ATOM      5  C   UNL     1      35.427 -33.891 -30.684  0.00  0.00    -0.031 C 
ATOM      6  C   UNL     1      34.508 -34.660 -29.704  0.00  0.00    -0.027 C 
ATOM      7  C   UNL     1      33.058 -34.012 -29.620  0.00  0.00    -0.031 C 
ATOM      8  C   UNL     1      32.550 -34.033 -28.157  0.00  0.00    -0.060 C 
ATOM      9  C   UNL     1      33.044 -32.512 -30.019  0.00  0.00    -0.060 C 
ATOM     10  C   UNL     1      32.037 -34.755 -30.521  0.00  0.00    -0.048 C 
ATOM     11  C   UNL     1      32.671 -35.402 -31.744  0.00  0.00    -0.052 C 
ATOM     12  C   UNL     1      33.790 -36.401 -31.420  0.00  0.00    -0.047 C 
ATOM     13  C   UNL     1      34.512 -36.192 -30.057  0.00  0.00    -0.022 C 
ATOM     14  C   UNL     1      33.772 -37.005 -28.957  0.00  0.00    -0.059 C 
BRANCH   3  15
ATOM     15  C   UNL     1      38.463 -36.341 -30.865  0.00  0.00    +0.066 C 
BRANCH  15  16
ATOM     16  O   UNL     1      38.933 -36.184 -32.199  0.00  0.00    -0.391 OA
ATOM     17  H   UNL     1      39.866 -35.920 -32.184  0.00  0.00    +0.000 HD
ENDBRANCH  15  16
ENDBRANCH   3  15
ENDBRANCH   1   2
BRANCH   1  18
ATOM     18  C   UNL     1      36.357 -39.346 -29.741  0.00  0.00    -0.049 C 
BRANCH  18  20
ATOM     19  C   UNL     1      34.765 -40.883 -31.005  0.00  0.00    -0.062 C 
ATOM     20  C   UNL     1      35.237 -40.406 -29.628  0.00  0.00    -0.034 C 
BRANCH  20  21
ATOM     21  C   UNL     1      35.669 -41.597 -28.746  0.00  0.00    +0.048 C 
BRANCH  21  22
ATOM     22  C   UNL     1      35.081 -41.580 -27.351  0.00  0.00    +0.307 C 
ATOM     23  O   UNL     1      35.184 -42.556 -26.612  0.00  0.00    -0.251 OA
BRANCH  22  24
ATOM     24  O   UNL     1      34.393 -40.492 -26.940  0.00  0.00    -0.463 OA
BRANCH  24  25
ATOM     25  C   UNL     1      33.191 -40.532 -26.140  0.00  0.00    +0.105 C 
BRANCH  25  26
ATOM     26  C   UNL     1      33.503 -40.122 -24.693  0.00  0.00    +0.033 C 
BRANCH  26  27
ATOM     27  N   UNL     1      33.718 -38.673 -24.524  0.00  0.00    -0.299 N 
ATOM     28  C   UNL     1      33.516 -38.249 -23.128  0.00  0.00    -0.001 C 
ATOM     29  C   UNL     1      33.779 -36.751 -22.957  0.00  0.00    -0.040 C 
ATOM     30  C   UNL     1      32.913 -35.924 -23.898  0.00  0.00    -0.051 C 
ATOM     31  C   UNL     1      33.065 -36.418 -25.329  0.00  0.00    -0.040 C 
ATOM     32  C   UNL     1      32.823 -37.925 -25.425  0.00  0.00    -0.001 C 
ATOM     33  H   UNL     1      34.688 -38.470 -24.765  0.00  0.00    +0.000 HD
ENDBRANCH  26  27
ENDBRANCH  25  26
ENDBRANCH  24  25
ENDBRANCH  22  24
ENDBRANCH  21  22
ENDBRANCH  20  21
ENDBRANCH  18  20
ENDBRANCH   1  18
TORSDOF 11
ENDMDL
MODEL 8
REMARK VINA RESULT:    -6.114      2.428      5.737
REMARK INTER + INTRA:         -11.703
REMARK INTER:                  -9.075
REMARK INTRA:                  -2.629
REMARK UNBOUND:                -1.836
REMARK  Name = cpd302.pdb
REMARK  15 active torsions:
REMARK  status: ('A' for Active; 'I' for Inactive)
REMARK    1  A    between atoms: C_1  and  C_2
REMARK    2  A    between atoms: C_2  and  C_3
REMARK    3  A    between atoms: C_2  and  C_20
REMARK    4  A    between atoms: C_3  and  C_4
REMARK    5  A    between atoms: C_4  and  C_5
REMARK    6  A    between atoms: C_6  and  C_7
REMARK    7  A    between atoms: C_7  and  O_8
REMARK    8  A    between atoms: C_12  and  C_13
REMARK    9  A    between atoms: C_12  and  C_14
REMARK   10  A    between atoms: C_18  and  C_19
REMARK   11  A    between atoms: C_20  and  C_21
REMARK   12  A    between atoms: C_21  and  O_23
REMARK   13  A    between atoms: O_23  and  C_24
REMARK   14  A    between atoms: C_24  and  C_25
REMARK   15  A    between atoms: C_25  and  N_26
REMARK                            x       y       z     vdW  Elec       q    Type
REMARK                         _______ _______ _______ _____ _____    ______ ____
ROOT
ATOM      1  C   UNL     1      43.736 -20.737 -39.968  0.00  0.00    -0.046 C 
ENDROOT
BRANCH   1   2
ATOM      2  C   UNL     1      45.116 -20.030 -39.750  0.00  0.00    -0.012 C 
ATOM      3  C   UNL     1      46.228 -20.651 -40.609  0.00  0.00    -0.045 C 
ATOM      4  C   UNL     1      47.137 -19.879 -41.229  0.00  0.00    -0.082 C 
ATOM      5  C   UNL     1      47.209 -18.394 -41.142  0.00  0.00    -0.031 C 
ATOM      6  C   UNL     1      46.409 -17.767 -39.975  0.00  0.00    -0.027 C 
ATOM      7  C   UNL     1      46.379 -16.180 -40.064  0.00  0.00    -0.031 C 
ATOM      8  C   UNL     1      46.528 -15.565 -38.650  0.00  0.00    -0.060 C 
ATOM      9  C   UNL     1      47.570 -15.598 -40.872  0.00  0.00    -0.060 C 
ATOM     10  C   UNL     1      45.066 -15.658 -40.706  0.00  0.00    -0.048 C 
ATOM     11  C   UNL     1      44.454 -16.634 -41.701  0.00  0.00    -0.052 C 
ATOM     12  C   UNL     1      44.146 -18.019 -41.119  0.00  0.00    -0.047 C 
ATOM     13  C   UNL     1      44.989 -18.436 -39.879  0.00  0.00    -0.022 C 
ATOM     14  C   UNL     1      44.258 -17.976 -38.586  0.00  0.00    -0.059 C 
BRANCH   3  15
ATOM     15  C   UNL     1      46.322 -22.166 -40.652  0.00  0.00    +0.066 C 
BRANCH  15  16
ATOM     16  O   UNL     1      45.961 -22.699 -41.921  0.00  0.00    -0.391 OA
ATOM     17  H   UNL     1      45.977 -23.668 -41.882  0.00  0.00    +0.000 HD
ENDBRANCH  15  16
ENDBRANCH   3  15
ENDBRANCH   1   2
BRANCH   1  18
ATOM     18  C   UNL     1      43.202 -21.512 -38.746  0.00  0.00    -0.049 C 
BRANCH  18  20
ATOM     19  C   UNL     1      40.853 -20.627 -39.186  0.00  0.00    -0.062 C 
ATOM     20  C   UNL     1      41.910 -20.937 -38.122  0.00  0.00    -0.034 C 
BRANCH  20  21
ATOM     21  C   UNL     1      41.342 -21.868 -37.029  0.00  0.00    +0.048 C 
BRANCH  21  22
ATOM     22  C   UNL     1      41.378 -21.281 -35.634  0.00  0.00    +0.307 C 
ATOM     23  O   UNL     1      40.940 -21.911 -34.674  0.00  0.00    -0.251 OA
BRANCH  22  24
ATOM     24  O   UNL     1      41.853 -20.028 -35.459  0.00  0.00    -0.463 OA
BRANCH  24  25
ATOM     25  C   UNL     1      42.821 -19.647 -34.459  0.00  0.00    +0.105 C 
BRANCH  25  26
ATOM     26  C   UNL     1      44.179 -20.298 -34.759  0.00  0.00    +0.033 C 
BRANCH  26  27
ATOM     27  N   UNL     1      45.117 -19.406 -35.465  0.00  0.00    -0.299 N 
ATOM     28  C   UNL     1      46.279 -20.140 -35.994  0.00  0.00    -0.001 C 
ATOM     29  C   UNL     1      47.226 -19.211 -36.756  0.00  0.00    -0.040 C 
ATOM     30  C   UNL     1      47.681 -18.046 -35.888  0.00  0.00    -0.051 C 
ATOM     31  C   UNL     1      46.478 -17.339 -35.280  0.00  0.00    -0.040 C 
ATOM     32  C   UNL     1      45.557 -18.327 -34.563  0.00  0.00    -0.001 C 
ATOM     33  H   UNL     1      44.626 -19.001 -36.262  0.00  0.00    +0.000 HD
ENDBRANCH  26  27
ENDBRANCH  25  26
ENDBRANCH  24  25
ENDBRANCH  22  24
ENDBRANCH  21  22
ENDBRANCH  20  21
ENDBRANCH  18  20
ENDBRANCH   1  18
TORSDOF 11
ENDMDL
MODEL 9
REMARK VINA RESULT:    -6.107      2.416      7.241
REMARK INTER + INTRA:         -11.692
REMARK INTER:                  -9.392
REMARK INTRA:                  -2.300
REMARK UNBOUND:                -1.836
REMARK  Name = cpd302.pdb
REMARK  15 active torsions:
REMARK  status: ('A' for Active; 'I' for Inactive)
REMARK    1  A    between atoms: C_1  and  C_2
REMARK    2  A    between atoms: C_2  and  C_3
REMARK    3  A    between atoms: C_2  and  C_20
REMARK    4  A    between atoms: C_3  and  C_4
REMARK    5  A    between atoms: C_4  and  C_5
REMARK    6  A    between atoms: C_6  and  C_7
REMARK    7  A    between atoms: C_7  and  O_8
REMARK    8  A    between atoms: C_12  and  C_13
REMARK    9  A    between atoms: C_12  and  C_14
REMARK   10  A    between atoms: C_18  and  C_19
REMARK   11  A    between atoms: C_20  and  C_21
REMARK   12  A    between atoms: C_21  and  O_23
REMARK   13  A    between atoms: O_23  and  C_24
REMARK   14  A    between atoms: C_24  and  C_25
REMARK   15  A    between atoms: C_25  and  N_26
REMARK                            x       y       z     vdW  Elec       q    Type
REMARK                         _______ _______ _______ _____ _____    ______ ____
ROOT
ATOM      1  C   UNL     1      42.434 -20.258 -36.669  0.00  0.00    -0.046 C 
ENDROOT
BRANCH   1   2
ATOM      2  C   UNL     1      40.934 -20.706 -36.632  0.00  0.00    -0.012 C 
ATOM      3  C   UNL     1      40.729 -22.098 -37.249  0.00  0.00    -0.045 C 
ATOM      4  C   UNL     1      39.899 -22.991 -36.682  0.00  0.00    -0.082 C 
ATOM      5  C   UNL     1      39.079 -22.752 -35.462  0.00  0.00    -0.031 C 
ATOM      6  C   UNL     1      38.917 -21.266 -35.063  0.00  0.00    -0.027 C 
ATOM      7  C   UNL     1      38.196 -21.106 -33.655  0.00  0.00    -0.031 C 
ATOM      8  C   UNL     1      37.207 -19.915 -33.696  0.00  0.00    -0.060 C 
ATOM      9  C   UNL     1      37.318 -22.331 -33.285  0.00  0.00    -0.060 C 
ATOM     10  C   UNL     1      39.212 -20.881 -32.505  0.00  0.00    -0.048 C 
ATOM     11  C   UNL     1      40.566 -21.527 -32.763  0.00  0.00    -0.052 C 
ATOM     12  C   UNL     1      41.248 -21.067 -34.057  0.00  0.00    -0.047 C 
ATOM     13  C   UNL     1      40.301 -20.528 -35.169  0.00  0.00    -0.022 C 
ATOM     14  C   UNL     1      40.117 -18.995 -34.983  0.00  0.00    -0.059 C 
BRANCH   3  15
ATOM     15  C   UNL     1      41.418 -22.392 -38.570  0.00  0.00    +0.066 C 
BRANCH  15  16
ATOM     16  O   UNL     1      40.766 -23.418 -39.309  0.00  0.00    -0.391 OA
ATOM     17  H   UNL     1      41.248 -23.579 -40.135  0.00  0.00    +0.000 HD
ENDBRANCH  15  16
ENDBRANCH   3  15
ENDBRANCH   1   2
BRANCH   1  18
ATOM     18  C   UNL     1      42.681 -18.861 -37.275  0.00  0.00    -0.049 C 
BRANCH  18  20
ATOM     19  C   UNL     1      43.201 -16.529 -36.390  0.00  0.00    -0.062 C 
ATOM     20  C   UNL     1      43.683 -17.979 -36.495  0.00  0.00    -0.034 C 
BRANCH  20  21
ATOM     21  C   UNL     1      43.992 -18.566 -35.101  0.00  0.00    +0.048 C 
BRANCH  21  22
ATOM     22  C   UNL     1      45.421 -19.033 -34.927  0.00  0.00    +0.307 C 
ATOM     23  O   UNL     1      45.715 -19.852 -34.060  0.00  0.00    -0.251 OA
BRANCH  22  24
ATOM     24  O   UNL     1      46.387 -18.498 -35.706  0.00  0.00    -0.463 OA
BRANCH  24  25
ATOM     25  C   UNL     1      47.164 -19.235 -36.675  0.00  0.00    +0.105 C 
BRANCH  25  26
ATOM     26  C   UNL     1      47.149 -18.511 -38.029  0.00  0.00    +0.033 C 
BRANCH  26  27
ATOM     27  N   UNL     1      46.465 -19.268 -39.094  0.00  0.00    -0.299 N 
ATOM     28  C   UNL     1      45.445 -18.454 -39.776  0.00  0.00    -0.001 C 
ATOM     29  C   UNL     1      44.769 -19.237 -40.904  0.00  0.00    -0.040 C 
ATOM     30  C   UNL     1      44.161 -20.536 -40.392  0.00  0.00    -0.051 C 
ATOM     31  C   UNL     1      45.199 -21.337 -39.619  0.00  0.00    -0.040 C 
ATOM     32  C   UNL     1      45.859 -20.488 -38.532  0.00  0.00    -0.001 C 
ATOM     33  H   UNL     1      47.162 -19.527 -39.792  0.00  0.00    +0.000 HD
ENDBRANCH  26  27
ENDBRANCH  25  26
ENDBRANCH  24  25
ENDBRANCH  22  24
ENDBRANCH  21  22
ENDBRANCH  20  21
ENDBRANCH  18  20
ENDBRANCH   1  18
TORSDOF 11
ENDMDL
MODEL 10
REMARK VINA RESULT:    -6.038      1.967      4.688
REMARK INTER + INTRA:         -11.580
REMARK INTER:                  -9.615
REMARK INTRA:                  -1.965
REMARK UNBOUND:                -1.836
REMARK  Name = cpd302.pdb
REMARK  15 active torsions:
REMARK  status: ('A' for Active; 'I' for Inactive)
REMARK    1  A    between atoms: C_1  and  C_2
REMARK    2  A    between atoms: C_2  and  C_3
REMARK    3  A    between atoms: C_2  and  C_20
REMARK    4  A    between atoms: C_3  and  C_4
REMARK    5  A    between atoms: C_4  and  C_5
REMARK    6  A    between atoms: C_6  and  C_7
REMARK    7  A    between atoms: C_7  and  O_8
REMARK    8  A    between atoms: C_12  and  C_13
REMARK    9  A    between atoms: C_12  and  C_14
REMARK   10  A    between atoms: C_18  and  C_19
REMARK   11  A    between atoms: C_20  and  C_21
REMARK   12  A    between atoms: C_21  and  O_23
REMARK   13  A    between atoms: O_23  and  C_24
REMARK   14  A    between atoms: C_24  and  C_25
REMARK   15  A    between atoms: C_25  and  N_26
REMARK                            x       y       z     vdW  Elec       q    Type
REMARK                         _______ _______ _______ _____ _____    ______ ____
ROOT
ATOM      1  C   UNL     1      43.139 -20.903 -36.804  0.00  0.00    -0.046 C 
ENDROOT
BRANCH   1   2
ATOM      2  C   UNL     1      44.105 -19.719 -37.147  0.00  0.00    -0.012 C 
ATOM      3  C   UNL     1      45.427 -19.804 -36.369  0.00  0.00    -0.045 C 
ATOM      4  C   UNL     1      46.600 -19.526 -36.964  0.00  0.00    -0.082 C 
ATOM      5  C   UNL     1      46.766 -19.085 -38.376  0.00  0.00    -0.031 C 
ATOM      6  C   UNL     1      45.475 -18.573 -39.059  0.00  0.00    -0.027 C 
ATOM      7  C   UNL     1      45.692 -18.304 -40.611  0.00  0.00    -0.031 C 
ATOM      8  C   UNL     1      44.944 -17.016 -41.037  0.00  0.00    -0.060 C 
ATOM      9  C   UNL     1      47.177 -18.032 -40.974  0.00  0.00    -0.060 C 
ATOM     10  C   UNL     1      45.196 -19.488 -41.481  0.00  0.00    -0.048 C 
ATOM     11  C   UNL     1      45.284 -20.833 -40.774  0.00  0.00    -0.052 C 
ATOM     12  C   UNL     1      44.513 -20.900 -39.449  0.00  0.00    -0.047 C 
ATOM     13  C   UNL     1      44.278 -19.539 -38.732  0.00  0.00    -0.022 C 
ATOM     14  C   UNL     1      42.936 -18.928 -39.225  0.00  0.00    -0.059 C 
BRANCH   3  15
ATOM     15  C   UNL     1      45.352 -20.116 -34.885  0.00  0.00    +0.066 C 
BRANCH  15  16
ATOM     16  O   UNL     1      46.446 -20.909 -34.438  0.00  0.00    -0.391 OA
ATOM     17  H   UNL     1      46.435 -21.764 -34.896  0.00  0.00    +0.000 HD
ENDBRANCH  15  16
ENDBRANCH   3  15
ENDBRANCH   1   2
BRANCH   1  18
ATOM     18  C   UNL     1      41.725 -20.481 -36.358  0.00  0.00    -0.049 C 
BRANCH  18  20
ATOM     19  C   UNL     1      40.647 -21.671 -38.336  0.00  0.00    -0.062 C 
ATOM     20  C   UNL     1      40.586 -21.415 -36.827  0.00  0.00    -0.034 C 
BRANCH  20  21
ATOM     21  C   UNL     1      40.576 -22.741 -36.038  0.00  0.00    +0.048 C 
BRANCH  21  22
ATOM     22  C   UNL     1      39.423 -22.877 -35.067  0.00  0.00    +0.307 C 
ATOM     23  O   UNL     1      38.734 -23.893 -35.045  0.00  0.00    -0.251 OA
BRANCH  22  24
ATOM     24  O   UNL     1      39.125 -21.841 -34.251  0.00  0.00    -0.463 OA
BRANCH  24  25
ATOM     25  C   UNL     1      39.596 -21.701 -32.894  0.00  0.00    +0.105 C 
BRANCH  25  26
ATOM     26  C   UNL     1      39.225 -20.316 -32.342  0.00  0.00    +0.033 C 
BRANCH  26  27
ATOM     27  N   UNL     1      40.284 -19.307 -32.521  0.00  0.00    -0.299 N 
ATOM     28  C   UNL     1      40.019 -18.433 -33.676  0.00  0.00    -0.001 C 
ATOM     29  C   UNL     1      41.105 -17.366 -33.829  0.00  0.00    -0.040 C 
ATOM     30  C   UNL     1      42.489 -17.992 -33.940  0.00  0.00    -0.051 C 
ATOM     31  C   UNL     1      42.727 -18.956 -32.786  0.00  0.00    -0.040 C 
ATOM     32  C   UNL     1      41.591 -19.973 -32.668  0.00  0.00    -0.001 C 
ATOM     33  H   UNL     1      40.298 -18.716 -31.690  0.00  0.00    +0.000 HD
ENDBRANCH  26  27
ENDBRANCH  25  26
ENDBRANCH  24  25
ENDBRANCH  22  24
ENDBRANCH  21  22
ENDBRANCH  20  21
ENDBRANCH  18  20
ENDBRANCH   1  18
TORSDOF 11
ENDMDL
MODEL 11
REMARK VINA RESULT:    -6.004      2.597      4.110
REMARK INTER + INTRA:         -11.525
REMARK INTER:                  -9.090
REMARK INTRA:                  -2.435
REMARK UNBOUND:                -1.836
REMARK  Name = cpd302.pdb
REMARK  15 active torsions:
REMARK  status: ('A' for Active; 'I' for Inactive)
REMARK    1  A    between atoms: C_1  and  C_2
REMARK    2  A    between atoms: C_2  and  C_3
REMARK    3  A    between atoms: C_2  and  C_20
REMARK    4  A    between atoms: C_3  and  C_4
REMARK    5  A    between atoms: C_4  and  C_5
REMARK    6  A    between atoms: C_6  and  C_7
REMARK    7  A    between atoms: C_7  and  O_8
REMARK    8  A    between atoms: C_12  and  C_13
REMARK    9  A    between atoms: C_12  and  C_14
REMARK   10  A    between atoms: C_18  and  C_19
REMARK   11  A    between atoms: C_20  and  C_21
REMARK   12  A    between atoms: C_21  and  O_23
REMARK   13  A    between atoms: O_23  and  C_24
REMARK   14  A    between atoms: C_24  and  C_25
REMARK   15  A    between atoms: C_25  and  N_26
REMARK                            x       y       z     vdW  Elec       q    Type
REMARK                         _______ _______ _______ _____ _____    ______ ____
ROOT
ATOM      1  C   UNL     1      43.083 -19.817 -36.725  0.00  0.00    -0.046 C 
ENDROOT
BRANCH   1   2
ATOM      2  C   UNL     1      43.353 -20.846 -37.874  0.00  0.00    -0.012 C 
ATOM      3  C   UNL     1      42.059 -21.500 -38.383  0.00  0.00    -0.045 C 
ATOM      4  C   UNL     1      41.857 -21.706 -39.696  0.00  0.00    -0.082 C 
ATOM      5  C   UNL     1      42.826 -21.378 -40.778  0.00  0.00    -0.031 C 
ATOM      6  C   UNL     1      44.279 -21.131 -40.304  0.00  0.00    -0.027 C 
ATOM      7  C   UNL     1      45.205 -20.603 -41.484  0.00  0.00    -0.031 C 
ATOM      8  C   UNL     1      46.606 -21.257 -41.393  0.00  0.00    -0.060 C 
ATOM      9  C   UNL     1      44.677 -20.999 -42.888  0.00  0.00    -0.060 C 
ATOM     10  C   UNL     1      45.364 -19.060 -41.450  0.00  0.00    -0.048 C 
ATOM     11  C   UNL     1      44.162 -18.343 -40.851  0.00  0.00    -0.052 C 
ATOM     12  C   UNL     1      43.811 -18.786 -39.425  0.00  0.00    -0.047 C 
ATOM     13  C   UNL     1      44.276 -20.217 -39.025  0.00  0.00    -0.022 C 
ATOM     14  C   UNL     1      45.702 -20.137 -38.410  0.00  0.00    -0.059 C 
BRANCH   3  15
ATOM     15  C   UNL     1      41.065 -21.994 -37.348  0.00  0.00    +0.066 C 
BRANCH  15  16
ATOM     16  O   UNL     1      41.610 -23.001 -36.504  0.00  0.00    -0.391 OA
ATOM     17  H   UNL     1      40.908 -23.614 -36.235  0.00  0.00    +0.000 HD
ENDBRANCH  15  16
ENDBRANCH   3  15
ENDBRANCH   1   2
BRANCH   1  18
ATOM     18  C   UNL     1      43.711 -20.181 -35.364  0.00  0.00    -0.049 C 
BRANCH  18  20
ATOM     19  C   UNL     1      43.378 -19.174 -33.047  0.00  0.00    -0.062 C 
ATOM     20  C   UNL     1      42.765 -20.042 -34.150  0.00  0.00    -0.034 C 
BRANCH  20  21
ATOM     21  C   UNL     1      41.377 -19.512 -34.568  0.00  0.00    +0.048 C 
BRANCH  21  22
ATOM     22  C   UNL     1      40.236 -20.463 -34.277  0.00  0.00    +0.307 C 
ATOM     23  O   UNL     1      40.453 -21.637 -33.984  0.00  0.00    -0.251 OA
BRANCH  22  24
ATOM     24  O   UNL     1      38.965 -20.019 -34.392  0.00  0.00    -0.463 OA
BRANCH  24  25
ATOM     25  C   UNL     1      38.560 -18.875 -35.175  0.00  0.00    +0.105 C 
BRANCH  25  26
ATOM     26  C   UNL     1      37.673 -19.320 -36.347  0.00  0.00    +0.033 C 
BRANCH  26  27
ATOM     27  N   UNL     1      38.247 -19.015 -37.670  0.00  0.00    -0.299 N 
ATOM     28  C   UNL     1      39.631 -18.522 -37.566  0.00  0.00    -0.001 C 
ATOM     29  C   UNL     1      40.230 -18.245 -38.947  0.00  0.00    -0.040 C 
ATOM     30  C   UNL     1      39.373 -17.267 -39.738  0.00  0.00    -0.051 C 
ATOM     31  C   UNL     1      37.926 -17.740 -39.775  0.00  0.00    -0.040 C 
ATOM     32  C   UNL     1      37.401 -18.031 -38.369  0.00  0.00    -0.001 C 
ATOM     33  H   UNL     1      38.273 -19.881 -38.208  0.00  0.00    +0.000 HD
ENDBRANCH  26  27
ENDBRANCH  25  26
ENDBRANCH  24  25
ENDBRANCH  22  24
ENDBRANCH  21  22
ENDBRANCH  20  21
ENDBRANCH  18  20
ENDBRANCH   1  18
TORSDOF 11
ENDMDL
MODEL 12
REMARK VINA RESULT:    -5.969      2.910      8.767
REMARK INTER + INTRA:         -11.469
REMARK INTER:                  -9.942
REMARK INTRA:                  -1.528
REMARK UNBOUND:                -1.836
REMARK  Name = cpd302.pdb
REMARK  15 active torsions:
REMARK  status: ('A' for Active; 'I' for Inactive)
REMARK    1  A    between atoms: C_1  and  C_2
REMARK    2  A    between atoms: C_2  and  C_3
REMARK    3  A    between atoms: C_2  and  C_20
REMARK    4  A    between atoms: C_3  and  C_4
REMARK    5  A    between atoms: C_4  and  C_5
REMARK    6  A    between atoms: C_6  and  C_7
REMARK    7  A    between atoms: C_7  and  O_8
REMARK    8  A    between atoms: C_12  and  C_13
REMARK    9  A    between atoms: C_12  and  C_14
REMARK   10  A    between atoms: C_18  and  C_19
REMARK   11  A    between atoms: C_20  and  C_21
REMARK   12  A    between atoms: C_21  and  O_23
REMARK   13  A    between atoms: O_23  and  C_24
REMARK   14  A    between atoms: C_24  and  C_25
REMARK   15  A    between atoms: C_25  and  N_26
REMARK                            x       y       z     vdW  Elec       q    Type
REMARK                         _______ _______ _______ _____ _____    ______ ____
ROOT
ATOM      1  C   UNL     1      40.433 -21.624 -34.706  0.00  0.00    -0.046 C 
ENDROOT
BRANCH   1   2
ATOM      2  C   UNL     1      38.901 -21.305 -34.670  0.00  0.00    -0.012 C 
ATOM      3  C   UNL     1      38.125 -22.279 -33.769  0.00  0.00    -0.045 C 
ATOM      4  C   UNL     1      37.149 -21.842 -32.956  0.00  0.00    -0.082 C 
ATOM      5  C   UNL     1      36.683 -20.432 -32.849  0.00  0.00    -0.031 C 
ATOM      6  C   UNL     1      37.113 -19.510 -34.015  0.00  0.00    -0.027 C 
ATOM      7  C   UNL     1      36.743 -17.989 -33.735  0.00  0.00    -0.031 C 
ATOM      8  C   UNL     1      36.234 -17.317 -35.034  0.00  0.00    -0.060 C 
ATOM      9  C   UNL     1      35.574 -17.829 -32.727  0.00  0.00    -0.060 C 
ATOM     10  C   UNL     1      37.955 -17.187 -33.192  0.00  0.00    -0.048 C 
ATOM     11  C   UNL     1      38.938 -18.042 -32.404  0.00  0.00    -0.052 C 
ATOM     12  C   UNL     1      39.506 -19.233 -33.186  0.00  0.00    -0.047 C 
ATOM     13  C   UNL     1      38.627 -19.755 -34.360  0.00  0.00    -0.022 C 
ATOM     14  C   UNL     1      39.017 -19.000 -35.663  0.00  0.00    -0.059 C 
BRANCH   3  15
ATOM     15  C   UNL     1      38.435 -23.760 -33.904  0.00  0.00    +0.066 C 
BRANCH  15  16
ATOM     16  O   UNL     1      39.100 -24.284 -32.761  0.00  0.00    -0.391 OA
ATOM     17  H   UNL     1      38.447 -24.660 -32.150  0.00  0.00    +0.000 HD
ENDBRANCH  15  16
ENDBRANCH   3  15
ENDBRANCH   1   2
BRANCH   1  18
ATOM     18  C   UNL     1      40.960 -22.135 -36.062  0.00  0.00    -0.049 C 
BRANCH  18  20
ATOM     19  C   UNL     1      41.453 -20.559 -38.002  0.00  0.00    -0.062 C 
ATOM     20  C   UNL     1      42.009 -21.225 -36.740  0.00  0.00    -0.034 C 
BRANCH  20  21
ATOM     21  C   UNL     1      42.570 -20.175 -35.758  0.00  0.00    +0.048 C 
BRANCH  21  22
ATOM     22  C   UNL     1      43.898 -19.581 -36.177  0.00  0.00    +0.307 C 
ATOM     23  O   UNL     1      44.166 -18.405 -35.940  0.00  0.00    -0.251 OA
BRANCH  22  24
ATOM     24  O   UNL     1      44.774 -20.347 -36.865  0.00  0.00    -0.463 OA
BRANCH  24  25
ATOM     25  C   UNL     1      45.325 -20.009 -38.156  0.00  0.00    +0.105 C 
BRANCH  25  26
ATOM     26  C   UNL     1      44.898 -21.046 -39.205  0.00  0.00    +0.033 C 
BRANCH  26  27
ATOM     27  N   UNL     1      45.956 -21.368 -40.180  0.00  0.00    -0.299 N 
ATOM     28  C   UNL     1      45.444 -22.180 -41.297  0.00  0.00    -0.001 C 
ATOM     29  C   UNL     1      46.541 -22.476 -42.321  0.00  0.00    -0.040 C 
ATOM     30  C   UNL     1      47.740 -23.155 -41.672  0.00  0.00    -0.051 C 
ATOM     31  C   UNL     1      48.216 -22.352 -40.470  0.00  0.00    -0.040 C 
ATOM     32  C   UNL     1      47.066 -22.063 -39.504  0.00  0.00    -0.001 C 
ATOM     33  H   UNL     1      46.297 -20.491 -40.575  0.00  0.00    +0.000 HD
ENDBRANCH  26  27
ENDBRANCH  25  26
ENDBRANCH  24  25
ENDBRANCH  22  24
ENDBRANCH  21  22
ENDBRANCH  20  21
ENDBRANCH  18  20
ENDBRANCH   1  18
TORSDOF 11
ENDMDL
MODEL 13
REMARK VINA RESULT:    -5.832     16.740     19.799
REMARK INTER + INTRA:         -11.248
REMARK INTER:                  -8.465
REMARK INTRA:                  -2.783
REMARK UNBOUND:                -1.836
REMARK  Name = cpd302.pdb
REMARK  15 active torsions:
REMARK  status: ('A' for Active; 'I' for Inactive)
REMARK    1  A    between atoms: C_1  and  C_2
REMARK    2  A    between atoms: C_2  and  C_3
REMARK    3  A    between atoms: C_2  and  C_20
REMARK    4  A    between atoms: C_3  and  C_4
REMARK    5  A    between atoms: C_4  and  C_5
REMARK    6  A    between atoms: C_6  and  C_7
REMARK    7  A    between atoms: C_7  and  O_8
REMARK    8  A    between atoms: C_12  and  C_13
REMARK    9  A    between atoms: C_12  and  C_14
REMARK   10  A    between atoms: C_18  and  C_19
REMARK   11  A    between atoms: C_20  and  C_21
REMARK   12  A    between atoms: C_21  and  O_23
REMARK   13  A    between atoms: O_23  and  C_24
REMARK   14  A    between atoms: C_24  and  C_25
REMARK   15  A    between atoms: C_25  and  N_26
REMARK                            x       y       z     vdW  Elec       q    Type
REMARK                         _______ _______ _______ _____ _____    ______ ____
ROOT
ATOM      1  C   UNL     1      33.583 -34.394 -31.873  0.00  0.00    -0.046 C 
ENDROOT
BRANCH   1   2
ATOM      2  C   UNL     1      33.599 -35.769 -31.124  0.00  0.00    -0.012 C 
ATOM      3  C   UNL     1      33.266 -36.943 -32.058  0.00  0.00    -0.045 C 
ATOM      4  C   UNL     1      33.941 -38.103 -31.980  0.00  0.00    -0.082 C 
ATOM      5  C   UNL     1      35.022 -38.407 -31.003  0.00  0.00    -0.031 C 
ATOM      6  C   UNL     1      35.096 -37.449 -29.789  0.00  0.00    -0.027 C 
ATOM      7  C   UNL     1      36.385 -37.721 -28.899  0.00  0.00    -0.031 C 
ATOM      8  C   UNL     1      36.030 -37.597 -27.397  0.00  0.00    -0.060 C 
ATOM      9  C   UNL     1      36.932 -39.165 -29.054  0.00  0.00    -0.060 C 
ATOM     10  C   UNL     1      37.537 -36.736 -29.229  0.00  0.00    -0.048 C 
ATOM     11  C   UNL     1      37.517 -36.247 -30.671  0.00  0.00    -0.052 C 
ATOM     12  C   UNL     1      36.210 -35.561 -31.086  0.00  0.00    -0.047 C 
ATOM     13  C   UNL     1      34.945 -35.961 -30.272  0.00  0.00    -0.022 C 
ATOM     14  C   UNL     1      34.799 -35.006 -29.053  0.00  0.00    -0.059 C 
BRANCH   3  15
ATOM     15  C   UNL     1      32.088 -36.780 -33.001  0.00  0.00    +0.066 C 
BRANCH  15  16
ATOM     16  O   UNL     1      31.426 -38.011 -33.266  0.00  0.00    -0.391 OA
ATOM     17  H   UNL     1      30.468 -37.890 -33.177  0.00  0.00    +0.000 HD
ENDBRANCH  15  16
ENDBRANCH   3  15
ENDBRANCH   1   2
BRANCH   1  18
ATOM     18  C   UNL     1      32.406 -33.467 -31.505  0.00  0.00    -0.049 C 
BRANCH  18  20
ATOM     19  C   UNL     1      34.217 -31.766 -30.941  0.00  0.00    -0.062 C 
ATOM     20  C   UNL     1      32.788 -32.235 -30.653  0.00  0.00    -0.034 C 
BRANCH  20  21
ATOM     21  C   UNL     1      31.777 -31.083 -30.836  0.00  0.00    +0.048 C 
BRANCH  21  22
ATOM     22  C   UNL     1      30.649 -31.081 -29.826  0.00  0.00    +0.307 C 
ATOM     23  O   UNL     1      30.877 -30.938 -28.627  0.00  0.00    -0.251 OA
BRANCH  22  24
ATOM     24  O   UNL     1      29.384 -31.291 -30.252  0.00  0.00    -0.463 OA
BRANCH  24  25
ATOM     25  C   UNL     1      28.901 -32.529 -30.815  0.00  0.00    +0.105 C 
BRANCH  25  26
ATOM     26  C   UNL     1      28.651 -33.558 -29.702  0.00  0.00    +0.033 C 
BRANCH  26  27
ATOM     27  N   UNL     1      29.763 -34.508 -29.518  0.00  0.00    -0.299 N 
ATOM     28  C   UNL     1      29.351 -35.894 -29.797  0.00  0.00    -0.001 C 
ATOM     29  C   UNL     1      30.522 -36.867 -29.639  0.00  0.00    -0.040 C 
ATOM     30  C   UNL     1      31.148 -36.764 -28.254  0.00  0.00    -0.051 C 
ATOM     31  C   UNL     1      31.499 -35.317 -27.939  0.00  0.00    -0.040 C 
ATOM     32  C   UNL     1      30.297 -34.395 -28.149  0.00  0.00    -0.001 C 
ATOM     33  H   UNL     1      30.495 -34.269 -30.187  0.00  0.00    +0.000 HD
ENDBRANCH  26  27
ENDBRANCH  25  26
ENDBRANCH  24  25
ENDBRANCH  22  24
ENDBRANCH  21  22
ENDBRANCH  20  21
ENDBRANCH  18  20
ENDBRANCH   1  18
TORSDOF 11
ENDMDL
MODEL 14
REMARK VINA RESULT:    -5.829      2.899      7.243
REMARK INTER + INTRA:         -11.244
REMARK INTER:                  -8.974
REMARK INTRA:                  -2.270
REMARK UNBOUND:                -1.836
REMARK  Name = cpd302.pdb
REMARK  15 active torsions:
REMARK  status: ('A' for Active; 'I' for Inactive)
REMARK    1  A    between atoms: C_1  and  C_2
REMARK    2  A    between atoms: C_2  and  C_3
REMARK    3  A    between atoms: C_2  and  C_20
REMARK    4  A    between atoms: C_3  and  C_4
REMARK    5  A    between atoms: C_4  and  C_5
REMARK    6  A    between atoms: C_6  and  C_7
REMARK    7  A    between atoms: C_7  and  O_8
REMARK    8  A    between atoms: C_12  and  C_13
REMARK    9  A    between atoms: C_12  and  C_14
REMARK   10  A    between atoms: C_18  and  C_19
REMARK   11  A    between atoms: C_20  and  C_21
REMARK   12  A    between atoms: C_21  and  O_23
REMARK   13  A    between atoms: O_23  and  C_24
REMARK   14  A    between atoms: C_24  and  C_25
REMARK   15  A    between atoms: C_25  and  N_26
REMARK                            x       y       z     vdW  Elec       q    Type
REMARK                         _______ _______ _______ _____ _____    ______ ____
ROOT
ATOM      1  C   UNL     1      42.436 -20.505 -37.073  0.00  0.00    -0.046 C 
ENDROOT
BRANCH   1   2
ATOM      2  C   UNL     1      40.900 -20.537 -36.768  0.00  0.00    -0.012 C 
ATOM      3  C   UNL     1      40.216 -21.780 -37.358  0.00  0.00    -0.045 C 
ATOM      4  C   UNL     1      39.284 -22.454 -36.663  0.00  0.00    -0.082 C 
ATOM      5  C   UNL     1      38.786 -22.085 -35.309  0.00  0.00    -0.031 C 
ATOM      6  C   UNL     1      39.109 -20.639 -34.863  0.00  0.00    -0.027 C 
ATOM      7  C   UNL     1      38.715 -20.385 -33.344  0.00  0.00    -0.031 C 
ATOM      8  C   UNL     1      38.100 -18.973 -33.183  0.00  0.00    -0.060 C 
ATOM      9  C   UNL     1      37.612 -21.353 -32.838  0.00  0.00    -0.060 C 
ATOM     10  C   UNL     1      39.937 -20.516 -32.397  0.00  0.00    -0.048 C 
ATOM     11  C   UNL     1      40.995 -21.483 -32.910  0.00  0.00    -0.052 C 
ATOM     12  C   UNL     1      41.543 -21.137 -34.301  0.00  0.00    -0.047 C 
ATOM     13  C   UNL     1      40.603 -20.293 -35.210  0.00  0.00    -0.022 C 
ATOM     14  C   UNL     1      40.882 -18.783 -34.970  0.00  0.00    -0.059 C 
BRANCH   3  15
ATOM     15  C   UNL     1      40.559 -22.160 -38.788  0.00  0.00    +0.066 C 
BRANCH  15  16
ATOM     16  O   UNL     1      41.343 -23.345 -38.865  0.00  0.00    -0.391 OA
ATOM     17  H   UNL     1      42.278 -23.123 -38.734  0.00  0.00    +0.000 HD
ENDBRANCH  15  16
ENDBRANCH   3  15
ENDBRANCH   1   2
BRANCH   1  18
ATOM     18  C   UNL     1      42.882 -19.400 -38.052  0.00  0.00    -0.049 C 
BRANCH  18  20
ATOM     19  C   UNL     1      43.392 -20.410 -40.334  0.00  0.00    -0.062 C 
ATOM     20  C   UNL     1      43.984 -19.818 -39.051  0.00  0.00    -0.034 C 
BRANCH  20  21
ATOM     21  C   UNL     1      44.939 -18.648 -39.368  0.00  0.00    +0.048 C 
BRANCH  21  22
ATOM     22  C   UNL     1      46.400 -18.953 -39.115  0.00  0.00    +0.307 C 
ATOM     23  O   UNL     1      46.820 -20.107 -39.167  0.00  0.00    -0.251 OA
BRANCH  22  24
ATOM     24  O   UNL     1      47.234 -17.945 -38.779  0.00  0.00    -0.463 OA
BRANCH  24  25
ATOM     25  C   UNL     1      46.931 -16.913 -37.816  0.00  0.00    +0.105 C 
BRANCH  25  26
ATOM     26  C   UNL     1      47.192 -17.423 -36.391  0.00  0.00    +0.033 C 
BRANCH  26  27
ATOM     27  N   UNL     1      46.002 -18.009 -35.747  0.00  0.00    -0.299 N 
ATOM     28  C   UNL     1      45.560 -17.216 -34.588  0.00  0.00    -0.001 C 
ATOM     29  C   UNL     1      44.303 -17.812 -33.951  0.00  0.00    -0.040 C 
ATOM     30  C   UNL     1      44.517 -19.266 -33.553  0.00  0.00    -0.051 C 
ATOM     31  C   UNL     1      45.050 -20.065 -34.734  0.00  0.00    -0.040 C 
ATOM     32  C   UNL     1      46.284 -19.398 -35.344  0.00  0.00    -0.001 C 
ATOM     33  H   UNL     1      45.242 -18.002 -36.427  0.00  0.00    +0.000 HD
ENDBRANCH  26  27
ENDBRANCH  25  26
ENDBRANCH  24  25
ENDBRANCH  22  24
ENDBRANCH  21  22
ENDBRANCH  20  21
ENDBRANCH  18  20
ENDBRANCH   1  18
TORSDOF 11
ENDMDL
MODEL 15
REMARK VINA RESULT:    -5.794      2.883      5.256
REMARK INTER + INTRA:         -11.186
REMARK INTER:                  -9.171
REMARK INTRA:                  -2.015
REMARK UNBOUND:                -1.836
REMARK  Name = cpd302.pdb
REMARK  15 active torsions:
REMARK  status: ('A' for Active; 'I' for Inactive)
REMARK    1  A    between atoms: C_1  and  C_2
REMARK    2  A    between atoms: C_2  and  C_3
REMARK    3  A    between atoms: C_2  and  C_20
REMARK    4  A    between atoms: C_3  and  C_4
REMARK    5  A    between atoms: C_4  and  C_5
REMARK    6  A    between atoms: C_6  and  C_7
REMARK    7  A    between atoms: C_7  and  O_8
REMARK    8  A    between atoms: C_12  and  C_13
REMARK    9  A    between atoms: C_12  and  C_14
REMARK   10  A    between atoms: C_18  and  C_19
REMARK   11  A    between atoms: C_20  and  C_21
REMARK   12  A    between atoms: C_21  and  O_23
REMARK   13  A    between atoms: O_23  and  C_24
REMARK   14  A    between atoms: C_24  and  C_25
REMARK   15  A    between atoms: C_25  and  N_26
REMARK                            x       y       z     vdW  Elec       q    Type
REMARK                         _______ _______ _______ _____ _____    ______ ____
ROOT
ATOM      1  C   UNL     1      41.942 -19.427 -37.806  0.00  0.00    -0.046 C 
ENDROOT
BRANCH   1   2
ATOM      2  C   UNL     1      42.403 -20.667 -38.644  0.00  0.00    -0.012 C 
ATOM      3  C   UNL     1      41.233 -21.334 -39.386  0.00  0.00    -0.045 C 
ATOM      4  C   UNL     1      41.373 -21.771 -40.649  0.00  0.00    -0.082 C 
ATOM      5  C   UNL     1      42.628 -21.706 -41.449  0.00  0.00    -0.031 C 
ATOM      6  C   UNL     1      43.916 -21.454 -40.628  0.00  0.00    -0.027 C 
ATOM      7  C   UNL     1      45.176 -21.209 -41.566  0.00  0.00    -0.031 C 
ATOM      8  C   UNL     1      46.424 -21.910 -40.974  0.00  0.00    -0.060 C 
ATOM      9  C   UNL     1      45.009 -21.832 -42.977  0.00  0.00    -0.060 C 
ATOM     10  C   UNL     1      45.482 -19.698 -41.744  0.00  0.00    -0.048 C 
ATOM     11  C   UNL     1      44.245 -18.817 -41.638  0.00  0.00    -0.052 C 
ATOM     12  C   UNL     1      43.478 -18.964 -40.318  0.00  0.00    -0.047 C 
ATOM     13  C   UNL     1      43.664 -20.317 -39.572  0.00  0.00    -0.022 C 
ATOM     14  C   UNL     1      44.871 -20.201 -38.599  0.00  0.00    -0.059 C 
BRANCH   3  15
ATOM     15  C   UNL     1      39.950 -21.568 -38.609  0.00  0.00    +0.066 C 
BRANCH  15  16
ATOM     16  O   UNL     1      39.876 -22.879 -38.061  0.00  0.00    -0.391 OA
ATOM     17  H   UNL     1      40.138 -22.855 -37.127  0.00  0.00    +0.000 HD
ENDBRANCH  15  16
ENDBRANCH   3  15
ENDBRANCH   1   2
BRANCH   1  18
ATOM     18  C   UNL     1      42.056 -19.596 -36.277  0.00  0.00    -0.049 C 
BRANCH  18  20
ATOM     19  C   UNL     1      41.953 -17.241 -35.310  0.00  0.00    -0.062 C 
ATOM     20  C   UNL     1      42.831 -18.473 -35.552  0.00  0.00    -0.034 C 
BRANCH  20  21
ATOM     21  C   UNL     1      43.460 -18.974 -34.235  0.00  0.00    +0.048 C 
BRANCH  21  22
ATOM     22  C   UNL     1      44.946 -19.247 -34.322  0.00  0.00    +0.307 C 
ATOM     23  O   UNL     1      45.418 -20.307 -33.916  0.00  0.00    -0.251 OA
BRANCH  22  24
ATOM     24  O   UNL     1      45.764 -18.286 -34.806  0.00  0.00    -0.463 OA
BRANCH  24  25
ATOM     25  C   UNL     1      46.448 -18.351 -36.076  0.00  0.00    +0.105 C 
BRANCH  25  26
ATOM     26  C   UNL     1      47.178 -17.029 -36.354  0.00  0.00    +0.033 C 
BRANCH  26  27
ATOM     27  N   UNL     1      46.511 -16.188 -37.365  0.00  0.00    -0.299 N 
ATOM     28  C   UNL     1      45.134 -16.640 -37.631  0.00  0.00    -0.001 C 
ATOM     29  C   UNL     1      44.439 -15.737 -38.652  0.00  0.00    -0.040 C 
ATOM     30  C   UNL     1      45.232 -15.649 -39.949  0.00  0.00    -0.051 C 
ATOM     31  C   UNL     1      46.675 -15.259 -39.661  0.00  0.00    -0.040 C 
ATOM     32  C   UNL     1      47.300 -16.178 -38.610  0.00  0.00    -0.001 C 
ATOM     33  H   UNL     1      46.452 -15.239 -36.994  0.00  0.00    +0.000 HD
ENDBRANCH  26  27
ENDBRANCH  25  26
ENDBRANCH  24  25
ENDBRANCH  22  24
ENDBRANCH  21  22
ENDBRANCH  20  21
ENDBRANCH  18  20
ENDBRANCH   1  18
TORSDOF 11
ENDMDL
MODEL 16
REMARK VINA RESULT:    -5.747      2.242      4.671
REMARK INTER + INTRA:         -11.111
REMARK INTER:                  -8.959
REMARK INTRA:                  -2.152
REMARK UNBOUND:                -1.836
REMARK  Name = cpd302.pdb
REMARK  15 active torsions:
REMARK  status: ('A' for Active; 'I' for Inactive)
REMARK    1  A    between atoms: C_1  and  C_2
REMARK    2  A    between atoms: C_2  and  C_3
REMARK    3  A    between atoms: C_2  and  C_20
REMARK    4  A    between atoms: C_3  and  C_4
REMARK    5  A    between atoms: C_4  and  C_5
REMARK    6  A    between atoms: C_6  and  C_7
REMARK    7  A    between atoms: C_7  and  O_8
REMARK    8  A    between atoms: C_12  and  C_13
REMARK    9  A    between atoms: C_12  and  C_14
REMARK   10  A    between atoms: C_18  and  C_19
REMARK   11  A    between atoms: C_20  and  C_21
REMARK   12  A    between atoms: C_21  and  O_23
REMARK   13  A    between atoms: O_23  and  C_24
REMARK   14  A    between atoms: C_24  and  C_25
REMARK   15  A    between atoms: C_25  and  N_26
REMARK                            x       y       z     vdW  Elec       q    Type
REMARK                         _______ _______ _______ _____ _____    ______ ____
ROOT
ATOM      1  C   UNL     1      42.985 -19.622 -36.525  0.00  0.00    -0.046 C 
ENDROOT
BRANCH   1   2
ATOM      2  C   UNL     1      43.353 -20.691 -37.608  0.00  0.00    -0.012 C 
ATOM      3  C   UNL     1      42.143 -21.084 -38.470  0.00  0.00    -0.045 C 
ATOM      4  C   UNL     1      42.265 -21.255 -39.798  0.00  0.00    -0.082 C 
ATOM      5  C   UNL     1      43.533 -21.130 -40.569  0.00  0.00    -0.031 C 
ATOM      6  C   UNL     1      44.825 -21.168 -39.718  0.00  0.00    -0.027 C 
ATOM      7  C   UNL     1      46.115 -20.838 -40.586  0.00  0.00    -0.031 C 
ATOM      8  C   UNL     1      47.291 -21.752 -40.159  0.00  0.00    -0.060 C 
ATOM      9  C   UNL     1      45.918 -21.133 -42.096  0.00  0.00    -0.060 C 
ATOM     10  C   UNL     1      46.549 -19.356 -40.441  0.00  0.00    -0.048 C 
ATOM     11  C   UNL     1      45.390 -18.415 -40.148  0.00  0.00    -0.052 C 
ATOM     12  C   UNL     1      44.592 -18.771 -38.887  0.00  0.00    -0.047 C 
ATOM     13  C   UNL     1      44.653 -20.262 -38.444  0.00  0.00    -0.022 C 
ATOM     14  C   UNL     1      45.851 -20.457 -37.472  0.00  0.00    -0.059 C 
BRANCH   3  15
ATOM     15  C   UNL     1      40.833 -21.367 -37.757  0.00  0.00    +0.066 C 
BRANCH  15  16
ATOM     16  O   UNL     1      40.613 -22.758 -37.552  0.00  0.00    -0.391 OA
ATOM     17  H   UNL     1      41.402 -23.155 -37.150  0.00  0.00    +0.000 HD
ENDBRANCH  15  16
ENDBRANCH   3  15
ENDBRANCH   1   2
BRANCH   1  18
ATOM     18  C   UNL     1      42.938 -20.151 -35.077  0.00  0.00    -0.049 C 
BRANCH  18  20
ATOM     19  C   UNL     1      40.848 -19.418 -33.818  0.00  0.00    -0.062 C 
ATOM     20  C   UNL     1      42.342 -19.169 -34.042  0.00  0.00    -0.034 C 
BRANCH  20  21
ATOM     21  C   UNL     1      43.119 -19.207 -32.709  0.00  0.00    +0.048 C 
BRANCH  21  22
ATOM     22  C   UNL     1      43.869 -17.931 -32.392  0.00  0.00    +0.307 C 
ATOM     23  O   UNL     1      44.989 -17.967 -31.888  0.00  0.00    -0.251 OA
BRANCH  22  24
ATOM     24  O   UNL     1      43.270 -16.741 -32.621  0.00  0.00    -0.463 OA
BRANCH  24  25
ATOM     25  C   UNL     1      43.889 -15.626 -33.298  0.00  0.00    +0.105 C 
BRANCH  25  26
ATOM     26  C   UNL     1      43.910 -15.869 -34.814  0.00  0.00    +0.033 C 
BRANCH  26  27
ATOM     27  N   UNL     1      45.266 -15.854 -35.394  0.00  0.00    -0.299 N 
ATOM     28  C   UNL     1      45.276 -15.272 -36.747  0.00  0.00    -0.001 C 
ATOM     29  C   UNL     1      46.693 -15.227 -37.323  0.00  0.00    -0.040 C 
ATOM     30  C   UNL     1      47.335 -16.607 -37.331  0.00  0.00    -0.051 C 
ATOM     31  C   UNL     1      47.251 -17.238 -35.948  0.00  0.00    -0.040 C 
ATOM     32  C   UNL     1      45.817 -17.221 -35.417  0.00  0.00    -0.001 C 
ATOM     33  H   UNL     1      45.853 -15.263 -34.805  0.00  0.00    +0.000 HD
ENDBRANCH  26  27
ENDBRANCH  25  26
ENDBRANCH  24  25
ENDBRANCH  22  24
ENDBRANCH  21  22
ENDBRANCH  20  21
ENDBRANCH  18  20
ENDBRANCH   1  18
TORSDOF 11
ENDMDL
MODEL 17
REMARK VINA RESULT:    -5.687      1.744      3.138
REMARK INTER + INTRA:         -11.015
REMARK INTER:                  -8.710
REMARK INTRA:                  -2.305
REMARK UNBOUND:                -1.836
REMARK  Name = cpd302.pdb
REMARK  15 active torsions:
REMARK  status: ('A' for Active; 'I' for Inactive)
REMARK    1  A    between atoms: C_1  and  C_2
REMARK    2  A    between atoms: C_2  and  C_3
REMARK    3  A    between atoms: C_2  and  C_20
REMARK    4  A    between atoms: C_3  and  C_4
REMARK    5  A    between atoms: C_4  and  C_5
REMARK    6  A    between atoms: C_6  and  C_7
REMARK    7  A    between atoms: C_7  and  O_8
REMARK    8  A    between atoms: C_12  and  C_13
REMARK    9  A    between atoms: C_12  and  C_14
REMARK   10  A    between atoms: C_18  and  C_19
REMARK   11  A    between atoms: C_20  and  C_21
REMARK   12  A    between atoms: C_21  and  O_23
REMARK   13  A    between atoms: O_23  and  C_24
REMARK   14  A    between atoms: C_24  and  C_25
REMARK   15  A    between atoms: C_25  and  N_26
REMARK                            x       y       z     vdW  Elec       q    Type
REMARK                         _______ _______ _______ _____ _____    ______ ____
ROOT
ATOM      1  C   UNL     1      43.816 -17.999 -36.648  0.00  0.00    -0.046 C 
ENDROOT
BRANCH   1   2
ATOM      2  C   UNL     1      44.855 -18.517 -37.698  0.00  0.00    -0.012 C 
ATOM      3  C   UNL     1      45.937 -19.401 -37.058  0.00  0.00    -0.045 C 
ATOM      4  C   UNL     1      46.367 -20.520 -37.665  0.00  0.00    -0.082 C 
ATOM      5  C   UNL     1      45.903 -21.012 -38.992  0.00  0.00    -0.031 C 
ATOM      6  C   UNL     1      45.161 -19.964 -39.856  0.00  0.00    -0.027 C 
ATOM      7  C   UNL     1      44.534 -20.614 -41.166  0.00  0.00    -0.031 C 
ATOM      8  C   UNL     1      44.708 -19.655 -42.370  0.00  0.00    -0.060 C 
ATOM      9  C   UNL     1      45.256 -21.918 -41.596  0.00  0.00    -0.060 C 
ATOM     10  C   UNL     1      43.027 -20.937 -40.990  0.00  0.00    -0.048 C 
ATOM     11  C   UNL     1      42.642 -21.248 -39.550  0.00  0.00    -0.052 C 
ATOM     12  C   UNL     1      42.979 -20.132 -38.553  0.00  0.00    -0.047 C 
ATOM     13  C   UNL     1      44.131 -19.173 -38.971  0.00  0.00    -0.022 C 
ATOM     14  C   UNL     1      43.535 -17.977 -39.766  0.00  0.00    -0.059 C 
BRANCH   3  15
ATOM     15  C   UNL     1      46.570 -18.913 -35.767  0.00  0.00    +0.066 C 
BRANCH  15  16
ATOM     16  O   UNL     1      46.247 -19.740 -34.654  0.00  0.00    -0.391 OA
ATOM     17  H   UNL     1      46.079 -19.184 -33.877  0.00  0.00    +0.000 HD
ENDBRANCH  15  16
ENDBRANCH   3  15
ENDBRANCH   1   2
BRANCH   1  18
ATOM     18  C   UNL     1      43.926 -16.498 -36.310  0.00  0.00    -0.049 C 
BRANCH  18  20
ATOM     19  C   UNL     1      44.234 -14.681 -34.550  0.00  0.00    -0.062 C 
ATOM     20  C   UNL     1      44.283 -16.184 -34.839  0.00  0.00    -0.034 C 
BRANCH  20  21
ATOM     21  C   UNL     1      43.387 -16.969 -33.857  0.00  0.00    +0.048 C 
BRANCH  21  22
ATOM     22  C   UNL     1      44.128 -17.994 -33.025  0.00  0.00    +0.307 C 
ATOM     23  O   UNL     1      45.230 -17.738 -32.545  0.00  0.00    -0.251 OA
BRANCH  22  24
ATOM     24  O   UNL     1      43.586 -19.220 -32.856  0.00  0.00    -0.463 OA
BRANCH  24  25
ATOM     25  C   UNL     1      42.198 -19.545 -33.088  0.00  0.00    +0.105 C 
BRANCH  25  26
ATOM     26  C   UNL     1      42.082 -20.894 -33.814  0.00  0.00    +0.033 C 
BRANCH  26  27
ATOM     27  N   UNL     1      40.919 -20.979 -34.716  0.00  0.00    -0.299 N 
ATOM     28  C   UNL     1      41.060 -22.075 -35.690  0.00  0.00    -0.001 C 
ATOM     29  C   UNL     1      39.832 -22.178 -36.595  0.00  0.00    -0.040 C 
ATOM     30  C   UNL     1      39.554 -20.862 -37.309  0.00  0.00    -0.051 C 
ATOM     31  C   UNL     1      39.488 -19.720 -36.306  0.00  0.00    -0.040 C 
ATOM     32  C   UNL     1      40.728 -19.694 -35.412  0.00  0.00    -0.001 C 
ATOM     33  H   UNL     1      40.096 -21.182 -34.149  0.00  0.00    +0.000 HD
ENDBRANCH  26  27
ENDBRANCH  25  26
ENDBRANCH  24  25
ENDBRANCH  22  24
ENDBRANCH  21  22
ENDBRANCH  20  21
ENDBRANCH  18  20
ENDBRANCH   1  18
TORSDOF 11
ENDMDL
MODEL 18
REMARK VINA RESULT:    -5.631      2.309      4.392
REMARK INTER + INTRA:         -10.923
REMARK INTER:                  -8.559
REMARK INTRA:                  -2.364
REMARK UNBOUND:                -1.836
REMARK  Name = cpd302.pdb
REMARK  15 active torsions:
REMARK  status: ('A' for Active; 'I' for Inactive)
REMARK    1  A    between atoms: C_1  and  C_2
REMARK    2  A    between atoms: C_2  and  C_3
REMARK    3  A    between atoms: C_2  and  C_20
REMARK    4  A    between atoms: C_3  and  C_4
REMARK    5  A    between atoms: C_4  and  C_5
REMARK    6  A    between atoms: C_6  and  C_7
REMARK    7  A    between atoms: C_7  and  O_8
REMARK    8  A    between atoms: C_12  and  C_13
REMARK    9  A    between atoms: C_12  and  C_14
REMARK   10  A    between atoms: C_18  and  C_19
REMARK   11  A    between atoms: C_20  and  C_21
REMARK   12  A    between atoms: C_21  and  O_23
REMARK   13  A    between atoms: O_23  and  C_24
REMARK   14  A    between atoms: C_24  and  C_25
REMARK   15  A    between atoms: C_25  and  N_26
REMARK                            x       y       z     vdW  Elec       q    Type
REMARK                         _______ _______ _______ _____ _____    ______ ____
ROOT
ATOM      1  C   UNL     1      44.759 -19.588 -34.626  0.00  0.00    -0.046 C 
ENDROOT
BRANCH   1   2
ATOM      2  C   UNL     1      45.234 -18.764 -35.870  0.00  0.00    -0.012 C 
ATOM      3  C   UNL     1      46.732 -18.950 -36.153  0.00  0.00    -0.045 C 
ATOM      4  C   UNL     1      47.188 -19.089 -37.410  0.00  0.00    -0.082 C 
ATOM      5  C   UNL     1      46.349 -19.046 -38.639  0.00  0.00    -0.031 C 
ATOM      6  C   UNL     1      44.938 -18.440 -38.449  0.00  0.00    -0.027 C 
ATOM      7  C   UNL     1      44.042 -18.603 -39.753  0.00  0.00    -0.031 C 
ATOM      8  C   UNL     1      43.203 -17.323 -39.985  0.00  0.00    -0.060 C 
ATOM      9  C   UNL     1      44.884 -18.762 -41.047  0.00  0.00    -0.060 C 
ATOM     10  C   UNL     1      43.087 -19.822 -39.652  0.00  0.00    -0.048 C 
ATOM     11  C   UNL     1      43.633 -20.944 -38.780  0.00  0.00    -0.052 C 
ATOM     12  C   UNL     1      43.968 -20.520 -37.344  0.00  0.00    -0.047 C 
ATOM     13  C   UNL     1      44.283 -19.010 -37.138  0.00  0.00    -0.022 C 
ATOM     14  C   UNL     1      42.963 -18.253 -36.816  0.00  0.00    -0.059 C 
BRANCH   3  15
ATOM     15  C   UNL     1      47.686 -18.874 -34.974  0.00  0.00    +0.066 C 
BRANCH  15  16
ATOM     16  O   UNL     1      48.228 -20.143 -34.628  0.00  0.00    -0.391 OA
ATOM     17  H   UNL     1      49.103 -20.023 -34.225  0.00  0.00    +0.000 HD
ENDBRANCH  15  16
ENDBRANCH   3  15
ENDBRANCH   1   2
BRANCH   1  18
ATOM     18  C   UNL     1      44.325 -18.742 -33.411  0.00  0.00    -0.049 C 
BRANCH  18  20
ATOM     19  C   UNL     1      42.015 -17.728 -33.055  0.00  0.00    -0.062 C 
ATOM     20  C   UNL     1      42.878 -18.987 -32.928  0.00  0.00    -0.034 C 
BRANCH  20  21
ATOM     21  C   UNL     1      42.229 -20.182 -33.660  0.00  0.00    +0.048 C 
BRANCH  21  22
ATOM     22  C   UNL     1      41.249 -20.968 -32.816  0.00  0.00    +0.307 C 
ATOM     23  O   UNL     1      41.551 -22.070 -32.362  0.00  0.00    -0.251 OA
BRANCH  22  24
ATOM     24  O   UNL     1      40.012 -20.467 -32.607  0.00  0.00    -0.463 OA
BRANCH  24  25
ATOM     25  C   UNL     1      38.864 -20.734 -33.442  0.00  0.00    +0.105 C 
BRANCH  25  26
ATOM     26  C   UNL     1      38.666 -19.594 -34.452  0.00  0.00    +0.033 C 
BRANCH  26  27
ATOM     27  N   UNL     1      38.644 -20.046 -35.855  0.00  0.00    -0.299 N 
ATOM     28  C   UNL     1      39.260 -21.375 -36.012  0.00  0.00    -0.001 C 
ATOM     29  C   UNL     1      39.198 -21.850 -37.465  0.00  0.00    -0.040 C 
ATOM     30  C   UNL     1      39.848 -20.846 -38.407  0.00  0.00    -0.051 C 
ATOM     31  C   UNL     1      39.263 -19.458 -38.185  0.00  0.00    -0.040 C 
ATOM     32  C   UNL     1      39.326 -19.058 -36.711  0.00  0.00    -0.001 C 
ATOM     33  H   UNL     1      37.669 -20.128 -36.144  0.00  0.00    +0.000 HD
ENDBRANCH  26  27
ENDBRANCH  25  26
ENDBRANCH  24  25
ENDBRANCH  22  24
ENDBRANCH  21  22
ENDBRANCH  20  21
ENDBRANCH  18  20
ENDBRANCH   1  18
TORSDOF 11
ENDMDL
MODEL 19
REMARK VINA RESULT:    -5.575      2.956      8.071
REMARK INTER + INTRA:         -10.834
REMARK INTER:                  -9.857
REMARK INTRA:                  -0.976
REMARK UNBOUND:                -1.836
REMARK  Name = cpd302.pdb
REMARK  15 active torsions:
REMARK  status: ('A' for Active; 'I' for Inactive)
REMARK    1  A    between atoms: C_1  and  C_2
REMARK    2  A    between atoms: C_2  and  C_3
REMARK    3  A    between atoms: C_2  and  C_20
REMARK    4  A    between atoms: C_3  and  C_4
REMARK    5  A    between atoms: C_4  and  C_5
REMARK    6  A    between atoms: C_6  and  C_7
REMARK    7  A    between atoms: C_7  and  O_8
REMARK    8  A    between atoms: C_12  and  C_13
REMARK    9  A    between atoms: C_12  and  C_14
REMARK   10  A    between atoms: C_18  and  C_19
REMARK   11  A    between atoms: C_20  and  C_21
REMARK   12  A    between atoms: C_21  and  O_23
REMARK   13  A    between atoms: O_23  and  C_24
REMARK   14  A    between atoms: C_24  and  C_25
REMARK   15  A    between atoms: C_25  and  N_26
REMARK                            x       y       z     vdW  Elec       q    Type
REMARK                         _______ _______ _______ _____ _____    ______ ____
ROOT
ATOM      1  C   UNL     1      41.883 -19.777 -36.962  0.00  0.00    -0.046 C 
ENDROOT
BRANCH   1   2
ATOM      2  C   UNL     1      40.392 -20.166 -36.680  0.00  0.00    -0.012 C 
ATOM      3  C   UNL     1      40.023 -21.529 -37.287  0.00  0.00    -0.045 C 
ATOM      4  C   UNL     1      39.263 -22.406 -36.609  0.00  0.00    -0.082 C 
ATOM      5  C   UNL     1      38.675 -22.174 -35.261  0.00  0.00    -0.031 C 
ATOM      6  C   UNL     1      38.648 -20.696 -34.802  0.00  0.00    -0.027 C 
ATOM      7  C   UNL     1      38.186 -20.554 -33.288  0.00  0.00    -0.031 C 
ATOM      8  C   UNL     1      37.259 -19.323 -33.128  0.00  0.00    -0.060 C 
ATOM      9  C   UNL     1      37.330 -21.755 -32.803  0.00  0.00    -0.060 C 
ATOM     10  C   UNL     1      39.392 -20.406 -32.324  0.00  0.00    -0.048 C 
ATOM     11  C   UNL     1      40.652 -21.097 -32.826  0.00  0.00    -0.052 C 
ATOM     12  C   UNL     1      41.124 -20.622 -34.206  0.00  0.00    -0.047 C 
ATOM     13  C   UNL     1      40.026 -20.011 -35.125  0.00  0.00    -0.022 C 
ATOM     14  C   UNL     1      39.944 -18.479 -34.873  0.00  0.00    -0.059 C 
BRANCH   3  15
ATOM     15  C   UNL     1      40.463 -21.806 -38.713  0.00  0.00    +0.066 C 
BRANCH  15  16
ATOM     16  O   UNL     1      41.209 -23.012 -38.829  0.00  0.00    -0.391 OA
ATOM     17  H   UNL     1      42.042 -22.926 -38.339  0.00  0.00    +0.000 HD
ENDBRANCH  15  16
ENDBRANCH   3  15
ENDBRANCH   1   2
BRANCH   1  18
ATOM     18  C   UNL     1      42.073 -18.551 -37.879  0.00  0.00    -0.049 C 
BRANCH  18  20
ATOM     19  C   UNL     1      43.593 -17.212 -39.424  0.00  0.00    -0.062 C 
ATOM     20  C   UNL     1      43.519 -18.324 -38.373  0.00  0.00    -0.034 C 
BRANCH  20  21
ATOM     21  C   UNL     1      44.484 -18.045 -37.200  0.00  0.00    +0.048 C 
BRANCH  21  22
ATOM     22  C   UNL     1      45.854 -18.668 -37.362  0.00  0.00    +0.307 C 
ATOM     23  O   UNL     1      46.832 -17.976 -37.636  0.00  0.00    -0.251 OA
BRANCH  22  24
ATOM     24  O   UNL     1      45.984 -20.008 -37.253  0.00  0.00    -0.463 OA
BRANCH  24  25
ATOM     25  C   UNL     1      46.012 -20.926 -38.367  0.00  0.00    +0.105 C 
BRANCH  25  26
ATOM     26  C   UNL     1      47.283 -20.711 -39.201  0.00  0.00    +0.033 C 
BRANCH  26  27
ATOM     27  N   UNL     1      47.184 -21.240 -40.574  0.00  0.00    -0.299 N 
ATOM     28  C   UNL     1      45.783 -21.397 -41.000  0.00  0.00    -0.001 C 
ATOM     29  C   UNL     1      45.692 -21.910 -42.439  0.00  0.00    -0.040 C 
ATOM     30  C   UNL     1      46.453 -23.218 -42.612  0.00  0.00    -0.051 C 
ATOM     31  C   UNL     1      47.878 -23.073 -42.096  0.00  0.00    -0.040 C 
ATOM     32  C   UNL     1      47.898 -22.525 -40.669  0.00  0.00    -0.001 C 
ATOM     33  H   UNL     1      47.618 -20.565 -41.203  0.00  0.00    +0.000 HD
ENDBRANCH  26  27
ENDBRANCH  25  26
ENDBRANCH  24  25
ENDBRANCH  22  24
ENDBRANCH  21  22
ENDBRANCH  20  21
ENDBRANCH  18  20
ENDBRANCH   1  18
TORSDOF 11
ENDMDL
MODEL 20
REMARK VINA RESULT:    -5.497      2.544      7.578
REMARK INTER + INTRA:         -10.707
REMARK INTER:                  -9.019
REMARK INTRA:                  -1.688
REMARK UNBOUND:                -1.836
REMARK  Name = cpd302.pdb
REMARK  15 active torsions:
REMARK  status: ('A' for Active; 'I' for Inactive)
REMARK    1  A    between atoms: C_1  and  C_2
REMARK    2  A    between atoms: C_2  and  C_3
REMARK    3  A    between atoms: C_2  and  C_20
REMARK    4  A    between atoms: C_3  and  C_4
REMARK    5  A    between atoms: C_4  and  C_5
REMARK    6  A    between atoms: C_6  and  C_7
REMARK    7  A    between atoms: C_7  and  O_8
REMARK    8  A    between atoms: C_12  and  C_13
REMARK    9  A    between atoms: C_12  and  C_14
REMARK   10  A    between atoms: C_18  and  C_19
REMARK   11  A    between atoms: C_20  and  C_21
REMARK   12  A    between atoms: C_21  and  O_23
REMARK   13  A    between atoms: O_23  and  C_24
REMARK   14  A    between atoms: C_24  and  C_25
REMARK   15  A    between atoms: C_25  and  N_26
REMARK                            x       y       z     vdW  Elec       q    Type
REMARK                         _______ _______ _______ _____ _____    ______ ____
ROOT
ATOM      1  C   UNL     1      42.707 -18.854 -35.189  0.00  0.00    -0.046 C 
ENDROOT
BRANCH   1   2
ATOM      2  C   UNL     1      41.506 -19.750 -35.645  0.00  0.00    -0.012 C 
ATOM      3  C   UNL     1      41.917 -20.767 -36.721  0.00  0.00    -0.045 C 
ATOM      4  C   UNL     1      41.461 -22.031 -36.688  0.00  0.00    -0.082 C 
ATOM      5  C   UNL     1      40.515 -22.580 -35.678  0.00  0.00    -0.031 C 
ATOM      6  C   UNL     1      39.748 -21.518 -34.854  0.00  0.00    -0.027 C 
ATOM      7  C   UNL     1      38.907 -22.177 -33.676  0.00  0.00    -0.031 C 
ATOM      8  C   UNL     1      37.537 -21.468 -33.539  0.00  0.00    -0.060 C 
ATOM      9  C   UNL     1      38.555 -23.664 -33.945  0.00  0.00    -0.060 C 
ATOM     10  C   UNL     1      39.654 -22.101 -32.318  0.00  0.00    -0.048 C 
ATOM     11  C   UNL     1      41.169 -22.104 -32.462  0.00  0.00    -0.052 C 
ATOM     12  C   UNL     1      41.721 -20.972 -33.338  0.00  0.00    -0.047 C 
ATOM     13  C   UNL     1      40.735 -20.386 -34.390  0.00  0.00    -0.022 C 
ATOM     14  C   UNL     1      39.948 -19.207 -33.751  0.00  0.00    -0.059 C 
BRANCH   3  15
ATOM     15  C   UNL     1      42.773 -20.268 -37.871  0.00  0.00    +0.066 C 
BRANCH  15  16
ATOM     16  O   UNL     1      43.521 -21.311 -38.486  0.00  0.00    -0.391 OA
ATOM     17  H   UNL     1      43.534 -21.177 -39.447  0.00  0.00    +0.000 HD
ENDBRANCH  15  16
ENDBRANCH   3  15
ENDBRANCH   1   2
BRANCH   1  18
ATOM     18  C   UNL     1      42.631 -17.383 -35.646  0.00  0.00    -0.049 C 
BRANCH  18  20
ATOM     19  C   UNL     1      43.865 -15.321 -36.494  0.00  0.00    -0.062 C 
ATOM     20  C   UNL     1      43.913 -16.842 -36.318  0.00  0.00    -0.034 C 
BRANCH  20  21
ATOM     21  C   UNL     1      45.182 -17.272 -35.553  0.00  0.00    +0.048 C 
BRANCH  21  22
ATOM     22  C   UNL     1      46.243 -17.914 -36.421  0.00  0.00    +0.307 C 
ATOM     23  O   UNL     1      47.429 -17.622 -36.286  0.00  0.00    -0.251 OA
BRANCH  22  24
ATOM     24  O   UNL     1      45.867 -18.779 -37.389  0.00  0.00    -0.463 OA
BRANCH  24  25
ATOM     25  C   UNL     1      46.568 -18.974 -38.636  0.00  0.00    +0.105 C 
BRANCH  25  26
ATOM     26  C   UNL     1      45.697 -18.512 -39.814  0.00  0.00    +0.033 C 
BRANCH  26  27
ATOM     27  N   UNL     1      45.149 -19.623 -40.613  0.00  0.00    -0.299 N 
ATOM     28  C   UNL     1      46.122 -20.717 -40.770  0.00  0.00    -0.001 C 
ATOM     29  C   UNL     1      45.530 -21.880 -41.568  0.00  0.00    -0.040 C 
ATOM     30  C   UNL     1      45.020 -21.420 -42.927  0.00  0.00    -0.051 C 
ATOM     31  C   UNL     1      44.075 -20.237 -42.765  0.00  0.00    -0.040 C 
ATOM     32  C   UNL     1      44.715 -19.126 -41.931  0.00  0.00    -0.001 C 
ATOM     33  H   UNL     1      44.344 -20.002 -40.113  0.00  0.00    +0.000 HD
ENDBRANCH  26  27
ENDBRANCH  25  26
ENDBRANCH  24  25
ENDBRANCH  22  24
ENDBRANCH  21  22
ENDBRANCH  20  21
ENDBRANCH  18  20
ENDBRANCH   1  18
TORSDOF 11
ENDMDL
