REMARK  Name = cpd302.pdb
REMARK  15 active torsions:
REMARK  status: ('A' for Active; 'I' for Inactive)
REMARK    1  A    between atoms: C_1  and  C_2
REMARK    2  A    between atoms: C_2  and  C_3
REMARK    3  A    between atoms: C_2  and  C_20
REMARK    4  A    between atoms: C_3  and  C_4
REMARK    5  A    between atoms: C_4  and  C_5
REMARK    6  A    between atoms: C_6  and  C_7
REMARK    7  A    between atoms: C_7  and  O_8
REMARK    8  A    between atoms: C_12  and  C_13
REMARK    9  A    between atoms: C_12  and  C_14
REMARK   10  A    between atoms: C_18  and  C_19
REMARK   11  A    between atoms: C_20  and  C_21
REMARK   12  A    between atoms: C_21  and  O_23
REMARK   13  A    between atoms: O_23  and  C_24
REMARK   14  A    between atoms: C_24  and  C_25
REMARK   15  A    between atoms: C_25  and  N_26
REMARK                            x       y       z     vdW  Elec       q    Type
REMARK                         _______ _______ _______ _____ _____    ______ ____
ROOT
ATOM      1  C   UNL     1      -7.176  -1.844   1.837  0.00  0.00    -0.046 C 
ENDROOT
BRANCH   1   2
ATOM      2  C   UNL     1      -7.930  -2.111   0.491  0.00  0.00    -0.012 C 
ATOM      3  C   UNL     1      -8.377  -3.575   0.356  0.00  0.00    -0.045 C 
ATOM      4  C   UNL     1      -9.586  -3.887  -0.142  0.00  0.00    -0.082 C 
ATOM      5  C   UNL     1     -10.591  -2.908  -0.640  0.00  0.00    -0.031 C 
ATOM      6  C   UNL     1     -10.039  -1.491  -0.928  0.00  0.00    -0.027 C 
ATOM      7  C   UNL     1     -11.201  -0.461  -1.270  0.00  0.00    -0.031 C 
ATOM      8  C   UNL     1     -10.754   0.485  -2.412  0.00  0.00    -0.060 C 
ATOM      9  C   UNL     1     -12.480  -1.153  -1.812  0.00  0.00    -0.060 C 
ATOM     10  C   UNL     1     -11.604   0.390  -0.037  0.00  0.00    -0.048 C 
ATOM     11  C   UNL     1     -11.391  -0.330   1.287  0.00  0.00    -0.052 C 
ATOM     12  C   UNL     1      -9.951  -0.803   1.523  0.00  0.00    -0.047 C 
ATOM     13  C   UNL     1      -9.095  -1.036   0.244  0.00  0.00    -0.022 C 
ATOM     14  C   UNL     1      -8.364   0.285  -0.128  0.00  0.00    -0.059 C 
BRANCH   3  15
ATOM     15  C   UNL     1      -7.370  -4.654   0.712  0.00  0.00    +0.066 C 
BRANCH  15  16
ATOM     16  O   UNL     1      -7.900  -5.966   0.561  0.00  0.00    -0.391 OA
ATOM     17  H   UNL     1      -8.655  -6.081   1.159  0.00  0.00    +0.000 HD
ENDBRANCH  15  16
ENDBRANCH   3  15
ENDBRANCH   1   2
BRANCH   1  18
ATOM     18  C   UNL     1      -5.647  -2.038   1.776  0.00  0.00    -0.049 C 
BRANCH  18  20
ATOM     19  C   UNL     1      -4.807   0.363   1.924  0.00  0.00    -0.062 C 
ATOM     20  C   UNL     1      -4.873  -0.904   1.066  0.00  0.00    -0.034 C 
BRANCH  20  21
ATOM     21  C   UNL     1      -3.462  -1.360   0.638  0.00  0.00    +0.048 C 
BRANCH  21  22
ATOM     22  C   UNL     1      -2.584  -1.818   1.783  0.00  0.00    +0.307 C 
ATOM     23  O   UNL     1      -2.740  -2.925   2.293  0.00  0.00    -0.251 OA
BRANCH  22  24
ATOM     24  O   UNL     1      -1.653  -0.972   2.277  0.00  0.00    -0.463 OA
BRANCH  24  25
ATOM     25  C   UNL     1      -1.157   0.197   1.590  0.00  0.00    +0.105 C 
BRANCH  25  26
ATOM     26  C   UNL     1      -0.144  -0.211   0.510  0.00  0.00    +0.033 C 
BRANCH  26  27
ATOM     27  N   UNL     1       0.467   0.935  -0.188  0.00  0.00    -0.299 N 
ATOM     28  C   UNL     1      -0.480   1.582  -1.112  0.00  0.00    -0.001 C 
ATOM     29  C   UNL     1       0.153   2.792  -1.802  0.00  0.00    -0.040 C 
ATOM     30  C   UNL     1       1.434   2.410  -2.531  0.00  0.00    -0.051 C 
ATOM     31  C   UNL     1       2.377   1.671  -1.592  0.00  0.00    -0.040 C 
ATOM     32  C   UNL     1       1.674   0.496  -0.911  0.00  0.00    -0.001 C 
ATOM     33  H   UNL     1       0.727   1.628   0.514  0.00  0.00    +0.000 HD
ENDBRANCH  26  27
ENDBRANCH  25  26
ENDBRANCH  24  25
ENDBRANCH  22  24
ENDBRANCH  21  22
ENDBRANCH  20  21
ENDBRANCH  18  20
ENDBRANCH   1  18
TORSDOF 11
