@<TRIPOS>MOLECULE
*****
 30 33 0 0 0
SMALL
GASTEIGER

@<TRIPOS>ATOM
      1 C          -0.3792   -3.6676    0.0000 C.3     1  UNL1        0.0301
      2 C           0.6208   -3.6676    0.0000 C.2     1  UNL1       -0.0319
      3 C           1.1208   -2.8016    0.0000 C.2     1  UNL1       -0.0204
      4 C           2.1208   -2.8016    0.0000 C.3     1  UNL1        0.0473
      5 C           1.5965   -3.3667    0.0000 C.2     1  UNL1       -0.0303
      6 C           0.8278   -3.3091    0.0000 C.2     1  UNL1       -0.0453
      7 C           0.3278   -4.1751    0.0000 C.3     1  UNL1        0.0261
      8 C           0.3936   -2.6722    0.0000 C.3     1  UNL1        0.0523
      9 C           0.6208   -1.9356    0.0000 C.3     1  UNL1        0.1231
     10 N           2.5259    2.4306    0.0000 N.2     1  UNL1       -0.2644
     11 C           2.5259    1.4583    0.0000 C.2     1  UNL1        0.0938
     12 C           1.6839    0.9722    0.0000 C.2     1  UNL1        0.0202
     13 C           1.6839   -0.0000    0.0000 C.2     1  UNL1        0.0016
     14 C           0.8420   -0.4861    0.0000 C.ar    1  UNL1        0.0001
     15 C           0.8420   -1.4583    0.0000 C.ar    1  UNL1        0.0013
     16 C          -0.0000   -1.9444    0.0000 C.ar    1  UNL1        0.0145
     17 C          -0.8420   -1.4583    0.0000 C.ar    1  UNL1        0.0479
     18 N          -1.6839   -1.9444    0.0000 N.pl3   1  UNL1       -0.3041
     19 C          -2.5259   -1.4583    0.0000 C.3     1  UNL1        0.1122
     20 C          -1.6839   -2.9167    0.0000 C.3     1  UNL1        0.1122
     21 C          -0.8420   -0.4861    0.0000 C.ar    1  UNL1        0.0145
     22 C           0.0000    0.0000    0.0000 C.ar    1  UNL1        0.0013
     23 C           1.1208   -1.0696    0.0000 C.ar    1  UNL1        0.0154
     24 C           0.6208   -0.2035    0.0000 C.ar    1  UNL1        0.0040
     25 C           1.1208    0.6625    0.0000 C.ar    1  UNL1        0.0623
     26 C           2.1208    0.6625    0.0000 C.ar    1  UNL1        0.2790
     27 O           2.6208    1.5285    0.0000 O.2     1  UNL1       -0.2652
     28 N           2.6208   -0.2035    0.0000 N.ar    1  UNL1       -0.2125
     29 C           2.1208   -1.0696    0.0000 C.ar    1  UNL1        0.0609
     30 C           2.6208   -1.9356    0.0000 C.3     1  UNL1        0.0541
@<TRIPOS>BOND
     1     1     2    1
     2     2     3    2
     3     3     4    1
     4     4     5    1
     5     5     6    2
     6     6     7    1
     7     6     8    1
     8     8     9    1
     9     3     9    1
    10     9    10    1
    11    10    11    2
    12    11    12    1
    13    12    13    2
    14    13    14    1
    15    14    15   ar
    16    15    16   ar
    17    16    17   ar
    18    17    18    1
    19    18    19    1
    20    18    20    1
    21    17    21   ar
    22    21    22   ar
    23    14    22   ar
    24     9    23    1
    25    23    24   ar
    26    24    25   ar
    27    25    26   ar
    28    26    27    2
    29    26    28   ar
    30    28    29   ar
    31    23    29   ar
    32    29    30    1
    33     4    30    1
