REMARK  Name = cpd122.pdb
REMARK  8 active torsions:
REMARK  status: ('A' for Active; 'I' for Inactive)
REMARK    1  A    between atoms: C_1  and  C_2
REMARK    2  A    between atoms: C_6  and  C_7
REMARK    3  A    between atoms: C_9  and  N_10
REMARK    4  A    between atoms: C_11  and  C_12
REMARK    5  A    between atoms: C_13  and  C_14
REMARK    6  A    between atoms: C_17  and  N_18
REMARK    7  A    between atoms: N_18  and  C_19
REMARK    8  A    between atoms: N_18  and  C_20
REMARK                            x       y       z     vdW  Elec       q    Type
REMARK                         _______ _______ _______ _____ _____    ______ ____
ROOT
ATOM      1  C   UNL A   1       4.892  -3.751  -2.962  0.00  0.00    -0.046 C 
ATOM      2  C   UNL A   1       4.597  -4.216  -1.573  0.00  0.00    -0.085 C 
ATOM      3  C   UNL A   1       3.570  -3.819  -0.788  0.00  0.00    -0.035 C 
ATOM      4  C   UNL A   1       3.322  -4.326   0.569  0.00  0.00    +0.006 C 
ATOM      5  C   UNL A   1       1.966  -5.061   0.396  0.00  0.00    -0.077 C 
ATOM      6  C   UNL A   1       1.209  -4.938  -0.747  0.00  0.00    -0.073 C 
ATOM      7  C   UNL A   1      -0.033  -5.730  -1.001  0.00  0.00    -0.044 C 
ATOM      8  C   UNL A   1       1.558  -3.810  -1.836  0.00  0.00    +0.001 C 
ATOM      9  C   UNL A   1       2.432  -2.777  -1.067  0.00  0.00    +0.113 C 
ATOM     10  C   UNL A   1       3.309  -1.590  -0.878  0.00  0.00    -0.000 C 
ATOM     11  C   UNL A   1       3.717  -0.581  -1.648  0.00  0.00    -0.068 C 
ATOM     12  C   UNL A   1       4.654   0.447  -1.102  0.00  0.00    +0.045 C 
ATOM     13  C   UNL A   1       4.822   0.424   0.423  0.00  0.00    +0.240 C 
ATOM     14  O   UNL A   1       5.239   1.436   0.987  0.00  0.00    -0.273 OA
ATOM     15  N   UNL A   1       4.583  -0.740   1.122  0.00  0.00    -0.185 NA
ATOM     16  C   UNL A   1       3.884  -1.676   0.563  0.00  0.00    +0.040 C 
ATOM     17  C   UNL A   1       3.582  -3.022   1.419  0.00  0.00    -0.002 C 
ENDROOT
BRANCH   9  18
ATOM     18  N   UNL A   1       1.429  -2.392   0.006  0.00  0.00    -0.276 NA
ATOM     19  C   UNL A   1       0.469  -1.560  -0.196  0.00  0.00    +0.024 C 
BRANCH  19  20
ATOM     20  C   UNL A   1       0.127  -0.800  -1.425  0.00  0.00    -0.043 C 
ATOM     21  C   UNL A   1      -0.956  -0.017  -1.535  0.00  0.00    -0.053 C 
BRANCH  21  22
ATOM     22  C   UNL A   1      -1.975   0.187  -0.506  0.00  0.00    -0.025 A 
ATOM     23  C   UNL A   1      -2.946  -0.779  -0.262  0.00  0.00    -0.053 A 
ATOM     24  C   UNL A   1      -3.915  -0.575   0.732  0.00  0.00    -0.040 A 
ATOM     25  C   UNL A   1      -3.948   0.587   1.523  0.00  0.00    +0.029 A 
ATOM     26  C   UNL A   1      -2.964   1.551   1.236  0.00  0.00    -0.040 A 
ATOM     27  C   UNL A   1      -1.989   1.358   0.245  0.00  0.00    -0.053 A 
BRANCH  25  28
ATOM     28  N   UNL A   1      -4.927   0.792   2.504  0.00  0.00    -0.336 N 
ATOM     29  C   UNL A   1      -4.731   1.857   3.487  0.00  0.00    +0.000 C 
ATOM     30  C   UNL A   1      -5.725  -0.345   2.958  0.00  0.00    +0.000 C 
ENDBRANCH  25  28
ENDBRANCH  21  22
ENDBRANCH  19  20
ENDBRANCH   9  18
TORSDOF 4
