MODEL 1
REMARK VINA RESULT:    -7.736      0.000      0.000
REMARK INTER + INTRA:         -10.680
REMARK INTER:                  -9.545
REMARK INTRA:                  -1.135
REMARK UNBOUND:                -1.135
REMARK  Name = cpd122.pdb
REMARK  8 active torsions:
REMARK  status: ('A' for Active; 'I' for Inactive)
REMARK    1  A    between atoms: C_1  and  C_2
REMARK    2  A    between atoms: C_6  and  C_7
REMARK    3  A    between atoms: C_9  and  N_10
REMARK    4  A    between atoms: C_11  and  C_12
REMARK    5  A    between atoms: C_13  and  C_14
REMARK    6  A    between atoms: C_17  and  N_18
REMARK    7  A    between atoms: N_18  and  C_19
REMARK    8  A    between atoms: N_18  and  C_20
REMARK                            x       y       z     vdW  Elec       q    Type
REMARK                         _______ _______ _______ _____ _____    ______ ____
ROOT
ATOM      1  C   UNL A   1      30.702 -35.767 -28.822  0.00  0.00    -0.046 C 
ATOM      2  C   UNL A   1      30.925 -36.462 -30.125  0.00  0.00    -0.085 C 
ATOM      3  C   UNL A   1      31.964 -37.267 -30.445  0.00  0.00    -0.035 C 
ATOM      4  C   UNL A   1      32.121 -37.938 -31.744  0.00  0.00    +0.006 C 
ATOM      5  C   UNL A   1      32.012 -39.435 -31.348  0.00  0.00    -0.077 C 
ATOM      6  C   UNL A   1      32.030 -39.847 -30.035  0.00  0.00    -0.073 C 
ATOM      7  C   UNL A   1      31.797 -41.262 -29.613  0.00  0.00    -0.044 C 
ATOM      8  C   UNL A   1      32.444 -38.824 -28.867  0.00  0.00    +0.001 C 
ATOM      9  C   UNL A   1      33.214 -37.685 -29.597  0.00  0.00    +0.113 C 
ATOM     10  C   UNL A   1      33.908 -36.378 -29.755  0.00  0.00    -0.000 C 
ATOM     11  C   UNL A   1      34.310 -35.413 -28.928  0.00  0.00    -0.068 C 
ATOM     12  C   UNL A   1      34.971 -34.188 -29.472  0.00  0.00    +0.045 C 
ATOM     13  C   UNL A   1      35.419 -34.290 -30.936  0.00  0.00    +0.240 C 
ATOM     14  O   UNL A   1      36.290 -33.521 -31.343  0.00  0.00    -0.273 OA
ATOM     15  N   UNL A   1      34.790 -35.176 -31.785  0.00  0.00    -0.185 NA
ATOM     16  C   UNL A   1      34.102 -36.150 -31.280  0.00  0.00    +0.040 C 
ATOM     17  C   UNL A   1      33.403 -37.203 -32.298  0.00  0.00    -0.002 C 
ENDROOT
BRANCH   9  18
ATOM     18  N   UNL A   1      34.334 -38.519 -30.193  0.00  0.00    -0.276 NA
ATOM     19  C   UNL A   1      35.397 -38.836 -29.542  0.00  0.00    +0.024 C 
BRANCH  19  20
ATOM     20  C   UNL A   1      35.791 -38.480 -28.155  0.00  0.00    -0.043 C 
ATOM     21  C   UNL A   1      36.954 -37.890 -27.843  0.00  0.00    -0.053 C 
BRANCH  21  22
ATOM     22  C   UNL A   1      38.018 -37.541 -28.783  0.00  0.00    -0.025 A 
ATOM     23  C   UNL A   1      39.276 -38.128 -28.688  0.00  0.00    -0.053 A 
ATOM     24  C   UNL A   1      40.287 -37.790 -29.600  0.00  0.00    -0.040 A 
ATOM     25  C   UNL A   1      40.084 -36.866 -30.641  0.00  0.00    +0.029 A 
ATOM     26  C   UNL A   1      38.807 -36.277 -30.695  0.00  0.00    -0.040 A 
ATOM     27  C   UNL A   1      37.787 -36.608 -29.789  0.00  0.00    -0.053 A 
BRANCH  25  28
ATOM     28  N   UNL A   1      41.102 -36.521 -31.539  0.00  0.00    -0.336 N 
ATOM     29  C   UNL A   1      42.416 -36.155 -31.012  0.00  0.00    +0.000 C 
ATOM     30  C   UNL A   1      40.743 -35.909 -32.816  0.00  0.00    +0.000 C 
ENDBRANCH  25  28
ENDBRANCH  21  22
ENDBRANCH  19  20
ENDBRANCH   9  18
TORSDOF 4
ENDMDL
MODEL 2
REMARK VINA RESULT:    -7.679      1.643      1.940
REMARK INTER + INTRA:         -10.609
REMARK INTER:                  -9.727
REMARK INTRA:                  -0.883
REMARK UNBOUND:                -1.135
REMARK  Name = cpd122.pdb
REMARK  8 active torsions:
REMARK  status: ('A' for Active; 'I' for Inactive)
REMARK    1  A    between atoms: C_1  and  C_2
REMARK    2  A    between atoms: C_6  and  C_7
REMARK    3  A    between atoms: C_9  and  N_10
REMARK    4  A    between atoms: C_11  and  C_12
REMARK    5  A    between atoms: C_13  and  C_14
REMARK    6  A    between atoms: C_17  and  N_18
REMARK    7  A    between atoms: N_18  and  C_19
REMARK    8  A    between atoms: N_18  and  C_20
REMARK                            x       y       z     vdW  Elec       q    Type
REMARK                         _______ _______ _______ _____ _____    ______ ____
ROOT
ATOM      1  C   UNL A   1      29.900 -34.119 -28.639  0.00  0.00    -0.046 C 
ATOM      2  C   UNL A   1      29.868 -34.702 -30.014  0.00  0.00    -0.085 C 
ATOM      3  C   UNL A   1      30.807 -35.494 -30.580  0.00  0.00    -0.035 C 
ATOM      4  C   UNL A   1      30.711 -36.052 -31.936  0.00  0.00    +0.006 C 
ATOM      5  C   UNL A   1      30.625 -37.576 -31.653  0.00  0.00    -0.077 C 
ATOM      6  C   UNL A   1      30.860 -38.101 -30.402  0.00  0.00    -0.073 C 
ATOM      7  C   UNL A   1      30.659 -39.543 -30.063  0.00  0.00    -0.044 C 
ATOM      8  C   UNL A   1      31.507 -37.191 -29.247  0.00  0.00    +0.001 C 
ATOM      9  C   UNL A   1      32.173 -36.006 -30.005  0.00  0.00    +0.113 C 
ATOM     10  C   UNL A   1      32.870 -34.703 -30.175  0.00  0.00    -0.000 C 
ATOM     11  C   UNL A   1      33.443 -33.820 -29.357  0.00  0.00    -0.068 C 
ATOM     12  C   UNL A   1      34.037 -32.564 -29.906  0.00  0.00    +0.045 C 
ATOM     13  C   UNL A   1      34.216 -32.546 -31.430  0.00  0.00    +0.240 C 
ATOM     14  O   UNL A   1      35.027 -31.760 -31.921  0.00  0.00    -0.273 OA
ATOM     15  N   UNL A   1      33.420 -33.344 -32.224  0.00  0.00    -0.185 NA
ATOM     16  C   UNL A   1      32.800 -34.346 -31.686  0.00  0.00    +0.040 C 
ATOM     17  C   UNL A   1      31.899 -35.294 -32.647  0.00  0.00    -0.002 C 
ENDROOT
BRANCH   9  18
ATOM     18  N   UNL A   1      33.143 -36.805 -30.858  0.00  0.00    -0.276 NA
ATOM     19  C   UNL A   1      34.157 -37.429 -30.371  0.00  0.00    +0.024 C 
BRANCH  19  20
ATOM     20  C   UNL A   1      34.623 -37.510 -28.964  0.00  0.00    -0.043 C 
ATOM     21  C   UNL A   1      35.874 -37.217 -28.580  0.00  0.00    -0.053 C 
BRANCH  21  22
ATOM     22  C   UNL A   1      36.970 -36.816 -29.461  0.00  0.00    -0.025 A 
ATOM     23  C   UNL A   1      38.141 -37.564 -29.530  0.00  0.00    -0.053 A 
ATOM     24  C   UNL A   1      39.184 -37.172 -30.383  0.00  0.00    -0.040 A 
ATOM     25  C   UNL A   1      39.096 -36.033 -31.203  0.00  0.00    +0.029 A 
ATOM     26  C   UNL A   1      37.907 -35.290 -31.094  0.00  0.00    -0.040 A 
ATOM     27  C   UNL A   1      36.857 -35.672 -30.245  0.00  0.00    -0.053 A 
BRANCH  25  28
ATOM     28  N   UNL A   1      40.146 -35.638 -32.043  0.00  0.00    -0.336 N 
ATOM     29  C   UNL A   1      41.211 -36.596 -32.342  0.00  0.00    +0.000 C 
ATOM     30  C   UNL A   1      40.538 -34.231 -32.074  0.00  0.00    +0.000 C 
ENDBRANCH  25  28
ENDBRANCH  21  22
ENDBRANCH  19  20
ENDBRANCH   9  18
TORSDOF 4
ENDMDL
MODEL 3
REMARK VINA RESULT:    -7.512      2.241      4.245
REMARK INTER + INTRA:         -10.404
REMARK INTER:                  -9.360
REMARK INTRA:                  -1.044
REMARK UNBOUND:                -1.135
REMARK  Name = cpd122.pdb
REMARK  8 active torsions:
REMARK  status: ('A' for Active; 'I' for Inactive)
REMARK    1  A    between atoms: C_1  and  C_2
REMARK    2  A    between atoms: C_6  and  C_7
REMARK    3  A    between atoms: C_9  and  N_10
REMARK    4  A    between atoms: C_11  and  C_12
REMARK    5  A    between atoms: C_13  and  C_14
REMARK    6  A    between atoms: C_17  and  N_18
REMARK    7  A    between atoms: N_18  and  C_19
REMARK    8  A    between atoms: N_18  and  C_20
REMARK                            x       y       z     vdW  Elec       q    Type
REMARK                         _______ _______ _______ _____ _____    ______ ____
ROOT
ATOM      1  C   UNL A   1      31.373 -39.295 -29.738  0.00  0.00    -0.046 C 
ATOM      2  C   UNL A   1      31.802 -38.794 -28.397  0.00  0.00    -0.085 C 
ATOM      3  C   UNL A   1      32.786 -37.901 -28.144  0.00  0.00    -0.035 C 
ATOM      4  C   UNL A   1      33.153 -37.434 -26.800  0.00  0.00    +0.006 C 
ATOM      5  C   UNL A   1      32.785 -35.928 -26.870  0.00  0.00    -0.077 C 
ATOM      6  C   UNL A   1      32.457 -35.311 -28.056  0.00  0.00    -0.073 C 
ATOM      7  C   UNL A   1      31.972 -33.899 -28.143  0.00  0.00    -0.044 C 
ATOM      8  C   UNL A   1      32.713 -36.053 -29.457  0.00  0.00    +0.001 C 
ATOM      9  C   UNL A   1      33.755 -37.162 -29.130  0.00  0.00    +0.113 C 
ATOM     10  C   UNL A   1      34.613 -38.354 -29.369  0.00  0.00    -0.000 C 
ATOM     11  C   UNL A   1      34.928 -39.098 -30.430  0.00  0.00    -0.068 C 
ATOM     12  C   UNL A   1      35.832 -40.278 -30.276  0.00  0.00    +0.045 C 
ATOM     13  C   UNL A   1      36.583 -40.347 -28.940  0.00  0.00    +0.240 C 
ATOM     14  O   UNL A   1      37.607 -41.028 -28.872  0.00  0.00    -0.273 OA
ATOM     15  N   UNL A   1      36.065 -39.719 -27.828  0.00  0.00    -0.185 NA
ATOM     16  C   UNL A   1      35.172 -38.794 -27.988  0.00  0.00    +0.040 C 
ATOM     17  C   UNL A   1      34.603 -38.041 -26.667  0.00  0.00    -0.002 C 
ENDROOT
BRANCH   9  18
ATOM     18  N   UNL A   1      34.876 -36.273 -28.623  0.00  0.00    -0.276 NA
ATOM     19  C   UNL A   1      35.523 -35.458 -29.379  0.00  0.00    +0.024 C 
BRANCH  19  20
ATOM     20  C   UNL A   1      35.372 -35.206 -30.835  0.00  0.00    -0.043 C 
ATOM     21  C   UNL A   1      36.362 -35.380 -31.723  0.00  0.00    -0.053 C 
BRANCH  21  22
ATOM     22  C   UNL A   1      37.728 -35.801 -31.414  0.00  0.00    -0.025 A 
ATOM     23  C   UNL A   1      37.980 -37.045 -30.845  0.00  0.00    -0.053 A 
ATOM     24  C   UNL A   1      39.295 -37.441 -30.559  0.00  0.00    -0.040 A 
ATOM     25  C   UNL A   1      40.404 -36.621 -30.835  0.00  0.00    +0.029 A 
ATOM     26  C   UNL A   1      40.111 -35.362 -31.391  0.00  0.00    -0.040 A 
ATOM     27  C   UNL A   1      38.800 -34.956 -31.683  0.00  0.00    -0.053 A 
BRANCH  25  28
ATOM     28  N   UNL A   1      41.714 -37.015 -30.532  0.00  0.00    -0.336 N 
ATOM     29  C   UNL A   1      42.820 -36.440 -31.298  0.00  0.00    +0.000 C 
ATOM     30  C   UNL A   1      41.947 -38.356 -30.000  0.00  0.00    +0.000 C 
ENDBRANCH  25  28
ENDBRANCH  21  22
ENDBRANCH  19  20
ENDBRANCH   9  18
TORSDOF 4
ENDMDL
MODEL 4
REMARK VINA RESULT:    -7.386     16.859     21.000
REMARK INTER + INTRA:         -10.248
REMARK INTER:                  -8.860
REMARK INTRA:                  -1.388
REMARK UNBOUND:                -1.135
REMARK  Name = cpd122.pdb
REMARK  8 active torsions:
REMARK  status: ('A' for Active; 'I' for Inactive)
REMARK    1  A    between atoms: C_1  and  C_2
REMARK    2  A    between atoms: C_6  and  C_7
REMARK    3  A    between atoms: C_9  and  N_10
REMARK    4  A    between atoms: C_11  and  C_12
REMARK    5  A    between atoms: C_13  and  C_14
REMARK    6  A    between atoms: C_17  and  N_18
REMARK    7  A    between atoms: N_18  and  C_19
REMARK    8  A    between atoms: N_18  and  C_20
REMARK                            x       y       z     vdW  Elec       q    Type
REMARK                         _______ _______ _______ _____ _____    ______ ____
ROOT
ATOM      1  C   UNL A   1      46.212 -17.035 -40.366  0.00  0.00    -0.046 C 
ATOM      2  C   UNL A   1      46.830 -18.351 -40.024  0.00  0.00    -0.085 C 
ATOM      3  C   UNL A   1      46.181 -19.519 -39.811  0.00  0.00    -0.035 C 
ATOM      4  C   UNL A   1      46.847 -20.789 -39.492  0.00  0.00    +0.006 C 
ATOM      5  C   UNL A   1      46.507 -21.653 -40.735  0.00  0.00    -0.077 C 
ATOM      6  C   UNL A   1      45.585 -21.251 -41.674  0.00  0.00    -0.073 C 
ATOM      7  C   UNL A   1      45.328 -21.992 -42.947  0.00  0.00    -0.044 C 
ATOM      8  C   UNL A   1      44.616 -20.003 -41.380  0.00  0.00    +0.001 C 
ATOM      9  C   UNL A   1      44.646 -19.837 -39.833  0.00  0.00    +0.113 C 
ATOM     10  C   UNL A   1      44.374 -19.206 -38.514  0.00  0.00    -0.000 C 
ATOM     11  C   UNL A   1      43.633 -18.182 -38.088  0.00  0.00    -0.068 C 
ATOM     12  C   UNL A   1      43.631 -17.810 -36.640  0.00  0.00    +0.045 C 
ATOM     13  C   UNL A   1      44.252 -18.854 -35.703  0.00  0.00    +0.240 C 
ATOM     14  O   UNL A   1      43.954 -18.828 -34.509  0.00  0.00    -0.273 OA
ATOM     15  N   UNL A   1      45.184 -19.746 -36.190  0.00  0.00    -0.185 NA
ATOM     16  C   UNL A   1      45.259 -19.940 -37.468  0.00  0.00    +0.040 C 
ATOM     17  C   UNL A   1      46.337 -21.023 -38.017  0.00  0.00    -0.002 C 
ENDROOT
BRANCH   9  18
ATOM     18  N   UNL A   1      44.115 -21.208 -39.452  0.00  0.00    -0.276 NA
ATOM     19  C   UNL A   1      42.873 -21.530 -39.541  0.00  0.00    +0.024 C 
BRANCH  19  20
ATOM     20  C   UNL A   1      41.719 -20.708 -39.983  0.00  0.00    -0.043 C 
ATOM     21  C   UNL A   1      40.631 -20.492 -39.230  0.00  0.00    -0.053 C 
BRANCH  21  22
ATOM     22  C   UNL A   1      40.387 -21.044 -37.898  0.00  0.00    -0.025 A 
ATOM     23  C   UNL A   1      40.973 -20.475 -36.771  0.00  0.00    -0.053 A 
ATOM     24  C   UNL A   1      40.727 -21.009 -35.497  0.00  0.00    -0.040 A 
ATOM     25  C   UNL A   1      39.885 -22.118 -35.297  0.00  0.00    +0.029 A 
ATOM     26  C   UNL A   1      39.325 -22.680 -36.459  0.00  0.00    -0.040 A 
ATOM     27  C   UNL A   1      39.563 -22.154 -37.738  0.00  0.00    -0.053 A 
BRANCH  25  28
ATOM     28  N   UNL A   1      39.655 -22.656 -34.024  0.00  0.00    -0.336 N 
ATOM     29  C   UNL A   1      40.759 -22.706 -33.067  0.00  0.00    +0.000 C 
ATOM     30  C   UNL A   1      38.638 -23.694 -33.866  0.00  0.00    +0.000 C 
ENDBRANCH  25  28
ENDBRANCH  21  22
ENDBRANCH  19  20
ENDBRANCH   9  18
TORSDOF 4
ENDMDL
MODEL 5
REMARK VINA RESULT:    -6.949      1.757      2.821
REMARK INTER + INTRA:          -9.709
REMARK INTER:                  -8.771
REMARK INTRA:                  -0.938
REMARK UNBOUND:                -1.135
REMARK  Name = cpd122.pdb
REMARK  8 active torsions:
REMARK  status: ('A' for Active; 'I' for Inactive)
REMARK    1  A    between atoms: C_1  and  C_2
REMARK    2  A    between atoms: C_6  and  C_7
REMARK    3  A    between atoms: C_9  and  N_10
REMARK    4  A    between atoms: C_11  and  C_12
REMARK    5  A    between atoms: C_13  and  C_14
REMARK    6  A    between atoms: C_17  and  N_18
REMARK    7  A    between atoms: N_18  and  C_19
REMARK    8  A    between atoms: N_18  and  C_20
REMARK                            x       y       z     vdW  Elec       q    Type
REMARK                         _______ _______ _______ _____ _____    ______ ____
ROOT
ATOM      1  C   UNL A   1      30.015 -39.662 -29.043  0.00  0.00    -0.046 C 
ATOM      2  C   UNL A   1      30.756 -40.642 -29.894  0.00  0.00    -0.085 C 
ATOM      3  C   UNL A   1      32.097 -40.786 -29.980  0.00  0.00    -0.035 C 
ATOM      4  C   UNL A   1      32.770 -41.782 -30.826  0.00  0.00    +0.006 C 
ATOM      5  C   UNL A   1      33.459 -42.689 -29.772  0.00  0.00    -0.077 C 
ATOM      6  C   UNL A   1      33.528 -42.341 -28.442  0.00  0.00    -0.073 C 
ATOM      7  C   UNL A   1      34.066 -43.246 -27.381  0.00  0.00    -0.044 C 
ATOM      8  C   UNL A   1      33.148 -40.853 -27.970  0.00  0.00    +0.001 C 
ATOM      9  C   UNL A   1      33.245 -39.993 -29.263  0.00  0.00    +0.113 C 
ATOM     10  C   UNL A   1      33.110 -38.787 -30.124  0.00  0.00    -0.000 C 
ATOM     11  C   UNL A   1      32.797 -37.507 -29.920  0.00  0.00    -0.068 C 
ATOM     12  C   UNL A   1      32.732 -36.558 -31.073  0.00  0.00    +0.045 C 
ATOM     13  C   UNL A   1      33.350 -37.082 -32.376  0.00  0.00    +0.240 C 
ATOM     14  O   UNL A   1      33.693 -36.269 -33.236  0.00  0.00    -0.273 OA
ATOM     15  N   UNL A   1      33.437 -38.440 -32.598  0.00  0.00    -0.185 NA
ATOM     16  C   UNL A   1      33.345 -39.247 -31.590  0.00  0.00    +0.040 C 
ATOM     17  C   UNL A   1      33.489 -40.840 -31.868  0.00  0.00    -0.002 C 
ENDROOT
BRANCH   9  18
ATOM     18  N   UNL A   1      34.706 -40.245 -29.589  0.00  0.00    -0.276 NA
ATOM     19  C   UNL A   1      35.673 -39.644 -28.991  0.00  0.00    +0.024 C 
BRANCH  19  20
ATOM     20  C   UNL A   1      35.621 -38.612 -27.924  0.00  0.00    -0.043 C 
ATOM     21  C   UNL A   1      36.454 -37.563 -27.867  0.00  0.00    -0.053 C 
BRANCH  21  22
ATOM     22  C   UNL A   1      37.548 -37.284 -28.798  0.00  0.00    -0.025 A 
ATOM     23  C   UNL A   1      37.350 -36.467 -29.907  0.00  0.00    -0.053 A 
ATOM     24  C   UNL A   1      38.408 -36.202 -30.789  0.00  0.00    -0.040 A 
ATOM     25  C   UNL A   1      39.697 -36.728 -30.597  0.00  0.00    +0.029 A 
ATOM     26  C   UNL A   1      39.857 -37.565 -29.478  0.00  0.00    -0.040 A 
ATOM     27  C   UNL A   1      38.806 -37.837 -28.587  0.00  0.00    -0.053 A 
BRANCH  25  28
ATOM     28  N   UNL A   1      40.746 -36.472 -31.490  0.00  0.00    -0.336 N 
ATOM     29  C   UNL A   1      42.082 -36.208 -30.955  0.00  0.00    +0.000 C 
ATOM     30  C   UNL A   1      40.446 -35.842 -32.774  0.00  0.00    +0.000 C 
ENDBRANCH  25  28
ENDBRANCH  21  22
ENDBRANCH  19  20
ENDBRANCH   9  18
TORSDOF 4
ENDMDL
MODEL 6
REMARK VINA RESULT:    -6.894     25.191     28.285
REMARK INTER + INTRA:          -9.641
REMARK INTER:                  -8.478
REMARK INTRA:                  -1.163
REMARK UNBOUND:                -1.135
REMARK  Name = cpd122.pdb
REMARK  8 active torsions:
REMARK  status: ('A' for Active; 'I' for Inactive)
REMARK    1  A    between atoms: C_1  and  C_2
REMARK    2  A    between atoms: C_6  and  C_7
REMARK    3  A    between atoms: C_9  and  N_10
REMARK    4  A    between atoms: C_11  and  C_12
REMARK    5  A    between atoms: C_13  and  C_14
REMARK    6  A    between atoms: C_17  and  N_18
REMARK    7  A    between atoms: N_18  and  C_19
REMARK    8  A    between atoms: N_18  and  C_20
REMARK                            x       y       z     vdW  Elec       q    Type
REMARK                         _______ _______ _______ _____ _____    ______ ____
ROOT
ATOM      1  C   UNL A   1      49.274 -36.415 -54.304  0.00  0.00    -0.046 C 
ATOM      2  C   UNL A   1      48.106 -36.279 -53.382  0.00  0.00    -0.085 C 
ATOM      3  C   UNL A   1      46.919 -35.695 -53.662  0.00  0.00    -0.035 C 
ATOM      4  C   UNL A   1      45.798 -35.606 -52.717  0.00  0.00    +0.006 C 
ATOM      5  C   UNL A   1      44.719 -36.479 -53.411  0.00  0.00    -0.077 C 
ATOM      6  C   UNL A   1      44.864 -36.927 -54.705  0.00  0.00    -0.073 C 
ATOM      7  C   UNL A   1      43.910 -37.874 -55.359  0.00  0.00    -0.044 C 
ATOM      8  C   UNL A   1      46.022 -36.334 -55.646  0.00  0.00    +0.001 C 
ATOM      9  C   UNL A   1      46.426 -34.990 -54.973  0.00  0.00    +0.113 C 
ATOM     10  C   UNL A   1      47.219 -33.751 -54.746  0.00  0.00    -0.000 C 
ATOM     11  C   UNL A   1      48.203 -33.124 -55.391  0.00  0.00    -0.068 C 
ATOM     12  C   UNL A   1      48.791 -31.872 -54.825  0.00  0.00    +0.045 C 
ATOM     13  C   UNL A   1      47.982 -31.234 -53.689  0.00  0.00    +0.240 C 
ATOM     14  O   UNL A   1      48.158 -30.042 -53.436  0.00  0.00    -0.273 OA
ATOM     15  N   UNL A   1      47.139 -32.013 -52.925  0.00  0.00    -0.185 NA
ATOM     16  C   UNL A   1      46.760 -33.163 -53.383  0.00  0.00    +0.040 C 
ATOM     17  C   UNL A   1      45.736 -34.046 -52.484  0.00  0.00    -0.002 C 
ENDROOT
BRANCH   9  18
ATOM     18  N   UNL A   1      45.079 -34.293 -55.041  0.00  0.00    -0.276 NA
ATOM     19  C   UNL A   1      44.498 -33.993 -56.148  0.00  0.00    +0.024 C 
BRANCH  19  20
ATOM     20  C   UNL A   1      44.962 -34.211 -57.542  0.00  0.00    -0.043 C 
ATOM     21  C   UNL A   1      45.293 -33.215 -58.377  0.00  0.00    -0.053 C 
BRANCH  21  22
ATOM     22  C   UNL A   1      45.220 -31.785 -58.079  0.00  0.00    -0.025 A 
ATOM     23  C   UNL A   1      44.108 -31.035 -58.448  0.00  0.00    -0.053 A 
ATOM     24  C   UNL A   1      44.046 -29.665 -58.150  0.00  0.00    -0.040 A 
ATOM     25  C   UNL A   1      45.078 -28.996 -57.470  0.00  0.00    +0.029 A 
ATOM     26  C   UNL A   1      46.196 -29.781 -57.130  0.00  0.00    -0.040 A 
ATOM     27  C   UNL A   1      46.269 -31.152 -57.420  0.00  0.00    -0.053 A 
BRANCH  25  28
ATOM     28  N   UNL A   1      45.018 -27.625 -57.189  0.00  0.00    -0.336 N 
ATOM     29  C   UNL A   1      43.848 -26.864 -57.626  0.00  0.00    +0.000 C 
ATOM     30  C   UNL A   1      46.263 -26.865 -57.093  0.00  0.00    +0.000 C 
ENDBRANCH  25  28
ENDBRANCH  21  22
ENDBRANCH  19  20
ENDBRANCH   9  18
TORSDOF 4
ENDMDL
MODEL 7
REMARK VINA RESULT:    -6.872     19.892     23.094
REMARK INTER + INTRA:          -9.614
REMARK INTER:                  -8.357
REMARK INTRA:                  -1.256
REMARK UNBOUND:                -1.135
REMARK  Name = cpd122.pdb
REMARK  8 active torsions:
REMARK  status: ('A' for Active; 'I' for Inactive)
REMARK    1  A    between atoms: C_1  and  C_2
REMARK    2  A    between atoms: C_6  and  C_7
REMARK    3  A    between atoms: C_9  and  N_10
REMARK    4  A    between atoms: C_11  and  C_12
REMARK    5  A    between atoms: C_13  and  C_14
REMARK    6  A    between atoms: C_17  and  N_18
REMARK    7  A    between atoms: N_18  and  C_19
REMARK    8  A    between atoms: N_18  and  C_20
REMARK                            x       y       z     vdW  Elec       q    Type
REMARK                         _______ _______ _______ _____ _____    ______ ____
ROOT
ATOM      1  C   UNL A   1      41.793 -21.932 -39.793  0.00  0.00    -0.046 C 
ATOM      2  C   UNL A   1      42.483 -21.335 -40.976  0.00  0.00    -0.085 C 
ATOM      3  C   UNL A   1      43.700 -20.744 -40.991  0.00  0.00    -0.035 C 
ATOM      4  C   UNL A   1      44.335 -20.187 -42.193  0.00  0.00    +0.006 C 
ATOM      5  C   UNL A   1      45.573 -21.108 -42.360  0.00  0.00    -0.077 C 
ATOM      6  C   UNL A   1      45.958 -21.998 -41.383  0.00  0.00    -0.073 C 
ATOM      7  C   UNL A   1      47.064 -22.988 -41.562  0.00  0.00    -0.044 C 
ATOM      8  C   UNL A   1      45.311 -21.925 -39.915  0.00  0.00    +0.001 C 
ATOM      9  C   UNL A   1      44.711 -20.492 -39.820  0.00  0.00    +0.113 C 
ATOM     10  C   UNL A   1      43.939 -19.362 -39.237  0.00  0.00    -0.000 C 
ATOM     11  C   UNL A   1      43.328 -19.132 -38.074  0.00  0.00    -0.068 C 
ATOM     12  C   UNL A   1      42.603 -17.845 -37.850  0.00  0.00    +0.045 C 
ATOM     13  C   UNL A   1      42.894 -16.750 -38.885  0.00  0.00    +0.240 C 
ATOM     14  O   UNL A   1      42.670 -15.577 -38.584  0.00  0.00    -0.273 OA
ATOM     15  N   UNL A   1      43.321 -17.097 -40.149  0.00  0.00    -0.185 NA
ATOM     16  C   UNL A   1      43.816 -18.278 -40.343  0.00  0.00    +0.040 C 
ATOM     17  C   UNL A   1      44.348 -18.651 -41.831  0.00  0.00    -0.002 C 
ENDROOT
BRANCH   9  18
ATOM     18  N   UNL A   1      45.990 -19.701 -40.033  0.00  0.00    -0.276 NA
ATOM     19  C   UNL A   1      46.886 -19.555 -39.122  0.00  0.00    +0.024 C 
BRANCH  19  20
ATOM     20  C   UNL A   1      46.898 -20.061 -37.726  0.00  0.00    -0.043 C 
ATOM     21  C   UNL A   1      46.732 -19.276 -36.652  0.00  0.00    -0.053 C 
BRANCH  21  22
ATOM     22  C   UNL A   1      46.553 -17.825 -36.670  0.00  0.00    -0.025 A 
ATOM     23  C   UNL A   1      47.383 -17.013 -37.435  0.00  0.00    -0.053 A 
ATOM     24  C   UNL A   1      47.198 -15.622 -37.449  0.00  0.00    -0.040 A 
ATOM     25  C   UNL A   1      46.179 -14.992 -36.714  0.00  0.00    +0.029 A 
ATOM     26  C   UNL A   1      45.371 -15.841 -35.935  0.00  0.00    -0.040 A 
ATOM     27  C   UNL A   1      45.546 -17.234 -35.914  0.00  0.00    -0.053 A 
BRANCH  25  28
ATOM     28  N   UNL A   1      46.008 -13.601 -36.719  0.00  0.00    -0.336 N 
ATOM     29  C   UNL A   1      44.658 -13.054 -36.586  0.00  0.00    +0.000 C 
ATOM     30  C   UNL A   1      46.951 -12.774 -37.468  0.00  0.00    +0.000 C 
ENDBRANCH  25  28
ENDBRANCH  21  22
ENDBRANCH  19  20
ENDBRANCH   9  18
TORSDOF 4
ENDMDL
MODEL 8
REMARK VINA RESULT:    -6.868     16.226     19.514
REMARK INTER + INTRA:          -9.609
REMARK INTER:                  -8.435
REMARK INTRA:                  -1.174
REMARK UNBOUND:                -1.135
REMARK  Name = cpd122.pdb
REMARK  8 active torsions:
REMARK  status: ('A' for Active; 'I' for Inactive)
REMARK    1  A    between atoms: C_1  and  C_2
REMARK    2  A    between atoms: C_6  and  C_7
REMARK    3  A    between atoms: C_9  and  N_10
REMARK    4  A    between atoms: C_11  and  C_12
REMARK    5  A    between atoms: C_13  and  C_14
REMARK    6  A    between atoms: C_17  and  N_18
REMARK    7  A    between atoms: N_18  and  C_19
REMARK    8  A    between atoms: N_18  and  C_20
REMARK                            x       y       z     vdW  Elec       q    Type
REMARK                         _______ _______ _______ _____ _____    ______ ____
ROOT
ATOM      1  C   UNL A   1      39.389 -17.241 -33.180  0.00  0.00    -0.046 C 
ATOM      2  C   UNL A   1      40.529 -18.124 -32.791  0.00  0.00    -0.085 C 
ATOM      3  C   UNL A   1      41.058 -19.132 -33.521  0.00  0.00    -0.035 C 
ATOM      4  C   UNL A   1      42.193 -19.959 -33.090  0.00  0.00    +0.006 C 
ATOM      5  C   UNL A   1      43.279 -19.588 -34.135  0.00  0.00    -0.077 C 
ATOM      6  C   UNL A   1      42.987 -18.853 -35.262  0.00  0.00    -0.073 C 
ATOM      7  C   UNL A   1      44.026 -18.368 -36.221  0.00  0.00    -0.044 C 
ATOM      8  C   UNL A   1      41.460 -18.587 -35.687  0.00  0.00    +0.001 C 
ATOM      9  C   UNL A   1      40.646 -19.678 -34.932  0.00  0.00    +0.113 C 
ATOM     10  C   UNL A   1      39.440 -20.394 -34.435  0.00  0.00    -0.000 C 
ATOM     11  C   UNL A   1      38.128 -20.306 -34.654  0.00  0.00    -0.068 C 
ATOM     12  C   UNL A   1      37.184 -21.206 -33.925  0.00  0.00    +0.045 C 
ATOM     13  C   UNL A   1      37.845 -22.389 -33.205  0.00  0.00    +0.240 C 
ATOM     14  O   UNL A   1      37.155 -23.369 -32.924  0.00  0.00    -0.273 OA
ATOM     15  N   UNL A   1      39.165 -22.306 -32.818  0.00  0.00    -0.185 NA
ATOM     16  C   UNL A   1      39.926 -21.415 -33.369  0.00  0.00    +0.040 C 
ATOM     17  C   UNL A   1      41.487 -21.360 -32.925  0.00  0.00    -0.002 C 
ENDROOT
BRANCH   9  18
ATOM     18  N   UNL A   1      41.309 -20.906 -35.531  0.00  0.00    -0.276 NA
ATOM     19  C   UNL A   1      41.037 -21.347 -36.709  0.00  0.00    +0.024 C 
BRANCH  19  20
ATOM     20  C   UNL A   1      40.066 -20.829 -37.705  0.00  0.00    -0.043 C 
ATOM     21  C   UNL A   1      40.402 -20.475 -38.954  0.00  0.00    -0.053 C 
BRANCH  21  22
ATOM     22  C   UNL A   1      41.751 -20.504 -39.520  0.00  0.00    -0.025 A 
ATOM     23  C   UNL A   1      42.616 -19.427 -39.359  0.00  0.00    -0.053 A 
ATOM     24  C   UNL A   1      43.909 -19.468 -39.901  0.00  0.00    -0.040 A 
ATOM     25  C   UNL A   1      44.391 -20.582 -40.611  0.00  0.00    +0.029 A 
ATOM     26  C   UNL A   1      43.484 -21.645 -40.772  0.00  0.00    -0.040 A 
ATOM     27  C   UNL A   1      42.188 -21.616 -40.234  0.00  0.00    -0.053 A 
BRANCH  25  28
ATOM     28  N   UNL A   1      45.679 -20.612 -41.163  0.00  0.00    -0.336 N 
ATOM     29  C   UNL A   1      46.617 -21.641 -40.714  0.00  0.00    +0.000 C 
ATOM     30  C   UNL A   1      46.285 -19.362 -41.618  0.00  0.00    +0.000 C 
ENDBRANCH  25  28
ENDBRANCH  21  22
ENDBRANCH  19  20
ENDBRANCH   9  18
TORSDOF 4
ENDMDL
MODEL 9
REMARK VINA RESULT:    -6.768      3.196      5.722
REMARK INTER + INTRA:          -9.486
REMARK INTER:                  -8.387
REMARK INTRA:                  -1.099
REMARK UNBOUND:                -1.135
REMARK  Name = cpd122.pdb
REMARK  8 active torsions:
REMARK  status: ('A' for Active; 'I' for Inactive)
REMARK    1  A    between atoms: C_1  and  C_2
REMARK    2  A    between atoms: C_6  and  C_7
REMARK    3  A    between atoms: C_9  and  N_10
REMARK    4  A    between atoms: C_11  and  C_12
REMARK    5  A    between atoms: C_13  and  C_14
REMARK    6  A    between atoms: C_17  and  N_18
REMARK    7  A    between atoms: N_18  and  C_19
REMARK    8  A    between atoms: N_18  and  C_20
REMARK                            x       y       z     vdW  Elec       q    Type
REMARK                         _______ _______ _______ _____ _____    ______ ____
ROOT
ATOM      1  C   UNL A   1      35.414 -42.238 -27.730  0.00  0.00    -0.046 C 
ATOM      2  C   UNL A   1      34.132 -42.075 -28.481  0.00  0.00    -0.085 C 
ATOM      3  C   UNL A   1      33.838 -41.108 -29.379  0.00  0.00    -0.035 C 
ATOM      4  C   UNL A   1      32.561 -41.009 -30.099  0.00  0.00    +0.006 C 
ATOM      5  C   UNL A   1      33.001 -41.243 -31.569  0.00  0.00    -0.077 C 
ATOM      6  C   UNL A   1      34.326 -41.260 -31.942  0.00  0.00    -0.073 C 
ATOM      7  C   UNL A   1      34.789 -41.610 -33.319  0.00  0.00    -0.044 C 
ATOM      8  C   UNL A   1      35.463 -40.759 -30.924  0.00  0.00    +0.001 C 
ATOM      9  C   UNL A   1      34.701 -39.897 -29.876  0.00  0.00    +0.113 C 
ATOM     10  C   UNL A   1      34.505 -39.096 -28.637  0.00  0.00    -0.000 C 
ATOM     11  C   UNL A   1      35.304 -38.613 -27.685  0.00  0.00    -0.068 C 
ATOM     12  C   UNL A   1      34.725 -37.852 -26.536  0.00  0.00    +0.045 C 
ATOM     13  C   UNL A   1      33.265 -37.416 -26.719  0.00  0.00    +0.240 C 
ATOM     14  O   UNL A   1      32.838 -36.483 -26.039  0.00  0.00    -0.273 OA
ATOM     15  N   UNL A   1      32.442 -38.117 -27.574  0.00  0.00    -0.185 NA
ATOM     16  C   UNL A   1      32.975 -38.884 -28.471  0.00  0.00    +0.040 C 
ATOM     17  C   UNL A   1      31.987 -39.670 -29.492  0.00  0.00    -0.002 C 
ENDROOT
BRANCH   9  18
ATOM     18  N   UNL A   1      34.132 -38.852 -30.819  0.00  0.00    -0.276 NA
ATOM     19  C   UNL A   1      34.771 -37.787 -31.155  0.00  0.00    +0.024 C 
BRANCH  19  20
ATOM     20  C   UNL A   1      36.116 -37.324 -30.729  0.00  0.00    -0.043 C 
ATOM     21  C   UNL A   1      36.357 -36.100 -30.238  0.00  0.00    -0.053 C 
BRANCH  21  22
ATOM     22  C   UNL A   1      35.373 -35.030 -30.079  0.00  0.00    -0.025 A 
ATOM     23  C   UNL A   1      35.356 -33.941 -30.944  0.00  0.00    -0.053 A 
ATOM     24  C   UNL A   1      34.403 -32.924 -30.785  0.00  0.00    -0.040 A 
ATOM     25  C   UNL A   1      33.429 -32.957 -29.771  0.00  0.00    +0.029 A 
ATOM     26  C   UNL A   1      33.488 -34.063 -28.903  0.00  0.00    -0.040 A 
ATOM     27  C   UNL A   1      34.436 -35.087 -29.052  0.00  0.00    -0.053 A 
BRANCH  25  28
ATOM     28  N   UNL A   1      32.489 -31.931 -29.608  0.00  0.00    -0.336 N 
ATOM     29  C   UNL A   1      31.192 -32.249 -29.011  0.00  0.00    +0.000 C 
ATOM     30  C   UNL A   1      32.494 -30.810 -30.545  0.00  0.00    +0.000 C 
ENDBRANCH  25  28
ENDBRANCH  21  22
ENDBRANCH  19  20
ENDBRANCH   9  18
TORSDOF 4
ENDMDL
MODEL 10
REMARK VINA RESULT:    -6.762      2.118      3.445
REMARK INTER + INTRA:          -9.479
REMARK INTER:                  -8.561
REMARK INTRA:                  -0.917
REMARK UNBOUND:                -1.135
REMARK  Name = cpd122.pdb
REMARK  8 active torsions:
REMARK  status: ('A' for Active; 'I' for Inactive)
REMARK    1  A    between atoms: C_1  and  C_2
REMARK    2  A    between atoms: C_6  and  C_7
REMARK    3  A    between atoms: C_9  and  N_10
REMARK    4  A    between atoms: C_11  and  C_12
REMARK    5  A    between atoms: C_13  and  C_14
REMARK    6  A    between atoms: C_17  and  N_18
REMARK    7  A    between atoms: N_18  and  C_19
REMARK    8  A    between atoms: N_18  and  C_20
REMARK                            x       y       z     vdW  Elec       q    Type
REMARK                         _______ _______ _______ _____ _____    ______ ____
ROOT
ATOM      1  C   UNL A   1      30.803 -40.612 -28.675  0.00  0.00    -0.046 C 
ATOM      2  C   UNL A   1      31.476 -41.094 -29.919  0.00  0.00    -0.085 C 
ATOM      3  C   UNL A   1      32.483 -40.483 -30.583  0.00  0.00    -0.035 C 
ATOM      4  C   UNL A   1      33.117 -41.016 -31.796  0.00  0.00    +0.006 C 
ATOM      5  C   UNL A   1      34.565 -41.292 -31.309  0.00  0.00    -0.077 C 
ATOM      6  C   UNL A   1      35.024 -40.842 -30.092  0.00  0.00    -0.073 C 
ATOM      7  C   UNL A   1      36.364 -41.198 -29.535  0.00  0.00    -0.044 C 
ATOM      8  C   UNL A   1      34.173 -39.774 -29.246  0.00  0.00    +0.001 C 
ATOM      9  C   UNL A   1      33.210 -39.126 -30.284  0.00  0.00    +0.113 C 
ATOM     10  C   UNL A   1      32.091 -38.279 -30.777  0.00  0.00    -0.000 C 
ATOM     11  C   UNL A   1      31.279 -37.372 -30.235  0.00  0.00    -0.068 C 
ATOM     12  C   UNL A   1      30.216 -36.727 -31.064  0.00  0.00    +0.045 C 
ATOM     13  C   UNL A   1      30.356 -36.941 -32.576  0.00  0.00    +0.240 C 
ATOM     14  O   UNL A   1      29.791 -36.157 -33.339  0.00  0.00    -0.273 OA
ATOM     15  N   UNL A   1      31.039 -38.040 -33.053  0.00  0.00    -0.185 NA
ATOM     16  C   UNL A   1      31.850 -38.667 -32.262  0.00  0.00    +0.040 C 
ATOM     17  C   UNL A   1      32.673 -39.935 -32.857  0.00  0.00    -0.002 C 
ENDROOT
BRANCH   9  18
ATOM     18  N   UNL A   1      34.253 -38.560 -31.231  0.00  0.00    -0.276 NA
ATOM     19  C   UNL A   1      35.002 -37.558 -30.933  0.00  0.00    +0.024 C 
BRANCH  19  20
ATOM     20  C   UNL A   1      35.029 -36.740 -29.694  0.00  0.00    -0.043 C 
ATOM     21  C   UNL A   1      36.160 -36.356 -29.084  0.00  0.00    -0.053 C 
BRANCH  21  22
ATOM     22  C   UNL A   1      37.519 -36.698 -29.503  0.00  0.00    -0.025 A 
ATOM     23  C   UNL A   1      38.136 -36.019 -30.549  0.00  0.00    -0.053 A 
ATOM     24  C   UNL A   1      39.442 -36.351 -30.938  0.00  0.00    -0.040 A 
ATOM     25  C   UNL A   1      40.184 -37.360 -30.297  0.00  0.00    +0.029 A 
ATOM     26  C   UNL A   1      39.523 -38.039 -29.257  0.00  0.00    -0.040 A 
ATOM     27  C   UNL A   1      38.217 -37.715 -28.859  0.00  0.00    -0.053 A 
BRANCH  25  28
ATOM     28  N   UNL A   1      41.483 -37.698 -30.699  0.00  0.00    -0.336 N 
ATOM     29  C   UNL A   1      42.159 -38.814 -30.039  0.00  0.00    +0.000 C 
ATOM     30  C   UNL A   1      42.358 -36.651 -31.223  0.00  0.00    +0.000 C 
ENDBRANCH  25  28
ENDBRANCH  21  22
ENDBRANCH  19  20
ENDBRANCH   9  18
TORSDOF 4
ENDMDL
MODEL 11
REMARK VINA RESULT:    -6.760     17.281     21.368
REMARK INTER + INTRA:          -9.476
REMARK INTER:                  -8.128
REMARK INTRA:                  -1.347
REMARK UNBOUND:                -1.135
REMARK  Name = cpd122.pdb
REMARK  8 active torsions:
REMARK  status: ('A' for Active; 'I' for Inactive)
REMARK    1  A    between atoms: C_1  and  C_2
REMARK    2  A    between atoms: C_6  and  C_7
REMARK    3  A    between atoms: C_9  and  N_10
REMARK    4  A    between atoms: C_11  and  C_12
REMARK    5  A    between atoms: C_13  and  C_14
REMARK    6  A    between atoms: C_17  and  N_18
REMARK    7  A    between atoms: N_18  and  C_19
REMARK    8  A    between atoms: N_18  and  C_20
REMARK                            x       y       z     vdW  Elec       q    Type
REMARK                         _______ _______ _______ _____ _____    ______ ____
ROOT
ATOM      1  C   UNL A   1      46.474 -15.480 -37.424  0.00  0.00    -0.046 C 
ATOM      2  C   UNL A   1      47.207 -16.778 -37.314  0.00  0.00    -0.085 C 
ATOM      3  C   UNL A   1      46.694 -18.015 -37.504  0.00  0.00    -0.035 C 
ATOM      4  C   UNL A   1      47.472 -19.257 -37.397  0.00  0.00    +0.006 C 
ATOM      5  C   UNL A   1      47.423 -19.794 -38.853  0.00  0.00    -0.077 C 
ATOM      6  C   UNL A   1      46.594 -19.247 -39.805  0.00  0.00    -0.073 C 
ATOM      7  C   UNL A   1      46.614 -19.651 -41.245  0.00  0.00    -0.044 C 
ATOM      8  C   UNL A   1      45.438 -18.215 -39.382  0.00  0.00    +0.001 C 
ATOM      9  C   UNL A   1      45.233 -18.457 -37.858  0.00  0.00    +0.113 C 
ATOM     10  C   UNL A   1      44.701 -18.219 -36.489  0.00  0.00    -0.000 C 
ATOM     11  C   UNL A   1      43.780 -17.416 -35.956  0.00  0.00    -0.068 C 
ATOM     12  C   UNL A   1      43.530 -17.436 -34.483  0.00  0.00    +0.045 C 
ATOM     13  C   UNL A   1      44.147 -18.627 -33.739  0.00  0.00    +0.240 C 
ATOM     14  O   UNL A   1      43.687 -18.941 -32.641  0.00  0.00    -0.273 OA
ATOM     15  N   UNL A   1      45.247 -19.270 -34.266  0.00  0.00    -0.185 NA
ATOM     16  C   UNL A   1      45.522 -19.117 -35.522  0.00  0.00    +0.040 C 
ATOM     17  C   UNL A   1      46.798 -19.915 -36.130  0.00  0.00    -0.002 C 
ENDROOT
BRANCH   9  18
ATOM     18  N   UNL A   1      44.840 -19.923 -37.917  0.00  0.00    -0.276 NA
ATOM     19  C   UNL A   1      43.668 -20.322 -38.266  0.00  0.00    +0.024 C 
BRANCH  19  20
ATOM     20  C   UNL A   1      42.478 -19.522 -38.651  0.00  0.00    -0.043 C 
ATOM     21  C   UNL A   1      41.281 -19.640 -38.058  0.00  0.00    -0.053 C 
BRANCH  21  22
ATOM     22  C   UNL A   1      40.944 -20.576 -36.986  0.00  0.00    -0.025 A 
ATOM     23  C   UNL A   1      41.207 -20.263 -35.656  0.00  0.00    -0.053 A 
ATOM     24  C   UNL A   1      40.873 -21.166 -34.636  0.00  0.00    -0.040 A 
ATOM     25  C   UNL A   1      40.260 -22.404 -34.898  0.00  0.00    +0.029 A 
ATOM     26  C   UNL A   1      40.027 -22.696 -36.254  0.00  0.00    -0.040 A 
ATOM     27  C   UNL A   1      40.355 -21.801 -37.284  0.00  0.00    -0.053 A 
BRANCH  25  28
ATOM     28  N   UNL A   1      39.943 -23.308 -33.876  0.00  0.00    -0.336 N 
ATOM     29  C   UNL A   1      38.564 -23.782 -33.754  0.00  0.00    +0.000 C 
ATOM     30  C   UNL A   1      40.709 -23.270 -32.632  0.00  0.00    +0.000 C 
ENDBRANCH  25  28
ENDBRANCH  21  22
ENDBRANCH  19  20
ENDBRANCH   9  18
TORSDOF 4
ENDMDL
MODEL 12
REMARK VINA RESULT:    -6.631     15.957     18.899
REMARK INTER + INTRA:          -9.316
REMARK INTER:                  -8.041
REMARK INTRA:                  -1.276
REMARK UNBOUND:                -1.135
REMARK  Name = cpd122.pdb
REMARK  8 active torsions:
REMARK  status: ('A' for Active; 'I' for Inactive)
REMARK    1  A    between atoms: C_1  and  C_2
REMARK    2  A    between atoms: C_6  and  C_7
REMARK    3  A    between atoms: C_9  and  N_10
REMARK    4  A    between atoms: C_11  and  C_12
REMARK    5  A    between atoms: C_13  and  C_14
REMARK    6  A    between atoms: C_17  and  N_18
REMARK    7  A    between atoms: N_18  and  C_19
REMARK    8  A    between atoms: N_18  and  C_20
REMARK                            x       y       z     vdW  Elec       q    Type
REMARK                         _______ _______ _______ _____ _____    ______ ____
ROOT
ATOM      1  C   UNL A   1      37.516 -19.124 -33.537  0.00  0.00    -0.046 C 
ATOM      2  C   UNL A   1      37.591 -20.560 -33.943  0.00  0.00    -0.085 C 
ATOM      3  C   UNL A   1      38.687 -21.221 -34.380  0.00  0.00    -0.035 C 
ATOM      4  C   UNL A   1      38.702 -22.643 -34.751  0.00  0.00    +0.006 C 
ATOM      5  C   UNL A   1      39.647 -23.246 -33.678  0.00  0.00    -0.077 C 
ATOM      6  C   UNL A   1      40.396 -22.455 -32.836  0.00  0.00    -0.073 C 
ATOM      7  C   UNL A   1      41.214 -22.997 -31.709  0.00  0.00    -0.044 C 
ATOM      8  C   UNL A   1      40.537 -20.879 -33.113  0.00  0.00    +0.001 C 
ATOM      9  C   UNL A   1      40.150 -20.706 -34.610  0.00  0.00    +0.113 C 
ATOM     10  C   UNL A   1      39.826 -19.985 -35.871  0.00  0.00    -0.000 C 
ATOM     11  C   UNL A   1      39.863 -18.714 -36.272  0.00  0.00    -0.068 C 
ATOM     12  C   UNL A   1      39.418 -18.351 -37.651  0.00  0.00    +0.045 C 
ATOM     13  C   UNL A   1      39.247 -19.537 -38.610  0.00  0.00    +0.240 C 
ATOM     14  O   UNL A   1      39.270 -19.325 -39.822  0.00  0.00    -0.273 OA
ATOM     15  N   UNL A   1      38.992 -20.794 -38.106  0.00  0.00    -0.185 NA
ATOM     16  C   UNL A   1      39.257 -21.038 -36.862  0.00  0.00    +0.040 C 
ATOM     17  C   UNL A   1      38.986 -22.537 -36.300  0.00  0.00    -0.002 C 
ENDROOT
BRANCH   9  18
ATOM     18  N   UNL A   1      41.217 -21.597 -35.221  0.00  0.00    -0.276 NA
ATOM     19  C   UNL A   1      42.434 -21.217 -35.396  0.00  0.00    +0.024 C 
BRANCH  19  20
ATOM     20  C   UNL A   1      43.061 -19.905 -35.095  0.00  0.00    -0.043 C 
ATOM     21  C   UNL A   1      43.773 -19.202 -35.987  0.00  0.00    -0.053 C 
BRANCH  21  22
ATOM     22  C   UNL A   1      44.076 -19.611 -37.358  0.00  0.00    -0.025 A 
ATOM     23  C   UNL A   1      45.274 -20.247 -37.665  0.00  0.00    -0.053 A 
ATOM     24  C   UNL A   1      45.551 -20.640 -38.983  0.00  0.00    -0.040 A 
ATOM     25  C   UNL A   1      44.646 -20.427 -40.037  0.00  0.00    +0.029 A 
ATOM     26  C   UNL A   1      43.453 -19.764 -39.695  0.00  0.00    -0.040 A 
ATOM     27  C   UNL A   1      43.164 -19.366 -38.380  0.00  0.00    -0.053 A 
BRANCH  25  28
ATOM     28  N   UNL A   1      44.934 -20.809 -41.354  0.00  0.00    -0.336 N 
ATOM     29  C   UNL A   1      43.989 -20.459 -42.414  0.00  0.00    +0.000 C 
ATOM     30  C   UNL A   1      45.721 -22.018 -41.586  0.00  0.00    +0.000 C 
ENDBRANCH  25  28
ENDBRANCH  21  22
ENDBRANCH  19  20
ENDBRANCH   9  18
TORSDOF 4
ENDMDL
MODEL 13
REMARK VINA RESULT:    -6.628     16.510     19.569
REMARK INTER + INTRA:          -9.312
REMARK INTER:                  -8.074
REMARK INTRA:                  -1.239
REMARK UNBOUND:                -1.135
REMARK  Name = cpd122.pdb
REMARK  8 active torsions:
REMARK  status: ('A' for Active; 'I' for Inactive)
REMARK    1  A    between atoms: C_1  and  C_2
REMARK    2  A    between atoms: C_6  and  C_7
REMARK    3  A    between atoms: C_9  and  N_10
REMARK    4  A    between atoms: C_11  and  C_12
REMARK    5  A    between atoms: C_13  and  C_14
REMARK    6  A    between atoms: C_17  and  N_18
REMARK    7  A    between atoms: N_18  and  C_19
REMARK    8  A    between atoms: N_18  and  C_20
REMARK                            x       y       z     vdW  Elec       q    Type
REMARK                         _______ _______ _______ _____ _____    ______ ____
ROOT
ATOM      1  C   UNL A   1      40.281 -22.932 -33.379  0.00  0.00    -0.046 C 
ATOM      2  C   UNL A   1      39.374 -22.542 -34.501  0.00  0.00    -0.085 C 
ATOM      3  C   UNL A   1      39.575 -21.547 -35.395  0.00  0.00    -0.035 C 
ATOM      4  C   UNL A   1      38.651 -21.220 -36.491  0.00  0.00    +0.006 C 
ATOM      5  C   UNL A   1      39.507 -21.549 -37.743  0.00  0.00    -0.077 C 
ATOM      6  C   UNL A   1      40.855 -21.816 -37.658  0.00  0.00    -0.073 C 
ATOM      7  C   UNL A   1      41.681 -22.262 -38.821  0.00  0.00    -0.044 C 
ATOM      8  C   UNL A   1      41.657 -21.524 -36.297  0.00  0.00    +0.001 C 
ATOM      9  C   UNL A   1      40.757 -20.523 -35.516  0.00  0.00    +0.113 C 
ATOM     10  C   UNL A   1      40.305 -19.686 -34.372  0.00  0.00    -0.000 C 
ATOM     11  C   UNL A   1      40.813 -19.349 -33.186  0.00  0.00    -0.068 C 
ATOM     12  C   UNL A   1      40.031 -18.480 -32.255  0.00  0.00    +0.045 C 
ATOM     13  C   UNL A   1      38.819 -17.783 -32.887  0.00  0.00    +0.240 C 
ATOM     14  O   UNL A   1      38.363 -16.779 -32.339  0.00  0.00    -0.273 OA
ATOM     15  N   UNL A   1      38.216 -18.328 -34.001  0.00  0.00    -0.185 NA
ATOM     16  C   UNL A   1      38.872 -19.191 -34.710  0.00  0.00    +0.040 C 
ATOM     17  C   UNL A   1      38.158 -19.791 -36.039  0.00  0.00    -0.002 C 
ENDROOT
BRANCH   9  18
ATOM     18  N   UNL A   1      40.732 -19.401 -36.539  0.00  0.00    -0.276 NA
ATOM     19  C   UNL A   1      41.726 -18.609 -36.737  0.00  0.00    +0.024 C 
BRANCH  19  20
ATOM     20  C   UNL A   1      43.046 -18.571 -36.058  0.00  0.00    -0.043 C 
ATOM     21  C   UNL A   1      44.193 -18.943 -36.645  0.00  0.00    -0.053 C 
BRANCH  21  22
ATOM     22  C   UNL A   1      44.330 -19.470 -38.002  0.00  0.00    -0.025 A 
ATOM     23  C   UNL A   1      44.956 -20.690 -38.234  0.00  0.00    -0.053 A 
ATOM     24  C   UNL A   1      45.076 -21.189 -39.540  0.00  0.00    -0.040 A 
ATOM     25  C   UNL A   1      44.571 -20.501 -40.657  0.00  0.00    +0.029 A 
ATOM     26  C   UNL A   1      43.962 -19.261 -40.389  0.00  0.00    -0.040 A 
ATOM     27  C   UNL A   1      43.835 -18.752 -39.087  0.00  0.00    -0.053 A 
BRANCH  25  28
ATOM     28  N   UNL A   1      44.707 -20.996 -41.961  0.00  0.00    -0.336 N 
ATOM     29  C   UNL A   1      45.650 -22.086 -42.208  0.00  0.00    +0.000 C 
ATOM     30  C   UNL A   1      44.474 -20.097 -43.089  0.00  0.00    +0.000 C 
ENDBRANCH  25  28
ENDBRANCH  21  22
ENDBRANCH  19  20
ENDBRANCH   9  18
TORSDOF 4
ENDMDL
MODEL 14
REMARK VINA RESULT:    -6.597      3.291      7.036
REMARK INTER + INTRA:          -9.274
REMARK INTER:                  -7.982
REMARK INTRA:                  -1.292
REMARK UNBOUND:                -1.135
REMARK  Name = cpd122.pdb
REMARK  8 active torsions:
REMARK  status: ('A' for Active; 'I' for Inactive)
REMARK    1  A    between atoms: C_1  and  C_2
REMARK    2  A    between atoms: C_6  and  C_7
REMARK    3  A    between atoms: C_9  and  N_10
REMARK    4  A    between atoms: C_11  and  C_12
REMARK    5  A    between atoms: C_13  and  C_14
REMARK    6  A    between atoms: C_17  and  N_18
REMARK    7  A    between atoms: N_18  and  C_19
REMARK    8  A    between atoms: N_18  and  C_20
REMARK                            x       y       z     vdW  Elec       q    Type
REMARK                         _______ _______ _______ _____ _____    ______ ____
ROOT
ATOM      1  C   UNL A   1      31.761 -39.657 -29.572  0.00  0.00    -0.046 C 
ATOM      2  C   UNL A   1      31.944 -38.962 -28.261  0.00  0.00    -0.085 C 
ATOM      3  C   UNL A   1      32.570 -37.782 -28.052  0.00  0.00    -0.035 C 
ATOM      4  C   UNL A   1      32.704 -37.139 -26.737  0.00  0.00    +0.006 C 
ATOM      5  C   UNL A   1      31.868 -35.845 -26.924  0.00  0.00    -0.077 C 
ATOM      6  C   UNL A   1      31.410 -35.443 -28.158  0.00  0.00    -0.073 C 
ATOM      7  C   UNL A   1      30.496 -34.277 -28.356  0.00  0.00    -0.044 C 
ATOM      8  C   UNL A   1      31.957 -36.144 -29.496  0.00  0.00    +0.001 C 
ATOM      9  C   UNL A   1      33.288 -36.827 -29.067  0.00  0.00    +0.113 C 
ATOM     10  C   UNL A   1      34.497 -37.683 -29.201  0.00  0.00    -0.000 C 
ATOM     11  C   UNL A   1      35.085 -38.345 -30.198  0.00  0.00    -0.068 C 
ATOM     12  C   UNL A   1      36.316 -39.150 -29.940  0.00  0.00    +0.045 C 
ATOM     13  C   UNL A   1      36.989 -38.887 -28.586  0.00  0.00    +0.240 C 
ATOM     14  O   UNL A   1      38.175 -39.188 -28.447  0.00  0.00    -0.273 OA
ATOM     15  N   UNL A   1      36.245 -38.398 -27.534  0.00  0.00    -0.185 NA
ATOM     16  C   UNL A   1      35.108 -37.830 -27.779  0.00  0.00    +0.040 C 
ATOM     17  C   UNL A   1      34.266 -37.227 -26.529  0.00  0.00    -0.002 C 
ENDROOT
BRANCH   9  18
ATOM     18  N   UNL A   1      34.033 -35.589 -28.601  0.00  0.00    -0.276 NA
ATOM     19  C   UNL A   1      34.637 -34.788 -29.405  0.00  0.00    +0.024 C 
BRANCH  19  20
ATOM     20  C   UNL A   1      34.773 -34.865 -30.882  0.00  0.00    -0.043 C 
ATOM     21  C   UNL A   1      34.067 -34.105 -31.732  0.00  0.00    -0.053 C 
BRANCH  21  22
ATOM     22  C   UNL A   1      33.047 -33.125 -31.362  0.00  0.00    -0.025 A 
ATOM     23  C   UNL A   1      31.729 -33.275 -31.781  0.00  0.00    -0.053 A 
ATOM     24  C   UNL A   1      30.757 -32.331 -31.415  0.00  0.00    -0.040 A 
ATOM     25  C   UNL A   1      31.056 -31.215 -30.614  0.00  0.00    +0.029 A 
ATOM     26  C   UNL A   1      32.402 -31.085 -30.224  0.00  0.00    -0.040 A 
ATOM     27  C   UNL A   1      33.383 -32.022 -30.584  0.00  0.00    -0.053 A 
BRANCH  25  28
ATOM     28  N   UNL A   1      30.084 -30.269 -30.263  0.00  0.00    -0.336 N 
ATOM     29  C   UNL A   1      29.725 -29.233 -31.231  0.00  0.00    +0.000 C 
ATOM     30  C   UNL A   1      29.929 -29.899 -28.858  0.00  0.00    +0.000 C 
ENDBRANCH  25  28
ENDBRANCH  21  22
ENDBRANCH  19  20
ENDBRANCH   9  18
TORSDOF 4
ENDMDL
MODEL 15
REMARK VINA RESULT:    -6.316      3.197      7.184
REMARK INTER + INTRA:          -8.928
REMARK INTER:                  -7.521
REMARK INTRA:                  -1.407
REMARK UNBOUND:                -1.135
REMARK  Name = cpd122.pdb
REMARK  8 active torsions:
REMARK  status: ('A' for Active; 'I' for Inactive)
REMARK    1  A    between atoms: C_1  and  C_2
REMARK    2  A    between atoms: C_6  and  C_7
REMARK    3  A    between atoms: C_9  and  N_10
REMARK    4  A    between atoms: C_11  and  C_12
REMARK    5  A    between atoms: C_13  and  C_14
REMARK    6  A    between atoms: C_17  and  N_18
REMARK    7  A    between atoms: N_18  and  C_19
REMARK    8  A    between atoms: N_18  and  C_20
REMARK                            x       y       z     vdW  Elec       q    Type
REMARK                         _______ _______ _______ _____ _____    ______ ____
ROOT
ATOM      1  C   UNL A   1      34.122 -36.889 -26.865  0.00  0.00    -0.046 C 
ATOM      2  C   UNL A   1      35.334 -36.862 -27.738  0.00  0.00    -0.085 C 
ATOM      3  C   UNL A   1      35.362 -36.693 -29.079  0.00  0.00    -0.035 C 
ATOM      4  C   UNL A   1      36.592 -36.659 -29.883  0.00  0.00    +0.006 C 
ATOM      5  C   UNL A   1      36.588 -35.203 -30.419  0.00  0.00    -0.077 C 
ATOM      6  C   UNL A   1      35.494 -34.378 -30.284  0.00  0.00    -0.073 C 
ATOM      7  C   UNL A   1      35.499 -32.934 -30.670  0.00  0.00    -0.044 C 
ATOM      8  C   UNL A   1      34.077 -34.976 -29.818  0.00  0.00    +0.001 C 
ATOM      9  C   UNL A   1      34.184 -36.503 -30.096  0.00  0.00    +0.113 C 
ATOM     10  C   UNL A   1      33.778 -37.935 -30.075  0.00  0.00    -0.000 C 
ATOM     11  C   UNL A   1      32.682 -38.604 -29.718  0.00  0.00    -0.068 C 
ATOM     12  C   UNL A   1      32.650 -40.095 -29.814  0.00  0.00    +0.045 C 
ATOM     13  C   UNL A   1      33.795 -40.716 -30.625  0.00  0.00    +0.240 C 
ATOM     14  O   UNL A   1      33.648 -41.850 -31.082  0.00  0.00    -0.273 OA
ATOM     15  N   UNL A   1      34.986 -40.036 -30.762  0.00  0.00    -0.185 NA
ATOM     16  C   UNL A   1      35.012 -38.762 -30.532  0.00  0.00    +0.040 C 
ATOM     17  C   UNL A   1      36.417 -37.975 -30.737  0.00  0.00    -0.002 C 
ENDROOT
BRANCH   9  18
ATOM     18  N   UNL A   1      34.431 -36.441 -31.593  0.00  0.00    -0.276 NA
ATOM     19  C   UNL A   1      33.504 -36.184 -32.447  0.00  0.00    +0.024 C 
BRANCH  19  20
ATOM     20  C   UNL A   1      32.061 -35.923 -32.218  0.00  0.00    -0.043 C 
ATOM     21  C   UNL A   1      31.079 -36.656 -32.764  0.00  0.00    -0.053 C 
BRANCH  21  22
ATOM     22  C   UNL A   1      31.257 -37.782 -33.680  0.00  0.00    -0.025 A 
ATOM     23  C   UNL A   1      31.632 -39.035 -33.206  0.00  0.00    -0.053 A 
ATOM     24  C   UNL A   1      31.794 -40.109 -34.094  0.00  0.00    -0.040 A 
ATOM     25  C   UNL A   1      31.580 -39.980 -35.477  0.00  0.00    +0.029 A 
ATOM     26  C   UNL A   1      31.222 -38.695 -35.924  0.00  0.00    -0.040 A 
ATOM     27  C   UNL A   1      31.056 -37.613 -35.046  0.00  0.00    -0.053 A 
BRANCH  25  28
ATOM     28  N   UNL A   1      31.758 -41.053 -36.361  0.00  0.00    -0.336 N 
ATOM     29  C   UNL A   1      32.155 -42.354 -35.823  0.00  0.00    +0.000 C 
ATOM     30  C   UNL A   1      32.189 -40.779 -37.730  0.00  0.00    +0.000 C 
ENDBRANCH  25  28
ENDBRANCH  21  22
ENDBRANCH  19  20
ENDBRANCH   9  18
TORSDOF 4
ENDMDL
MODEL 16
REMARK VINA RESULT:    -6.302     20.630     24.452
REMARK INTER + INTRA:          -8.910
REMARK INTER:                  -7.685
REMARK INTRA:                  -1.226
REMARK UNBOUND:                -1.135
REMARK  Name = cpd122.pdb
REMARK  8 active torsions:
REMARK  status: ('A' for Active; 'I' for Inactive)
REMARK    1  A    between atoms: C_1  and  C_2
REMARK    2  A    between atoms: C_6  and  C_7
REMARK    3  A    between atoms: C_9  and  N_10
REMARK    4  A    between atoms: C_11  and  C_12
REMARK    5  A    between atoms: C_13  and  C_14
REMARK    6  A    between atoms: C_17  and  N_18
REMARK    7  A    between atoms: N_18  and  C_19
REMARK    8  A    between atoms: N_18  and  C_20
REMARK                            x       y       z     vdW  Elec       q    Type
REMARK                         _______ _______ _______ _____ _____    ______ ____
ROOT
ATOM      1  C   UNL A   1      42.019 -19.986 -39.401  0.00  0.00    -0.046 C 
ATOM      2  C   UNL A   1      43.030 -20.279 -38.341  0.00  0.00    -0.085 C 
ATOM      3  C   UNL A   1      44.296 -19.806 -38.279  0.00  0.00    -0.035 C 
ATOM      4  C   UNL A   1      45.243 -20.118 -37.198  0.00  0.00    +0.006 C 
ATOM      5  C   UNL A   1      45.453 -18.727 -36.543  0.00  0.00    -0.077 C 
ATOM      6  C   UNL A   1      44.993 -17.568 -37.125  0.00  0.00    -0.073 C 
ATOM      7  C   UNL A   1      45.062 -16.230 -36.462  0.00  0.00    -0.044 C 
ATOM      8  C   UNL A   1      44.466 -17.573 -38.642  0.00  0.00    +0.001 C 
ATOM      9  C   UNL A   1      45.071 -18.865 -39.265  0.00  0.00    +0.113 C 
ATOM     10  C   UNL A   1      45.295 -19.923 -40.287  0.00  0.00    -0.000 C 
ATOM     11  C   UNL A   1      44.933 -20.104 -41.557  0.00  0.00    -0.068 C 
ATOM     12  C   UNL A   1      45.335 -21.349 -42.280  0.00  0.00    +0.045 C 
ATOM     13  C   UNL A   1      46.414 -22.184 -41.579  0.00  0.00    +0.240 C 
ATOM     14  O   UNL A   1      47.074 -22.980 -42.249  0.00  0.00    -0.273 OA
ATOM     15  N   UNL A   1      46.574 -22.091 -40.213  0.00  0.00    -0.185 NA
ATOM     16  C   UNL A   1      46.087 -21.065 -39.592  0.00  0.00    +0.040 C 
ATOM     17  C   UNL A   1      46.320 -20.957 -37.989  0.00  0.00    -0.002 C 
ENDROOT
BRANCH   9  18
ATOM     18  N   UNL A   1      46.541 -18.542 -39.062  0.00  0.00    -0.276 NA
ATOM     19  C   UNL A   1      47.186 -17.712 -39.803  0.00  0.00    +0.024 C 
BRANCH  19  20
ATOM     20  C   UNL A   1      46.710 -16.930 -40.972  0.00  0.00    -0.043 C 
ATOM     21  C   UNL A   1      46.585 -15.595 -40.969  0.00  0.00    -0.053 C 
BRANCH  21  22
ATOM     22  C   UNL A   1      46.853 -14.711 -39.835  0.00  0.00    -0.025 A 
ATOM     23  C   UNL A   1      48.151 -14.507 -39.380  0.00  0.00    -0.053 A 
ATOM     24  C   UNL A   1      48.397 -13.652 -38.295  0.00  0.00    -0.040 A 
ATOM     25  C   UNL A   1      47.365 -12.964 -37.631  0.00  0.00    +0.029 A 
ATOM     26  C   UNL A   1      46.063 -13.208 -38.105  0.00  0.00    -0.040 A 
ATOM     27  C   UNL A   1      45.805 -14.061 -39.190  0.00  0.00    -0.053 A 
BRANCH  25  28
ATOM     28  N   UNL A   1      47.614 -12.123 -36.539  0.00  0.00    -0.336 N 
ATOM     29  C   UNL A   1      46.486 -11.658 -35.732  0.00  0.00    +0.000 C 
ATOM     30  C   UNL A   1      48.769 -11.228 -36.581  0.00  0.00    +0.000 C 
ENDBRANCH  25  28
ENDBRANCH  21  22
ENDBRANCH  19  20
ENDBRANCH   9  18
TORSDOF 4
ENDMDL
MODEL 17
REMARK VINA RESULT:    -6.289     18.777     22.286
REMARK INTER + INTRA:          -8.894
REMARK INTER:                  -7.692
REMARK INTRA:                  -1.202
REMARK UNBOUND:                -1.135
REMARK  Name = cpd122.pdb
REMARK  8 active torsions:
REMARK  status: ('A' for Active; 'I' for Inactive)
REMARK    1  A    between atoms: C_1  and  C_2
REMARK    2  A    between atoms: C_6  and  C_7
REMARK    3  A    between atoms: C_9  and  N_10
REMARK    4  A    between atoms: C_11  and  C_12
REMARK    5  A    between atoms: C_13  and  C_14
REMARK    6  A    between atoms: C_17  and  N_18
REMARK    7  A    between atoms: N_18  and  C_19
REMARK    8  A    between atoms: N_18  and  C_20
REMARK                            x       y       z     vdW  Elec       q    Type
REMARK                         _______ _______ _______ _____ _____    ______ ____
ROOT
ATOM      1  C   UNL A   1      47.252 -17.377 -38.806  0.00  0.00    -0.046 C 
ATOM      2  C   UNL A   1      46.355 -17.212 -39.990  0.00  0.00    -0.085 C 
ATOM      3  C   UNL A   1      45.183 -17.848 -40.211  0.00  0.00    -0.035 C 
ATOM      4  C   UNL A   1      44.334 -17.631 -41.391  0.00  0.00    +0.006 C 
ATOM      5  C   UNL A   1      43.057 -17.014 -40.761  0.00  0.00    -0.077 C 
ATOM      6  C   UNL A   1      42.850 -16.995 -39.400  0.00  0.00    -0.073 C 
ATOM      7  C   UNL A   1      41.698 -16.295 -38.752  0.00  0.00    -0.044 C 
ATOM      8  C   UNL A   1      43.787 -17.859 -38.423  0.00  0.00    +0.001 C 
ATOM      9  C   UNL A   1      44.442 -18.926 -39.347  0.00  0.00    +0.113 C 
ATOM     10  C   UNL A   1      45.356 -20.035 -39.732  0.00  0.00    -0.000 C 
ATOM     11  C   UNL A   1      46.199 -20.837 -39.081  0.00  0.00    -0.068 C 
ATOM     12  C   UNL A   1      46.998 -21.852 -39.832  0.00  0.00    +0.045 C 
ATOM     13  C   UNL A   1      46.539 -22.098 -41.275  0.00  0.00    +0.240 C 
ATOM     14  O   UNL A   1      46.859 -23.152 -41.826  0.00  0.00    -0.273 OA
ATOM     15  N   UNL A   1      45.850 -21.115 -41.953  0.00  0.00    -0.185 NA
ATOM     16  C   UNL A   1      45.286 -20.164 -41.279  0.00  0.00    +0.040 C 
ATOM     17  C   UNL A   1      44.448 -19.039 -42.095  0.00  0.00    -0.002 C 
ENDROOT
BRANCH   9  18
ATOM     18  N   UNL A   1      43.174 -19.602 -39.839  0.00  0.00    -0.276 NA
ATOM     19  C   UNL A   1      42.531 -20.476 -39.148  0.00  0.00    +0.024 C 
BRANCH  19  20
ATOM     20  C   UNL A   1      42.843 -21.029 -37.806  0.00  0.00    -0.043 C 
ATOM     21  C   UNL A   1      42.025 -20.915 -36.749  0.00  0.00    -0.053 C 
BRANCH  21  22
ATOM     22  C   UNL A   1      40.741 -20.217 -36.730  0.00  0.00    -0.025 A 
ATOM     23  C   UNL A   1      39.568 -20.870 -37.094  0.00  0.00    -0.053 A 
ATOM     24  C   UNL A   1      38.340 -20.192 -37.066  0.00  0.00    -0.040 A 
ATOM     25  C   UNL A   1      38.232 -18.848 -36.667  0.00  0.00    +0.029 A 
ATOM     26  C   UNL A   1      39.440 -18.212 -36.325  0.00  0.00    -0.040 A 
ATOM     27  C   UNL A   1      40.674 -18.881 -36.348  0.00  0.00    -0.053 A 
BRANCH  25  28
ATOM     28  N   UNL A   1      37.006 -18.171 -36.655  0.00  0.00    -0.336 N 
ATOM     29  C   UNL A   1      35.860 -18.795 -35.995  0.00  0.00    +0.000 C 
ATOM     30  C   UNL A   1      36.682 -17.271 -37.760  0.00  0.00    +0.000 C 
ENDBRANCH  25  28
ENDBRANCH  21  22
ENDBRANCH  19  20
ENDBRANCH   9  18
TORSDOF 4
ENDMDL
MODEL 18
REMARK VINA RESULT:    -6.261      3.841      6.365
REMARK INTER + INTRA:          -8.859
REMARK INTER:                  -7.847
REMARK INTRA:                  -1.012
REMARK UNBOUND:                -1.135
REMARK  Name = cpd122.pdb
REMARK  8 active torsions:
REMARK  status: ('A' for Active; 'I' for Inactive)
REMARK    1  A    between atoms: C_1  and  C_2
REMARK    2  A    between atoms: C_6  and  C_7
REMARK    3  A    between atoms: C_9  and  N_10
REMARK    4  A    between atoms: C_11  and  C_12
REMARK    5  A    between atoms: C_13  and  C_14
REMARK    6  A    between atoms: C_17  and  N_18
REMARK    7  A    between atoms: N_18  and  C_19
REMARK    8  A    between atoms: N_18  and  C_20
REMARK                            x       y       z     vdW  Elec       q    Type
REMARK                         _______ _______ _______ _____ _____    ______ ____
ROOT
ATOM      1  C   UNL A   1      32.968 -38.643 -32.217  0.00  0.00    -0.046 C 
ATOM      2  C   UNL A   1      34.335 -39.015 -31.740  0.00  0.00    -0.085 C 
ATOM      3  C   UNL A   1      34.879 -38.725 -30.537  0.00  0.00    -0.035 C 
ATOM      4  C   UNL A   1      36.227 -39.133 -30.119  0.00  0.00    +0.006 C 
ATOM      5  C   UNL A   1      35.922 -40.101 -28.945  0.00  0.00    -0.077 C 
ATOM      6  C   UNL A   1      34.661 -40.220 -28.405  0.00  0.00    -0.073 C 
ATOM      7  C   UNL A   1      34.303 -41.233 -27.366  0.00  0.00    -0.044 C 
ATOM      8  C   UNL A   1      33.513 -39.160 -28.778  0.00  0.00    +0.001 C 
ATOM      9  C   UNL A   1      34.283 -37.924 -29.328  0.00  0.00    +0.113 C 
ATOM     10  C   UNL A   1      34.466 -36.592 -29.965  0.00  0.00    -0.000 C 
ATOM     11  C   UNL A   1      33.656 -35.608 -30.354  0.00  0.00    -0.068 C 
ATOM     12  C   UNL A   1      34.218 -34.387 -31.007  0.00  0.00    +0.045 C 
ATOM     13  C   UNL A   1      35.740 -34.233 -30.888  0.00  0.00    +0.240 C 
ATOM     14  O   UNL A   1      36.235 -33.115 -31.036  0.00  0.00    -0.273 OA
ATOM     15  N   UNL A   1      36.530 -35.348 -30.700  0.00  0.00    -0.185 NA
ATOM     16  C   UNL A   1      35.983 -36.439 -30.267  0.00  0.00    +0.040 C 
ATOM     17  C   UNL A   1      36.938 -37.727 -30.016  0.00  0.00    -0.002 C 
ENDROOT
BRANCH   9  18
ATOM     18  N   UNL A   1      35.114 -37.613 -28.095  0.00  0.00    -0.276 NA
ATOM     19  C   UNL A   1      34.646 -36.991 -27.071  0.00  0.00    +0.024 C 
BRANCH  19  20
ATOM     20  C   UNL A   1      33.287 -36.437 -26.848  0.00  0.00    -0.043 C 
ATOM     21  C   UNL A   1      32.565 -36.666 -25.741  0.00  0.00    -0.053 C 
BRANCH  21  22
ATOM     22  C   UNL A   1      32.968 -37.507 -24.614  0.00  0.00    -0.025 A 
ATOM     23  C   UNL A   1      33.349 -36.940 -23.402  0.00  0.00    -0.053 A 
ATOM     24  C   UNL A   1      33.727 -37.756 -22.325  0.00  0.00    -0.040 A 
ATOM     25  C   UNL A   1      33.730 -39.160 -22.411  0.00  0.00    +0.029 A 
ATOM     26  C   UNL A   1      33.359 -39.698 -23.656  0.00  0.00    -0.040 A 
ATOM     27  C   UNL A   1      32.978 -38.892 -24.740  0.00  0.00    -0.053 A 
BRANCH  25  28
ATOM     28  N   UNL A   1      34.123 -39.970 -21.337  0.00  0.00    -0.336 N 
ATOM     29  C   UNL A   1      34.714 -39.341 -20.156  0.00  0.00    +0.000 C 
ATOM     30  C   UNL A   1      34.556 -41.340 -21.604  0.00  0.00    +0.000 C 
ENDBRANCH  25  28
ENDBRANCH  21  22
ENDBRANCH  19  20
ENDBRANCH   9  18
TORSDOF 4
ENDMDL
MODEL 19
REMARK VINA RESULT:    -6.101     17.904     20.542
REMARK INTER + INTRA:          -8.663
REMARK INTER:                  -7.687
REMARK INTRA:                  -0.976
REMARK UNBOUND:                -1.135
REMARK  Name = cpd122.pdb
REMARK  8 active torsions:
REMARK  status: ('A' for Active; 'I' for Inactive)
REMARK    1  A    between atoms: C_1  and  C_2
REMARK    2  A    between atoms: C_6  and  C_7
REMARK    3  A    between atoms: C_9  and  N_10
REMARK    4  A    between atoms: C_11  and  C_12
REMARK    5  A    between atoms: C_13  and  C_14
REMARK    6  A    between atoms: C_17  and  N_18
REMARK    7  A    between atoms: N_18  and  C_19
REMARK    8  A    between atoms: N_18  and  C_20
REMARK                            x       y       z     vdW  Elec       q    Type
REMARK                         _______ _______ _______ _____ _____    ______ ____
ROOT
ATOM      1  C   UNL A   1      39.043 -17.610 -36.095  0.00  0.00    -0.046 C 
ATOM      2  C   UNL A   1      39.506 -18.570 -35.048  0.00  0.00    -0.085 C 
ATOM      3  C   UNL A   1      40.759 -19.055 -34.892  0.00  0.00    -0.035 C 
ATOM      4  C   UNL A   1      41.158 -19.989 -33.829  0.00  0.00    +0.006 C 
ATOM      5  C   UNL A   1      42.157 -19.132 -33.006  0.00  0.00    -0.077 C 
ATOM      6  C   UNL A   1      42.626 -17.920 -33.460  0.00  0.00    -0.073 C 
ATOM      7  C   UNL A   1      43.485 -17.011 -32.640  0.00  0.00    -0.044 C 
ATOM      8  C   UNL A   1      42.379 -17.470 -34.982  0.00  0.00    +0.001 C 
ATOM      9  C   UNL A   1      42.054 -18.793 -35.735  0.00  0.00    +0.113 C 
ATOM     10  C   UNL A   1      41.635 -19.660 -36.869  0.00  0.00    -0.000 C 
ATOM     11  C   UNL A   1      41.373 -19.468 -38.162  0.00  0.00    -0.068 C 
ATOM     12  C   UNL A   1      40.935 -20.614 -39.016  0.00  0.00    +0.045 C 
ATOM     13  C   UNL A   1      41.131 -22.000 -38.388  0.00  0.00    +0.240 C 
ATOM     14  O   UNL A   1      41.175 -22.984 -39.128  0.00  0.00    -0.273 OA
ATOM     15  N   UNL A   1      41.174 -22.132 -37.016  0.00  0.00    -0.185 NA
ATOM     16  C   UNL A   1      41.415 -21.086 -36.292  0.00  0.00    +0.040 C 
ATOM     17  C   UNL A   1      41.500 -21.272 -34.682  0.00  0.00    -0.002 C 
ENDROOT
BRANCH   9  18
ATOM     18  N   UNL A   1      43.348 -19.534 -35.453  0.00  0.00    -0.276 NA
ATOM     19  C   UNL A   1      44.504 -19.087 -35.797  0.00  0.00    +0.024 C 
BRANCH  19  20
ATOM     20  C   UNL A   1      44.850 -17.839 -36.524  0.00  0.00    -0.043 C 
ATOM     21  C   UNL A   1      45.250 -17.812 -37.803  0.00  0.00    -0.053 C 
BRANCH  21  22
ATOM     22  C   UNL A   1      45.445 -18.978 -38.665  0.00  0.00    -0.025 A 
ATOM     23  C   UNL A   1      46.551 -19.806 -38.507  0.00  0.00    -0.053 A 
ATOM     24  C   UNL A   1      46.724 -20.925 -39.336  0.00  0.00    -0.040 A 
ATOM     25  C   UNL A   1      45.802 -21.265 -40.341  0.00  0.00    +0.029 A 
ATOM     26  C   UNL A   1      44.706 -20.395 -40.487  0.00  0.00    -0.040 A 
ATOM     27  C   UNL A   1      44.522 -19.274 -39.663  0.00  0.00    -0.053 A 
BRANCH  25  28
ATOM     28  N   UNL A   1      45.987 -22.375 -41.176  0.00  0.00    -0.336 N 
ATOM     29  C   UNL A   1      47.116 -23.269 -40.923  0.00  0.00    +0.000 C 
ATOM     30  C   UNL A   1      45.543 -22.299 -42.566  0.00  0.00    +0.000 C 
ENDBRANCH  25  28
ENDBRANCH  21  22
ENDBRANCH  19  20
ENDBRANCH   9  18
TORSDOF 4
ENDMDL
MODEL 20
REMARK VINA RESULT:    -5.978     17.275     21.172
REMARK INTER + INTRA:          -8.510
REMARK INTER:                  -7.260
REMARK INTRA:                  -1.251
REMARK UNBOUND:                -1.135
REMARK  Name = cpd122.pdb
REMARK  8 active torsions:
REMARK  status: ('A' for Active; 'I' for Inactive)
REMARK    1  A    between atoms: C_1  and  C_2
REMARK    2  A    between atoms: C_6  and  C_7
REMARK    3  A    between atoms: C_9  and  N_10
REMARK    4  A    between atoms: C_11  and  C_12
REMARK    5  A    between atoms: C_13  and  C_14
REMARK    6  A    between atoms: C_17  and  N_18
REMARK    7  A    between atoms: N_18  and  C_19
REMARK    8  A    between atoms: N_18  and  C_20
REMARK                            x       y       z     vdW  Elec       q    Type
REMARK                         _______ _______ _______ _____ _____    ______ ____
ROOT
ATOM      1  C   UNL A   1      47.137 -18.873 -36.988  0.00  0.00    -0.046 C 
ATOM      2  C   UNL A   1      46.171 -17.811 -37.402  0.00  0.00    -0.085 C 
ATOM      3  C   UNL A   1      44.859 -17.977 -37.687  0.00  0.00    -0.035 C 
ATOM      4  C   UNL A   1      43.953 -16.887 -38.076  0.00  0.00    +0.006 C 
ATOM      5  C   UNL A   1      42.955 -16.859 -36.887  0.00  0.00    -0.077 C 
ATOM      6  C   UNL A   1      42.927 -17.850 -35.933  0.00  0.00    -0.073 C 
ATOM      7  C   UNL A   1      42.072 -17.791 -34.709  0.00  0.00    -0.044 C 
ATOM      8  C   UNL A   1      43.733 -19.221 -36.161  0.00  0.00    +0.001 C 
ATOM      9  C   UNL A   1      43.986 -19.279 -37.695  0.00  0.00    +0.113 C 
ATOM     10  C   UNL A   1      44.544 -19.788 -38.977  0.00  0.00    -0.000 C 
ATOM     11  C   UNL A   1      45.236 -20.865 -39.348  0.00  0.00    -0.068 C 
ATOM     12  C   UNL A   1      45.662 -21.029 -40.771  0.00  0.00    +0.045 C 
ATOM     13  C   UNL A   1      44.983 -20.076 -41.763  0.00  0.00    +0.240 C 
ATOM     14  O   UNL A   1      44.964 -20.380 -42.956  0.00  0.00    -0.273 OA
ATOM     15  N   UNL A   1      44.482 -18.870 -41.322  0.00  0.00    -0.185 NA
ATOM     16  C   UNL A   1      44.256 -18.708 -40.057  0.00  0.00    +0.040 C 
ATOM     17  C   UNL A   1      43.629 -17.294 -39.565  0.00  0.00    -0.002 C 
ENDROOT
BRANCH   9  18
ATOM     18  N   UNL A   1      42.541 -19.261 -38.160  0.00  0.00    -0.276 NA
ATOM     19  C   UNL A   1      41.800 -20.312 -38.189  0.00  0.00    +0.024 C 
BRANCH  19  20
ATOM     20  C   UNL A   1      42.139 -21.712 -37.827  0.00  0.00    -0.043 C 
ATOM     21  C   UNL A   1      41.634 -22.344 -36.757  0.00  0.00    -0.053 C 
BRANCH  21  22
ATOM     22  C   UNL A   1      40.718 -21.767 -35.773  0.00  0.00    -0.025 A 
ATOM     23  C   UNL A   1      41.178 -21.355 -34.527  0.00  0.00    -0.053 A 
ATOM     24  C   UNL A   1      40.291 -20.798 -33.593  0.00  0.00    -0.040 A 
ATOM     25  C   UNL A   1      38.923 -20.621 -33.867  0.00  0.00    +0.029 A 
ATOM     26  C   UNL A   1      38.489 -21.068 -35.129  0.00  0.00    -0.040 A 
ATOM     27  C   UNL A   1      39.367 -21.626 -36.072  0.00  0.00    -0.053 A 
BRANCH  25  28
ATOM     28  N   UNL A   1      38.039 -20.078 -32.925  0.00  0.00    -0.336 N 
ATOM     29  C   UNL A   1      36.717 -20.682 -32.765  0.00  0.00    +0.000 C 
ATOM     30  C   UNL A   1      38.122 -18.652 -32.616  0.00  0.00    +0.000 C 
ENDBRANCH  25  28
ENDBRANCH  21  22
ENDBRANCH  19  20
ENDBRANCH   9  18
TORSDOF 4
ENDMDL
