REMARK  Name = cpd246.pdb
REMARK  15 active torsions:
REMARK  status: ('A' for Active; 'I' for Inactive)
REMARK    1  A    between atoms: C_1  and  C_2
REMARK    2  A    between atoms: C_3  and  C_4
REMARK    3  A    between atoms: C_3  and  C_5
REMARK    4  A    between atoms: N_7  and  C_8
REMARK    5  A    between atoms: C_9  and  O_10
REMARK    6  A    between atoms: O_10  and  C_11
REMARK    7  A    between atoms: C_11  and  C_12
REMARK    8  A    between atoms: C_21  and  C_22
REMARK    9  A    between atoms: C_23  and  C_24
REMARK   10  A    between atoms: C_24  and  C_25
REMARK   11  A    between atoms: C_24  and  N_26
REMARK   12  A    between atoms: N_26  and  C_27
REMARK   13  A    between atoms: N_26  and  C_28
REMARK   14  A    between atoms: C_32  and  C_33
REMARK   15  A    between atoms: C_35  and  O_36
REMARK                            x       y       z     vdW  Elec       q    Type
REMARK                         _______ _______ _______ _____ _____    ______ ____
ROOT
ATOM      1  C   UNL     1       1.535  -1.457  -0.335  0.00  0.00    +0.086 C 
ATOM      2  C   UNL     1       0.211  -2.243  -0.538  0.00  0.00    +0.127 C 
ATOM      3  C   UNL     1      -1.038  -1.342  -0.349  0.00  0.00    +0.004 C 
ATOM      4  C   UNL     1      -2.337  -2.145  -0.498  0.00  0.00    -0.046 C 
ATOM      5  C   UNL     1      -3.558  -1.278  -0.213  0.00  0.00    -0.049 C 
ATOM      6  C   UNL     1      -3.619   0.004  -1.065  0.00  0.00    -0.034 C 
ATOM      7  C   UNL     1      -2.291   0.809  -1.029  0.00  0.00    -0.032 C 
ATOM      8  C   UNL     1      -2.289   1.644   0.255  0.00  0.00    -0.049 C 
ATOM      9  C   UNL     1      -3.337   2.757   0.194  0.00  0.00    -0.047 C 
ATOM     10  C   UNL     1      -4.686   2.401  -0.490  0.00  0.00    -0.025 C 
ATOM     11  C   UNL     1      -4.770   3.119  -1.861  0.00  0.00    -0.059 C 
ATOM     12  C   UNL     1      -5.887   2.772   0.486  0.00  0.00    -0.020 C 
ATOM     13  C   UNL     1      -6.819   1.553   0.406  0.00  0.00    -0.048 C 
ATOM     14  C   UNL     1      -5.845   0.392   0.308  0.00  0.00    -0.049 C 
ATOM     15  C   UNL     1      -4.878   0.870  -0.776  0.00  0.00    -0.032 C 
ATOM     16  C   UNL     1      -1.024  -0.099  -1.284  0.00  0.00    -0.020 C 
ATOM     17  C   UNL     1      -1.062  -0.509  -2.790  0.00  0.00    -0.059 C 
ATOM     18  C   UNL     1       0.305   0.671  -1.047  0.00  0.00    -0.019 C 
ATOM     19  C   UNL     1       1.560  -0.196  -1.235  0.00  0.00    +0.077 C 
ENDROOT
BRANCH   1  22
ATOM     20  C   UNL     1       2.918  -0.954   1.753  0.00  0.00    +0.240 C 
ATOM     21  O   UNL     1       2.945  -0.361   2.829  0.00  0.00    -0.271 OA
ATOM     22  N   UNL     1       1.737  -1.122   1.091  0.00  0.00    -0.303 N 
ATOM     23  H   UNL     1       0.920  -1.006   1.628  0.00  0.00    +0.000 HD
BRANCH  20  26
ATOM     24  C   UNL     1       5.413  -3.653   0.576  0.00  0.00    -0.046 C 
ATOM     25  C   UNL     1       4.255  -2.872   1.107  0.00  0.00    -0.079 C 
ATOM     26  C   UNL     1       4.159  -1.530   1.170  0.00  0.00    +0.007 C 
ATOM     27  C   UNL     1       5.233  -0.550   0.826  0.00  0.00    -0.035 C 
ENDBRANCH  20  26
ENDBRANCH   1  22
BRANCH  12  28
ATOM     28  C   UNL     1      -6.618   4.134   0.277  0.00  0.00    +0.010 C 
ATOM     29  C   UNL     1      -5.703   5.320   0.628  0.00  0.00    -0.049 C 
BRANCH  28  30
ATOM     30  N   UNL     1      -7.907   4.160   1.012  0.00  0.00    -0.305 N 
ATOM     31  C   UNL     1      -7.795   4.377   2.452  0.00  0.00    -0.013 C 
ATOM     32  C   UNL     1      -8.864   5.098   0.425  0.00  0.00    -0.013 C 
ATOM     33  H   UNL     1      -8.265   3.211   0.902  0.00  0.00    +0.000 HD
ENDBRANCH  28  30
ENDBRANCH  12  28
BRANCH  19  34
ATOM     34  O   UNL     1       2.722   0.593  -0.974  0.00  0.00    -0.390 OA
ATOM     35  H   UNL     1       2.701   0.906  -0.056  0.00  0.00    +0.000 HD
ENDBRANCH  19  34
BRANCH   2  36
ATOM     36  O   UNL     1       0.131  -3.336   0.406  0.00  0.00    -0.459 OA
BRANCH  36  37
ATOM     37  C   UNL     1       0.856  -4.443   0.093  0.00  0.00    +0.304 C 
ATOM     38  C   UNL     1       0.700  -5.479   1.163  0.00  0.00    +0.033 C 
ATOM     39  O   UNL     1       1.537  -4.583  -0.913  0.00  0.00    -0.251 OA
ENDBRANCH  36  37
ENDBRANCH   2  36
TORSDOF 7
