MODEL 1
REMARK VINA RESULT:    -6.845      0.000      0.000
REMARK INTER + INTRA:         -10.494
REMARK INTER:                  -9.447
REMARK INTRA:                  -1.048
REMARK UNBOUND:                -1.048
REMARK  Name = cpd246.pdb
REMARK  15 active torsions:
REMARK  status: ('A' for Active; 'I' for Inactive)
REMARK    1  A    between atoms: C_1  and  C_2
REMARK    2  A    between atoms: C_3  and  C_4
REMARK    3  A    between atoms: C_3  and  C_5
REMARK    4  A    between atoms: N_7  and  C_8
REMARK    5  A    between atoms: C_9  and  O_10
REMARK    6  A    between atoms: O_10  and  C_11
REMARK    7  A    between atoms: C_11  and  C_12
REMARK    8  A    between atoms: C_21  and  C_22
REMARK    9  A    between atoms: C_23  and  C_24
REMARK   10  A    between atoms: C_24  and  C_25
REMARK   11  A    between atoms: C_24  and  N_26
REMARK   12  A    between atoms: N_26  and  C_27
REMARK   13  A    between atoms: N_26  and  C_28
REMARK   14  A    between atoms: C_32  and  C_33
REMARK   15  A    between atoms: C_35  and  O_36
REMARK                            x       y       z     vdW  Elec       q    Type
REMARK                         _______ _______ _______ _____ _____    ______ ____
ROOT
ATOM      1  C   UNL     1      38.964 -21.161 -36.066  0.00  0.00    +0.086 C 
ATOM      2  C   UNL     1      38.593 -19.727 -36.531  0.00  0.00    +0.127 C 
ATOM      3  C   UNL     1      39.793 -18.998 -37.190  0.00  0.00    +0.004 C 
ATOM      4  C   UNL     1      39.426 -17.564 -37.594  0.00  0.00    -0.046 C 
ATOM      5  C   UNL     1      40.635 -16.819 -38.149  0.00  0.00    -0.049 C 
ATOM      6  C   UNL     1      41.325 -17.546 -39.319  0.00  0.00    -0.034 C 
ATOM      7  C   UNL     1      41.632 -19.035 -39.000  0.00  0.00    -0.032 C 
ATOM      8  C   UNL     1      42.930 -19.077 -38.189  0.00  0.00    -0.049 C 
ATOM      9  C   UNL     1      44.133 -18.678 -39.046  0.00  0.00    -0.047 C 
ATOM     10  C   UNL     1      43.903 -17.533 -40.071  0.00  0.00    -0.025 C 
ATOM     11  C   UNL     1      43.886 -18.124 -41.503  0.00  0.00    -0.059 C 
ATOM     12  C   UNL     1      45.016 -16.413 -39.869  0.00  0.00    -0.020 C 
ATOM     13  C   UNL     1      44.228 -15.095 -39.923  0.00  0.00    -0.048 C 
ATOM     14  C   UNL     1      42.932 -15.449 -39.216  0.00  0.00    -0.049 C 
ATOM     15  C   UNL     1      42.546 -16.768 -39.887  0.00  0.00    -0.032 C 
ATOM     16  C   UNL     1      40.390 -19.793 -38.387  0.00  0.00    -0.020 C 
ATOM     17  C   UNL     1      39.353 -19.963 -39.542  0.00  0.00    -0.059 C 
ATOM     18  C   UNL     1      40.762 -21.216 -37.885  0.00  0.00    -0.019 C 
ATOM     19  C   UNL     1      39.589 -21.965 -37.233  0.00  0.00    +0.077 C 
ENDROOT
BRANCH   1  22
ATOM     20  C   UNL     1      39.823 -21.926 -33.785  0.00  0.00    +0.240 C 
ATOM     21  O   UNL     1      40.804 -22.004 -33.048  0.00  0.00    -0.271 OA
ATOM     22  N   UNL     1      39.853 -21.120 -34.885  0.00  0.00    -0.303 N 
ATOM     23  H   UNL     1      40.552 -20.427 -34.894  0.00  0.00    +0.000 HD
BRANCH  20  26
ATOM     24  C   UNL     1      37.429 -24.938 -33.480  0.00  0.00    -0.046 C 
ATOM     25  C   UNL     1      38.573 -24.003 -33.705  0.00  0.00    -0.079 C 
ATOM     26  C   UNL     1      38.577 -22.676 -33.475  0.00  0.00    +0.007 C 
ATOM     27  C   UNL     1      37.406 -21.849 -33.054  0.00  0.00    -0.035 C 
ENDBRANCH  20  26
ENDBRANCH   1  22
BRANCH  12  28
ATOM     28  C   UNL     1      46.266 -16.434 -40.801  0.00  0.00    +0.010 C 
ATOM     29  C   UNL     1      47.110 -17.700 -40.577  0.00  0.00    -0.049 C 
BRANCH  28  30
ATOM     30  N   UNL     1      47.051 -15.182 -40.661  0.00  0.00    -0.305 N 
ATOM     31  C   UNL     1      47.902 -15.114 -39.475  0.00  0.00    -0.013 C 
ATOM     32  C   UNL     1      47.823 -14.871 -41.864  0.00  0.00    -0.013 C 
ATOM     33  H   UNL     1      46.338 -14.465 -40.531  0.00  0.00    +0.000 HD
ENDBRANCH  28  30
ENDBRANCH  12  28
BRANCH  19  34
ATOM     34  O   UNL     1      40.036 -23.246 -36.788  0.00  0.00    -0.390 OA
ATOM     35  H   UNL     1      40.020 -23.871 -37.530  0.00  0.00    +0.000 HD
ENDBRANCH  19  34
BRANCH   2  36
ATOM     36  O   UNL     1      38.144 -18.938 -35.404  0.00  0.00    -0.459 OA
BRANCH  36  37
ATOM     37  C   UNL     1      36.798 -18.872 -35.226  0.00  0.00    +0.304 C 
ATOM     38  C   UNL     1      36.101 -18.920 -36.551  0.00  0.00    +0.033 C 
ATOM     39  O   UNL     1      36.229 -18.787 -34.147  0.00  0.00    -0.251 OA
ENDBRANCH  36  37
ENDBRANCH   2  36
TORSDOF 7
ENDMDL
MODEL 2
REMARK VINA RESULT:    -6.662     23.999     26.715
REMARK INTER + INTRA:         -10.241
REMARK INTER:                  -9.008
REMARK INTRA:                  -1.233
REMARK UNBOUND:                -1.048
REMARK  Name = cpd246.pdb
REMARK  15 active torsions:
REMARK  status: ('A' for Active; 'I' for Inactive)
REMARK    1  A    between atoms: C_1  and  C_2
REMARK    2  A    between atoms: C_3  and  C_4
REMARK    3  A    between atoms: C_3  and  C_5
REMARK    4  A    between atoms: N_7  and  C_8
REMARK    5  A    between atoms: C_9  and  O_10
REMARK    6  A    between atoms: O_10  and  C_11
REMARK    7  A    between atoms: C_11  and  C_12
REMARK    8  A    between atoms: C_21  and  C_22
REMARK    9  A    between atoms: C_23  and  C_24
REMARK   10  A    between atoms: C_24  and  C_25
REMARK   11  A    between atoms: C_24  and  N_26
REMARK   12  A    between atoms: N_26  and  C_27
REMARK   13  A    between atoms: N_26  and  C_28
REMARK   14  A    between atoms: C_32  and  C_33
REMARK   15  A    between atoms: C_35  and  O_36
REMARK                            x       y       z     vdW  Elec       q    Type
REMARK                         _______ _______ _______ _____ _____    ______ ____
ROOT
ATOM      1  C   UNL     1      46.570 -33.163 -53.902  0.00  0.00    +0.086 C 
ATOM      2  C   UNL     1      46.077 -33.438 -55.349  0.00  0.00    +0.127 C 
ATOM      3  C   UNL     1      46.473 -34.855 -55.841  0.00  0.00    +0.004 C 
ATOM      4  C   UNL     1      46.028 -35.091 -57.290  0.00  0.00    -0.046 C 
ATOM      5  C   UNL     1      46.506 -36.445 -57.801  0.00  0.00    -0.049 C 
ATOM      6  C   UNL     1      46.082 -37.628 -56.910  0.00  0.00    -0.034 C 
ATOM      7  C   UNL     1      46.421 -37.400 -55.412  0.00  0.00    -0.032 C 
ATOM      8  C   UNL     1      47.897 -37.758 -55.210  0.00  0.00    -0.049 C 
ATOM      9  C   UNL     1      48.128 -39.262 -55.366  0.00  0.00    -0.047 C 
ATOM     10  C   UNL     1      47.307 -39.978 -56.474  0.00  0.00    -0.025 C 
ATOM     11  C   UNL     1      46.216 -40.859 -55.814  0.00  0.00    -0.059 C 
ATOM     12  C   UNL     1      48.293 -40.801 -57.413  0.00  0.00    -0.020 C 
ATOM     13  C   UNL     1      47.805 -40.480 -58.834  0.00  0.00    -0.048 C 
ATOM     14  C   UNL     1      47.404 -39.019 -58.729  0.00  0.00    -0.049 C 
ATOM     15  C   UNL     1      46.562 -39.005 -57.453  0.00  0.00    -0.032 C 
ATOM     16  C   UNL     1      45.961 -35.980 -54.895  0.00  0.00    -0.020 C 
ATOM     17  C   UNL     1      44.402 -36.011 -54.827  0.00  0.00    -0.059 C 
ATOM     18  C   UNL     1      46.481 -35.682 -53.462  0.00  0.00    -0.019 C 
ATOM     19  C   UNL     1      46.097 -34.286 -52.945  0.00  0.00    +0.077 C 
ENDROOT
BRANCH   1  22
ATOM     20  C   UNL     1      48.742 -31.866 -53.546  0.00  0.00    +0.240 C 
ATOM     21  O   UNL     1      49.928 -31.947 -53.236  0.00  0.00    -0.271 OA
ATOM     22  N   UNL     1      48.038 -32.989 -53.868  0.00  0.00    -0.303 N 
ATOM     23  H   UNL     1      48.572 -33.781 -54.106  0.00  0.00    +0.000 HD
BRANCH  20  26
ATOM     24  C   UNL     1      47.944 -28.297 -54.778  0.00  0.00    -0.046 C 
ATOM     25  C   UNL     1      48.477 -29.674 -54.550  0.00  0.00    -0.079 C 
ATOM     26  C   UNL     1      48.060 -30.546 -53.612  0.00  0.00    +0.007 C 
ATOM     27  C   UNL     1      47.058 -30.275 -52.537  0.00  0.00    -0.035 C 
ENDBRANCH  20  26
ENDBRANCH   1  22
BRANCH  12  28
ATOM     28  C   UNL     1      48.474 -42.326 -57.142  0.00  0.00    +0.010 C 
ATOM     29  C   UNL     1      49.934 -42.664 -56.794  0.00  0.00    -0.049 C 
BRANCH  28  30
ATOM     30  N   UNL     1      47.949 -43.130 -58.274  0.00  0.00    -0.305 N 
ATOM     31  C   UNL     1      48.934 -43.975 -58.944  0.00  0.00    -0.013 C 
ATOM     32  C   UNL     1      46.770 -43.912 -57.902  0.00  0.00    -0.013 C 
ATOM     33  H   UNL     1      47.675 -42.426 -58.961  0.00  0.00    +0.000 HD
ENDBRANCH  28  30
ENDBRANCH  12  28
BRANCH  19  34
ATOM     34  O   UNL     1      46.638 -34.102 -51.636  0.00  0.00    -0.390 OA
ATOM     35  H   UNL     1      45.970 -33.692 -51.065  0.00  0.00    +0.000 HD
ENDBRANCH  19  34
BRANCH   2  36
ATOM     36  O   UNL     1      46.640 -32.466 -56.260  0.00  0.00    -0.459 OA
BRANCH  36  37
ATOM     37  C   UNL     1      45.750 -31.628 -56.855  0.00  0.00    +0.304 C 
ATOM     38  C   UNL     1      46.477 -30.538 -57.581  0.00  0.00    +0.033 C 
ATOM     39  O   UNL     1      44.533 -31.739 -56.812  0.00  0.00    -0.251 OA
ENDBRANCH  36  37
ENDBRANCH   2  36
TORSDOF 7
ENDMDL
MODEL 3
REMARK VINA RESULT:    -6.641      4.091      9.069
REMARK INTER + INTRA:         -10.212
REMARK INTER:                  -8.893
REMARK INTRA:                  -1.320
REMARK UNBOUND:                -1.048
REMARK  Name = cpd246.pdb
REMARK  15 active torsions:
REMARK  status: ('A' for Active; 'I' for Inactive)
REMARK    1  A    between atoms: C_1  and  C_2
REMARK    2  A    between atoms: C_3  and  C_4
REMARK    3  A    between atoms: C_3  and  C_5
REMARK    4  A    between atoms: N_7  and  C_8
REMARK    5  A    between atoms: C_9  and  O_10
REMARK    6  A    between atoms: O_10  and  C_11
REMARK    7  A    between atoms: C_11  and  C_12
REMARK    8  A    between atoms: C_21  and  C_22
REMARK    9  A    between atoms: C_23  and  C_24
REMARK   10  A    between atoms: C_24  and  C_25
REMARK   11  A    between atoms: C_24  and  N_26
REMARK   12  A    between atoms: N_26  and  C_27
REMARK   13  A    between atoms: N_26  and  C_28
REMARK   14  A    between atoms: C_32  and  C_33
REMARK   15  A    between atoms: C_35  and  O_36
REMARK                            x       y       z     vdW  Elec       q    Type
REMARK                         _______ _______ _______ _____ _____    ______ ____
ROOT
ATOM      1  C   UNL     1      43.517 -20.639 -36.876  0.00  0.00    +0.086 C 
ATOM      2  C   UNL     1      43.824 -20.150 -35.434  0.00  0.00    +0.127 C 
ATOM      3  C   UNL     1      42.627 -19.384 -34.811  0.00  0.00    +0.004 C 
ATOM      4  C   UNL     1      42.965 -18.860 -33.409  0.00  0.00    -0.046 C 
ATOM      5  C   UNL     1      41.824 -18.024 -32.841  0.00  0.00    -0.049 C 
ATOM      6  C   UNL     1      40.468 -18.755 -32.829  0.00  0.00    -0.034 C 
ATOM      7  C   UNL     1      40.119 -19.391 -34.202  0.00  0.00    -0.032 C 
ATOM      8  C   UNL     1      39.534 -18.288 -35.089  0.00  0.00    -0.049 C 
ATOM      9  C   UNL     1      38.160 -17.842 -34.585  0.00  0.00    -0.047 C 
ATOM     10  C   UNL     1      37.980 -17.765 -33.043  0.00  0.00    -0.025 C 
ATOM     11  C   UNL     1      37.067 -18.928 -32.577  0.00  0.00    -0.059 C 
ATOM     12  C   UNL     1      37.419 -16.330 -32.647  0.00  0.00    -0.020 C 
ATOM     13  C   UNL     1      38.270 -15.921 -31.435  0.00  0.00    -0.048 C 
ATOM     14  C   UNL     1      39.641 -16.468 -31.789  0.00  0.00    -0.049 C 
ATOM     15  C   UNL     1      39.317 -17.896 -32.232  0.00  0.00    -0.032 C 
ATOM     16  C   UNL     1      41.318 -20.223 -34.807  0.00  0.00    -0.020 C 
ATOM     17  C   UNL     1      41.458 -21.508 -33.931  0.00  0.00    -0.059 C 
ATOM     18  C   UNL     1      41.033 -20.685 -36.263  0.00  0.00    -0.019 C 
ATOM     19  C   UNL     1      42.200 -21.454 -36.904  0.00  0.00    +0.077 C 
ENDROOT
BRANCH   1  22
ATOM     20  C   UNL     1      44.138 -19.388 -39.015  0.00  0.00    +0.240 C 
ATOM     21  O   UNL     1      43.770 -18.558 -39.844  0.00  0.00    -0.271 OA
ATOM     22  N   UNL     1      43.485 -19.504 -37.823  0.00  0.00    -0.303 N 
ATOM     23  H   UNL     1      42.923 -18.739 -37.561  0.00  0.00    +0.000 HD
BRANCH  20  26
ATOM     24  C   UNL     1      46.157 -22.401 -40.333  0.00  0.00    -0.046 C 
ATOM     25  C   UNL     1      45.119 -21.388 -39.975  0.00  0.00    -0.079 C 
ATOM     26  C   UNL     1      45.319 -20.253 -39.276  0.00  0.00    +0.007 C 
ATOM     27  C   UNL     1      46.594 -19.831 -38.623  0.00  0.00    -0.035 C 
ENDBRANCH  20  26
ENDBRANCH   1  22
BRANCH  12  28
ATOM     28  C   UNL     1      35.884 -16.172 -32.417  0.00  0.00    +0.010 C 
ATOM     29  C   UNL     1      35.152 -15.841 -33.729  0.00  0.00    -0.049 C 
BRANCH  28  30
ATOM     30  N   UNL     1      35.610 -15.191 -31.337  0.00  0.00    -0.305 N 
ATOM     31  C   UNL     1      35.046 -13.920 -31.784  0.00  0.00    -0.013 C 
ATOM     32  C   UNL     1      34.801 -15.761 -30.259  0.00  0.00    -0.013 C 
ATOM     33  H   UNL     1      36.537 -14.970 -30.973  0.00  0.00    +0.000 HD
ENDBRANCH  28  30
ENDBRANCH  12  28
BRANCH  19  34
ATOM     34  O   UNL     1      41.850 -21.812 -38.242  0.00  0.00    -0.390 OA
ATOM     35  H   UNL     1      42.237 -22.676 -38.457  0.00  0.00    +0.000 HD
ENDBRANCH  19  34
BRANCH   2  36
ATOM     36  O   UNL     1      44.973 -19.273 -35.439  0.00  0.00    -0.459 OA
BRANCH  36  37
ATOM     37  C   UNL     1      46.083 -19.747 -34.812  0.00  0.00    +0.304 C 
ATOM     38  C   UNL     1      47.240 -18.827 -35.049  0.00  0.00    +0.033 C 
ATOM     39  O   UNL     1      46.137 -20.771 -34.146  0.00  0.00    -0.251 OA
ENDBRANCH  36  37
ENDBRANCH   2  36
TORSDOF 7
ENDMDL
MODEL 4
REMARK VINA RESULT:    -6.585     17.225     25.241
REMARK INTER + INTRA:         -10.136
REMARK INTER:                  -8.942
REMARK INTRA:                  -1.194
REMARK UNBOUND:                -1.048
REMARK  Name = cpd246.pdb
REMARK  15 active torsions:
REMARK  status: ('A' for Active; 'I' for Inactive)
REMARK    1  A    between atoms: C_1  and  C_2
REMARK    2  A    between atoms: C_3  and  C_4
REMARK    3  A    between atoms: C_3  and  C_5
REMARK    4  A    between atoms: N_7  and  C_8
REMARK    5  A    between atoms: C_9  and  O_10
REMARK    6  A    between atoms: O_10  and  C_11
REMARK    7  A    between atoms: C_11  and  C_12
REMARK    8  A    between atoms: C_21  and  C_22
REMARK    9  A    between atoms: C_23  and  C_24
REMARK   10  A    between atoms: C_24  and  C_25
REMARK   11  A    between atoms: C_24  and  N_26
REMARK   12  A    between atoms: N_26  and  C_27
REMARK   13  A    between atoms: N_26  and  C_28
REMARK   14  A    between atoms: C_32  and  C_33
REMARK   15  A    between atoms: C_35  and  O_36
REMARK                            x       y       z     vdW  Elec       q    Type
REMARK                         _______ _______ _______ _____ _____    ______ ____
ROOT
ATOM      1  C   UNL     1      35.196 -36.990 -30.905  0.00  0.00    +0.086 C 
ATOM      2  C   UNL     1      36.233 -38.009 -30.358  0.00  0.00    +0.127 C 
ATOM      3  C   UNL     1      35.553 -39.223 -29.672  0.00  0.00    +0.004 C 
ATOM      4  C   UNL     1      36.590 -40.191 -29.088  0.00  0.00    -0.046 C 
ATOM      5  C   UNL     1      35.917 -41.330 -28.330  0.00  0.00    -0.049 C 
ATOM      6  C   UNL     1      34.875 -42.099 -29.164  0.00  0.00    -0.034 C 
ATOM      7  C   UNL     1      33.855 -41.157 -29.861  0.00  0.00    -0.032 C 
ATOM      8  C   UNL     1      32.782 -40.792 -28.830  0.00  0.00    -0.049 C 
ATOM      9  C   UNL     1      31.915 -42.003 -28.480  0.00  0.00    -0.047 C 
ATOM     10  C   UNL     1      32.644 -43.371 -28.380  0.00  0.00    -0.025 C 
ATOM     11  C   UNL     1      32.257 -44.248 -29.598  0.00  0.00    -0.059 C 
ATOM     12  C   UNL     1      32.299 -44.052 -26.983  0.00  0.00    -0.020 C 
ATOM     13  C   UNL     1      33.655 -44.568 -26.478  0.00  0.00    -0.048 C 
ATOM     14  C   UNL     1      34.616 -43.480 -26.925  0.00  0.00    -0.049 C 
ATOM     15  C   UNL     1      34.210 -43.268 -28.384  0.00  0.00    -0.032 C 
ATOM     16  C   UNL     1      34.552 -39.955 -30.611  0.00  0.00    -0.020 C 
ATOM     17  C   UNL     1      35.270 -40.562 -31.859  0.00  0.00    -0.059 C 
ATOM     18  C   UNL     1      33.523 -38.913 -31.130  0.00  0.00    -0.019 C 
ATOM     19  C   UNL     1      34.169 -37.702 -31.821  0.00  0.00    +0.077 C 
ENDROOT
BRANCH   1  22
ATOM     20  C   UNL     1      34.163 -34.949 -29.768  0.00  0.00    +0.240 C 
ATOM     21  O   UNL     1      33.342 -34.561 -28.940  0.00  0.00    -0.271 OA
ATOM     22  N   UNL     1      34.538 -36.261 -29.800  0.00  0.00    -0.303 N 
ATOM     23  H   UNL     1      34.347 -36.785 -28.989  0.00  0.00    +0.000 HD
BRANCH  20  26
ATOM     24  C   UNL     1      36.929 -32.833 -31.431  0.00  0.00    -0.046 C 
ATOM     25  C   UNL     1      36.109 -33.759 -30.592  0.00  0.00    -0.079 C 
ATOM     26  C   UNL     1      34.790 -33.997 -30.723  0.00  0.00    +0.007 C 
ATOM     27  C   UNL     1      33.855 -33.302 -31.659  0.00  0.00    -0.035 C 
ENDBRANCH  20  26
ENDBRANCH   1  22
BRANCH  12  28
ATOM     28  C   UNL     1      31.166 -45.124 -26.941  0.00  0.00    +0.010 C 
ATOM     29  C   UNL     1      29.998 -44.668 -26.049  0.00  0.00    -0.049 C 
BRANCH  28  30
ATOM     30  N   UNL     1      31.708 -46.450 -26.553  0.00  0.00    -0.305 N 
ATOM     31  C   UNL     1      31.148 -47.013 -25.327  0.00  0.00    -0.013 C 
ATOM     32  C   UNL     1      31.634 -47.422 -27.644  0.00  0.00    -0.013 C 
ATOM     33  H   UNL     1      32.688 -46.258 -26.348  0.00  0.00    +0.000 HD
ENDBRANCH  28  30
ENDBRANCH  12  28
BRANCH  19  34
ATOM     34  O   UNL     1      33.146 -36.796 -32.240  0.00  0.00    -0.390 OA
ATOM     35  H   UNL     1      33.271 -36.578 -33.177  0.00  0.00    +0.000 HD
ENDBRANCH  19  34
BRANCH   2  36
ATOM     36  O   UNL     1      37.099 -37.367 -29.393  0.00  0.00    -0.459 OA
BRANCH  36  37
ATOM     37  C   UNL     1      38.346 -37.053 -29.834  0.00  0.00    +0.304 C 
ATOM     38  C   UNL     1      39.374 -37.817 -29.057  0.00  0.00    +0.033 C 
ATOM     39  O   UNL     1      38.602 -36.265 -30.734  0.00  0.00    -0.251 OA
ENDBRANCH  36  37
ENDBRANCH   2  36
TORSDOF 7
ENDMDL
MODEL 5
REMARK VINA RESULT:    -6.567     17.588     21.249
REMARK INTER + INTRA:         -10.110
REMARK INTER:                  -8.837
REMARK INTRA:                  -1.272
REMARK UNBOUND:                -1.048
REMARK  Name = cpd246.pdb
REMARK  15 active torsions:
REMARK  status: ('A' for Active; 'I' for Inactive)
REMARK    1  A    between atoms: C_1  and  C_2
REMARK    2  A    between atoms: C_3  and  C_4
REMARK    3  A    between atoms: C_3  and  C_5
REMARK    4  A    between atoms: N_7  and  C_8
REMARK    5  A    between atoms: C_9  and  O_10
REMARK    6  A    between atoms: O_10  and  C_11
REMARK    7  A    between atoms: C_11  and  C_12
REMARK    8  A    between atoms: C_21  and  C_22
REMARK    9  A    between atoms: C_23  and  C_24
REMARK   10  A    between atoms: C_24  and  C_25
REMARK   11  A    between atoms: C_24  and  N_26
REMARK   12  A    between atoms: N_26  and  C_27
REMARK   13  A    between atoms: N_26  and  C_28
REMARK   14  A    between atoms: C_32  and  C_33
REMARK   15  A    between atoms: C_35  and  O_36
REMARK                            x       y       z     vdW  Elec       q    Type
REMARK                         _______ _______ _______ _____ _____    ______ ____
ROOT
ATOM      1  C   UNL     1      33.445 -38.587 -28.826  0.00  0.00    +0.086 C 
ATOM      2  C   UNL     1      34.289 -37.304 -28.595  0.00  0.00    +0.127 C 
ATOM      3  C   UNL     1      33.532 -36.021 -29.026  0.00  0.00    +0.004 C 
ATOM      4  C   UNL     1      34.399 -34.769 -28.843  0.00  0.00    -0.046 C 
ATOM      5  C   UNL     1      33.689 -33.524 -29.361  0.00  0.00    -0.049 C 
ATOM      6  C   UNL     1      32.294 -33.305 -28.744  0.00  0.00    -0.034 C 
ATOM      7  C   UNL     1      31.404 -34.576 -28.814  0.00  0.00    -0.032 C 
ATOM      8  C   UNL     1      30.790 -34.637 -30.216  0.00  0.00    -0.049 C 
ATOM      9  C   UNL     1      29.768 -33.517 -30.422  0.00  0.00    -0.047 C 
ATOM     10  C   UNL     1      30.113 -32.139 -29.792  0.00  0.00    -0.025 C 
ATOM     11  C   UNL     1      29.192 -31.889 -28.571  0.00  0.00    -0.059 C 
ATOM     12  C   UNL     1      30.001 -31.007 -30.905  0.00  0.00    -0.020 C 
ATOM     13  C   UNL     1      31.260 -30.153 -30.692  0.00  0.00    -0.048 C 
ATOM     14  C   UNL     1      32.310 -31.188 -30.327  0.00  0.00    -0.049 C 
ATOM     15  C   UNL     1      31.588 -32.023 -29.269  0.00  0.00    -0.032 C 
ATOM     16  C   UNL     1      32.156 -35.872 -28.315  0.00  0.00    -0.020 C 
ATOM     17  C   UNL     1      32.319 -35.729 -26.769  0.00  0.00    -0.059 C 
ATOM     18  C   UNL     1      31.333 -37.164 -28.576  0.00  0.00    -0.019 C 
ATOM     19  C   UNL     1      32.057 -38.451 -28.151  0.00  0.00    +0.077 C 
ENDROOT
BRANCH   1  22
ATOM     20  C   UNL     1      33.581 -40.076 -30.897  0.00  0.00    +0.240 C 
ATOM     21  O   UNL     1      33.135 -40.285 -32.023  0.00  0.00    -0.271 OA
ATOM     22  N   UNL     1      33.331 -38.891 -30.268  0.00  0.00    -0.303 N 
ATOM     23  H   UNL     1      33.038 -38.149 -30.845  0.00  0.00    +0.000 HD
BRANCH  20  26
ATOM     24  C   UNL     1      34.485 -43.028 -28.581  0.00  0.00    -0.046 C 
ATOM     25  C   UNL     1      33.822 -41.949 -29.375  0.00  0.00    -0.079 C 
ATOM     26  C   UNL     1      34.430 -41.088 -30.215  0.00  0.00    +0.007 C 
ATOM     27  C   UNL     1      35.902 -40.964 -30.440  0.00  0.00    -0.035 C 
ENDBRANCH  20  26
ENDBRANCH   1  22
BRANCH  12  28
ATOM     28  C   UNL     1      28.684 -30.174 -30.983  0.00  0.00    +0.010 C 
ATOM     29  C   UNL     1      27.607 -30.905 -31.802  0.00  0.00    -0.049 C 
BRANCH  28  30
ATOM     30  N   UNL     1      28.957 -28.802 -31.480  0.00  0.00    -0.305 N 
ATOM     31  C   UNL     1      28.559 -28.553 -32.863  0.00  0.00    -0.013 C 
ATOM     32  C   UNL     1      28.411 -27.771 -30.596  0.00  0.00    -0.013 C 
ATOM     33  H   UNL     1      29.975 -28.740 -31.469  0.00  0.00    +0.000 HD
ENDBRANCH  28  30
ENDBRANCH  12  28
BRANCH  19  34
ATOM     34  O   UNL     1      31.232 -39.578 -28.452  0.00  0.00    -0.390 OA
ATOM     35  H   UNL     1      30.315 -39.385 -28.199  0.00  0.00    +0.000 HD
ENDBRANCH  19  34
BRANCH   2  36
ATOM     36  O   UNL     1      35.524 -37.378 -29.345  0.00  0.00    -0.459 OA
BRANCH  36  37
ATOM     37  C   UNL     1      36.632 -37.711 -28.631  0.00  0.00    +0.304 C 
ATOM     38  C   UNL     1      37.861 -37.219 -29.330  0.00  0.00    +0.033 C 
ATOM     39  O   UNL     1      36.635 -38.322 -27.571  0.00  0.00    -0.251 OA
ENDBRANCH  36  37
ENDBRANCH   2  36
TORSDOF 7
ENDMDL
MODEL 6
REMARK VINA RESULT:    -6.481     17.780     21.663
REMARK INTER + INTRA:          -9.991
REMARK INTER:                  -9.035
REMARK INTRA:                  -0.956
REMARK UNBOUND:                -1.048
REMARK  Name = cpd246.pdb
REMARK  15 active torsions:
REMARK  status: ('A' for Active; 'I' for Inactive)
REMARK    1  A    between atoms: C_1  and  C_2
REMARK    2  A    between atoms: C_3  and  C_4
REMARK    3  A    between atoms: C_3  and  C_5
REMARK    4  A    between atoms: N_7  and  C_8
REMARK    5  A    between atoms: C_9  and  O_10
REMARK    6  A    between atoms: O_10  and  C_11
REMARK    7  A    between atoms: C_11  and  C_12
REMARK    8  A    between atoms: C_21  and  C_22
REMARK    9  A    between atoms: C_23  and  C_24
REMARK   10  A    between atoms: C_24  and  C_25
REMARK   11  A    between atoms: C_24  and  N_26
REMARK   12  A    between atoms: N_26  and  C_27
REMARK   13  A    between atoms: N_26  and  C_28
REMARK   14  A    between atoms: C_32  and  C_33
REMARK   15  A    between atoms: C_35  and  O_36
REMARK                            x       y       z     vdW  Elec       q    Type
REMARK                         _______ _______ _______ _____ _____    ______ ____
ROOT
ATOM      1  C   UNL     1      35.040 -39.149 -28.657  0.00  0.00    +0.086 C 
ATOM      2  C   UNL     1      34.482 -38.968 -30.094  0.00  0.00    +0.127 C 
ATOM      3  C   UNL     1      33.689 -37.643 -30.251  0.00  0.00    +0.004 C 
ATOM      4  C   UNL     1      33.098 -37.505 -31.660  0.00  0.00    -0.046 C 
ATOM      5  C   UNL     1      32.238 -36.252 -31.778  0.00  0.00    -0.049 C 
ATOM      6  C   UNL     1      32.970 -34.959 -31.375  0.00  0.00    -0.034 C 
ATOM      7  C   UNL     1      33.673 -35.075 -29.994  0.00  0.00    -0.032 C 
ATOM      8  C   UNL     1      32.615 -34.831 -28.913  0.00  0.00    -0.049 C 
ATOM      9  C   UNL     1      32.148 -33.374 -28.913  0.00  0.00    -0.047 C 
ATOM     10  C   UNL     1      31.999 -32.695 -30.303  0.00  0.00    -0.025 C 
ATOM     11  C   UNL     1      33.139 -31.663 -30.494  0.00  0.00    -0.059 C 
ATOM     12  C   UNL     1      30.547 -32.054 -30.424  0.00  0.00    -0.020 C 
ATOM     13  C   UNL     1      30.078 -32.462 -31.829  0.00  0.00    -0.048 C 
ATOM     14  C   UNL     1      30.639 -33.866 -31.975  0.00  0.00    -0.049 C 
ATOM     15  C   UNL     1      32.086 -33.687 -31.516  0.00  0.00    -0.032 C 
ATOM     16  C   UNL     1      34.531 -36.394 -29.859  0.00  0.00    -0.020 C 
ATOM     17  C   UNL     1      35.771 -36.220 -30.791  0.00  0.00    -0.059 C 
ATOM     18  C   UNL     1      35.062 -36.602 -28.414  0.00  0.00    -0.019 C 
ATOM     19  C   UNL     1      35.858 -37.904 -28.232  0.00  0.00    +0.077 C 
ENDROOT
BRANCH   1  22
ATOM     20  C   UNL     1      33.637 -40.649 -27.138  0.00  0.00    +0.240 C 
ATOM     21  O   UNL     1      32.940 -40.695 -26.127  0.00  0.00    -0.271 OA
ATOM     22  N   UNL     1      33.952 -39.447 -27.701  0.00  0.00    -0.303 N 
ATOM     23  H   UNL     1      33.385 -38.685 -27.439  0.00  0.00    +0.000 HD
BRANCH  20  26
ATOM     24  C   UNL     1      33.460 -44.085 -28.886  0.00  0.00    -0.046 C 
ATOM     25  C   UNL     1      33.194 -42.772 -28.223  0.00  0.00    -0.079 C 
ATOM     26  C   UNL     1      34.120 -41.897 -27.787  0.00  0.00    +0.007 C 
ATOM     27  C   UNL     1      35.599 -42.108 -27.773  0.00  0.00    -0.035 C 
ENDBRANCH  20  26
ENDBRANCH   1  22
BRANCH  12  28
ATOM     28  C   UNL     1      30.382 -30.532 -30.126  0.00  0.00    +0.010 C 
ATOM     29  C   UNL     1      30.434 -30.249 -28.615  0.00  0.00    -0.049 C 
BRANCH  28  30
ATOM     30  N   UNL     1      29.160 -29.996 -30.774  0.00  0.00    -0.305 N 
ATOM     31  C   UNL     1      28.016 -29.813 -29.884  0.00  0.00    -0.013 C 
ATOM     32  C   UNL     1      29.421 -28.772 -31.532  0.00  0.00    -0.013 C 
ATOM     33  H   UNL     1      28.889 -30.735 -31.424  0.00  0.00    +0.000 HD
ENDBRANCH  28  30
ENDBRANCH  12  28
BRANCH  19  34
ATOM     34  O   UNL     1      36.282 -38.012 -26.872  0.00  0.00    -0.390 OA
ATOM     35  H   UNL     1      37.125 -37.546 -26.757  0.00  0.00    +0.000 HD
ENDBRANCH  19  34
BRANCH   2  36
ATOM     36  O   UNL     1      33.603 -40.066 -30.430  0.00  0.00    -0.459 OA
BRANCH  36  37
ATOM     37  C   UNL     1      34.071 -40.935 -31.365  0.00  0.00    +0.304 C 
ATOM     38  C   UNL     1      35.493 -40.609 -31.703  0.00  0.00    +0.033 C 
ATOM     39  O   UNL     1      33.434 -41.853 -31.861  0.00  0.00    -0.251 OA
ENDBRANCH  36  37
ENDBRANCH   2  36
TORSDOF 7
ENDMDL
MODEL 7
REMARK VINA RESULT:    -6.472      2.358      4.040
REMARK INTER + INTRA:          -9.979
REMARK INTER:                  -8.595
REMARK INTRA:                  -1.384
REMARK UNBOUND:                -1.048
REMARK  Name = cpd246.pdb
REMARK  15 active torsions:
REMARK  status: ('A' for Active; 'I' for Inactive)
REMARK    1  A    between atoms: C_1  and  C_2
REMARK    2  A    between atoms: C_3  and  C_4
REMARK    3  A    between atoms: C_3  and  C_5
REMARK    4  A    between atoms: N_7  and  C_8
REMARK    5  A    between atoms: C_9  and  O_10
REMARK    6  A    between atoms: O_10  and  C_11
REMARK    7  A    between atoms: C_11  and  C_12
REMARK    8  A    between atoms: C_21  and  C_22
REMARK    9  A    between atoms: C_23  and  C_24
REMARK   10  A    between atoms: C_24  and  C_25
REMARK   11  A    between atoms: C_24  and  N_26
REMARK   12  A    between atoms: N_26  and  C_27
REMARK   13  A    between atoms: N_26  and  C_28
REMARK   14  A    between atoms: C_32  and  C_33
REMARK   15  A    between atoms: C_35  and  O_36
REMARK                            x       y       z     vdW  Elec       q    Type
REMARK                         _______ _______ _______ _____ _____    ______ ____
ROOT
ATOM      1  C   UNL     1      42.822 -20.346 -35.164  0.00  0.00    +0.086 C 
ATOM      2  C   UNL     1      42.513 -20.505 -36.677  0.00  0.00    +0.127 C 
ATOM      3  C   UNL     1      43.039 -19.306 -37.510  0.00  0.00    +0.004 C 
ATOM      4  C   UNL     1      42.677 -19.451 -38.994  0.00  0.00    -0.046 C 
ATOM      5  C   UNL     1      43.108 -18.224 -39.790  0.00  0.00    -0.049 C 
ATOM      6  C   UNL     1      44.601 -17.877 -39.633  0.00  0.00    -0.034 C 
ATOM      7  C   UNL     1      45.046 -17.813 -38.146  0.00  0.00    -0.032 C 
ATOM      8  C   UNL     1      44.653 -16.436 -37.603  0.00  0.00    -0.049 C 
ATOM      9  C   UNL     1      45.495 -15.328 -38.238  0.00  0.00    -0.047 C 
ATOM     10  C   UNL     1      45.832 -15.493 -39.746  0.00  0.00    -0.025 C 
ATOM     11  C   UNL     1      47.334 -15.847 -39.899  0.00  0.00    -0.059 C 
ATOM     12  C   UNL     1      45.418 -14.170 -40.527  0.00  0.00    -0.020 C 
ATOM     13  C   UNL     1      44.708 -14.691 -41.787  0.00  0.00    -0.048 C 
ATOM     14  C   UNL     1      43.955 -15.904 -41.270  0.00  0.00    -0.049 C 
ATOM     15  C   UNL     1      45.030 -16.635 -40.464  0.00  0.00    -0.032 C 
ATOM     16  C   UNL     1      44.563 -19.066 -37.314  0.00  0.00    -0.020 C 
ATOM     17  C   UNL     1      45.407 -20.283 -37.806  0.00  0.00    -0.059 C 
ATOM     18  C   UNL     1      44.836 -18.898 -35.793  0.00  0.00    -0.019 C 
ATOM     19  C   UNL     1      44.331 -20.076 -34.944  0.00  0.00    +0.077 C 
ENDROOT
BRANCH   1  22
ATOM     20  C   UNL     1      41.002 -19.436 -33.619  0.00  0.00    +0.240 C 
ATOM     21  O   UNL     1      40.618 -18.464 -32.972  0.00  0.00    -0.271 OA
ATOM     22  N   UNL     1      41.978 -19.291 -34.561  0.00  0.00    -0.303 N 
ATOM     23  H   UNL     1      42.142 -18.373 -34.877  0.00  0.00    +0.000 HD
BRANCH  20  26
ATOM     24  C   UNL     1      38.337 -22.223 -33.778  0.00  0.00    -0.046 C 
ATOM     25  C   UNL     1      39.140 -20.968 -33.886  0.00  0.00    -0.079 C 
ATOM     26  C   UNL     1      40.388 -20.776 -33.418  0.00  0.00    +0.007 C 
ATOM     27  C   UNL     1      41.182 -21.739 -32.598  0.00  0.00    -0.035 C 
ENDBRANCH  20  26
ENDBRANCH   1  22
BRANCH  12  28
ATOM     28  C   UNL     1      46.521 -13.108 -40.824  0.00  0.00    +0.010 C 
ATOM     29  C   UNL     1      46.236 -11.786 -40.092  0.00  0.00    -0.049 C 
BRANCH  28  30
ATOM     30  N   UNL     1      46.706 -12.932 -42.286  0.00  0.00    -0.305 N 
ATOM     31  C   UNL     1      46.480 -11.577 -42.780  0.00  0.00    -0.013 C 
ATOM     32  C   UNL     1      47.997 -13.439 -42.749  0.00  0.00    -0.013 C 
ATOM     33  H   UNL     1      45.963 -13.502 -42.692  0.00  0.00    +0.000 HD
ENDBRANCH  28  30
ENDBRANCH  12  28
BRANCH  19  34
ATOM     34  O   UNL     1      44.607 -19.817 -33.566  0.00  0.00    -0.390 OA
ATOM     35  H   UNL     1      43.997 -20.328 -33.013  0.00  0.00    +0.000 HD
ENDBRANCH  19  34
BRANCH   2  36
ATOM     36  O   UNL     1      41.086 -20.613 -36.886  0.00  0.00    -0.459 OA
BRANCH  36  37
ATOM     37  C   UNL     1      40.617 -21.865 -37.134  0.00  0.00    +0.304 C 
ATOM     38  C   UNL     1      39.331 -21.790 -37.899  0.00  0.00    +0.033 C 
ATOM     39  O   UNL     1      41.158 -22.905 -36.790  0.00  0.00    -0.251 OA
ENDBRANCH  36  37
ENDBRANCH   2  36
TORSDOF 7
ENDMDL
MODEL 8
REMARK VINA RESULT:    -6.397     17.536     20.342
REMARK INTER + INTRA:          -9.876
REMARK INTER:                  -8.564
REMARK INTRA:                  -1.312
REMARK UNBOUND:                -1.048
REMARK  Name = cpd246.pdb
REMARK  15 active torsions:
REMARK  status: ('A' for Active; 'I' for Inactive)
REMARK    1  A    between atoms: C_1  and  C_2
REMARK    2  A    between atoms: C_3  and  C_4
REMARK    3  A    between atoms: C_3  and  C_5
REMARK    4  A    between atoms: N_7  and  C_8
REMARK    5  A    between atoms: C_9  and  O_10
REMARK    6  A    between atoms: O_10  and  C_11
REMARK    7  A    between atoms: C_11  and  C_12
REMARK    8  A    between atoms: C_21  and  C_22
REMARK    9  A    between atoms: C_23  and  C_24
REMARK   10  A    between atoms: C_24  and  C_25
REMARK   11  A    between atoms: C_24  and  N_26
REMARK   12  A    between atoms: N_26  and  C_27
REMARK   13  A    between atoms: N_26  and  C_28
REMARK   14  A    between atoms: C_32  and  C_33
REMARK   15  A    between atoms: C_35  and  O_36
REMARK                            x       y       z     vdW  Elec       q    Type
REMARK                         _______ _______ _______ _____ _____    ______ ____
ROOT
ATOM      1  C   UNL     1      33.824 -36.543 -30.442  0.00  0.00    +0.086 C 
ATOM      2  C   UNL     1      33.067 -36.263 -29.115  0.00  0.00    +0.127 C 
ATOM      3  C   UNL     1      32.211 -34.971 -29.193  0.00  0.00    +0.004 C 
ATOM      4  C   UNL     1      31.514 -34.679 -27.858  0.00  0.00    -0.046 C 
ATOM      5  C   UNL     1      30.755 -33.357 -27.908  0.00  0.00    -0.049 C 
ATOM      6  C   UNL     1      29.748 -33.266 -29.071  0.00  0.00    -0.034 C 
ATOM      7  C   UNL     1      30.378 -33.648 -30.438  0.00  0.00    -0.032 C 
ATOM      8  C   UNL     1      31.123 -32.418 -30.966  0.00  0.00    -0.049 C 
ATOM      9  C   UNL     1      30.148 -31.308 -31.362  0.00  0.00    -0.047 C 
ATOM     10  C   UNL     1      28.904 -31.121 -30.449  0.00  0.00    -0.025 C 
ATOM     11  C   UNL     1      27.641 -31.621 -31.196  0.00  0.00    -0.059 C 
ATOM     12  C   UNL     1      28.803 -29.598 -29.999  0.00  0.00    -0.020 C 
ATOM     13  C   UNL     1      28.490 -29.676 -28.497  0.00  0.00    -0.048 C 
ATOM     14  C   UNL     1      29.313 -30.869 -28.044  0.00  0.00    -0.049 C 
ATOM     15  C   UNL     1      28.970 -31.920 -29.100  0.00  0.00    -0.032 C 
ATOM     16  C   UNL     1      31.198 -34.997 -30.373  0.00  0.00    -0.020 C 
ATOM     17  C   UNL     1      30.155 -36.148 -30.214  0.00  0.00    -0.059 C 
ATOM     18  C   UNL     1      31.988 -35.266 -31.684  0.00  0.00    -0.019 C 
ATOM     19  C   UNL     1      32.839 -36.544 -31.638  0.00  0.00    +0.077 C 
ENDROOT
BRANCH   1  22
ATOM     20  C   UNL     1      36.267 -35.830 -30.663  0.00  0.00    +0.240 C 
ATOM     21  O   UNL     1      37.041 -35.012 -31.156  0.00  0.00    -0.271 OA
ATOM     22  N   UNL     1      34.927 -35.577 -30.635  0.00  0.00    -0.303 N 
ATOM     23  H   UNL     1      34.662 -34.637 -30.758  0.00  0.00    +0.000 HD
BRANCH  20  26
ATOM     24  C   UNL     1      38.060 -38.129 -28.134  0.00  0.00    -0.046 C 
ATOM     25  C   UNL     1      37.454 -36.997 -28.899  0.00  0.00    -0.079 C 
ATOM     26  C   UNL     1      36.775 -37.090 -30.059  0.00  0.00    +0.007 C 
ATOM     27  C   UNL     1      36.585 -38.328 -30.874  0.00  0.00    -0.035 C 
ENDBRANCH  20  26
ENDBRANCH   1  22
BRANCH  12  28
ATOM     28  C   UNL     1      27.847 -28.653 -30.790  0.00  0.00    +0.010 C 
ATOM     29  C   UNL     1      28.510 -28.136 -32.078  0.00  0.00    -0.049 C 
BRANCH  28  30
ATOM     30  N   UNL     1      27.343 -27.562 -29.920  0.00  0.00    -0.305 N 
ATOM     31  C   UNL     1      28.116 -26.324 -29.968  0.00  0.00    -0.013 C 
ATOM     32  C   UNL     1      25.922 -27.289 -30.135  0.00  0.00    -0.013 C 
ATOM     33  H   UNL     1      27.469 -27.930 -28.977  0.00  0.00    +0.000 HD
ENDBRANCH  28  30
ENDBRANCH  12  28
BRANCH  19  34
ATOM     34  O   UNL     1      33.540 -36.689 -32.874  0.00  0.00    -0.390 OA
ATOM     35  H   UNL     1      33.270 -35.985 -33.484  0.00  0.00    +0.000 HD
ENDBRANCH  19  34
BRANCH   2  36
ATOM     36  O   UNL     1      34.007 -36.121 -28.025  0.00  0.00    -0.459 OA
BRANCH  36  37
ATOM     37  C   UNL     1      34.125 -37.196 -27.201  0.00  0.00    +0.304 C 
ATOM     38  C   UNL     1      33.651 -36.842 -25.825  0.00  0.00    +0.033 C 
ATOM     39  O   UNL     1      34.551 -38.295 -27.525  0.00  0.00    -0.251 OA
ENDBRANCH  36  37
ENDBRANCH   2  36
TORSDOF 7
ENDMDL
MODEL 9
REMARK VINA RESULT:    -6.350     17.684     19.838
REMARK INTER + INTRA:          -9.810
REMARK INTER:                  -8.310
REMARK INTRA:                  -1.500
REMARK UNBOUND:                -1.048
REMARK  Name = cpd246.pdb
REMARK  15 active torsions:
REMARK  status: ('A' for Active; 'I' for Inactive)
REMARK    1  A    between atoms: C_1  and  C_2
REMARK    2  A    between atoms: C_3  and  C_4
REMARK    3  A    between atoms: C_3  and  C_5
REMARK    4  A    between atoms: N_7  and  C_8
REMARK    5  A    between atoms: C_9  and  O_10
REMARK    6  A    between atoms: O_10  and  C_11
REMARK    7  A    between atoms: C_11  and  C_12
REMARK    8  A    between atoms: C_21  and  C_22
REMARK    9  A    between atoms: C_23  and  C_24
REMARK   10  A    between atoms: C_24  and  C_25
REMARK   11  A    between atoms: C_24  and  N_26
REMARK   12  A    between atoms: N_26  and  C_27
REMARK   13  A    between atoms: N_26  and  C_28
REMARK   14  A    between atoms: C_32  and  C_33
REMARK   15  A    between atoms: C_35  and  O_36
REMARK                            x       y       z     vdW  Elec       q    Type
REMARK                         _______ _______ _______ _____ _____    ______ ____
ROOT
ATOM      1  C   UNL     1      27.418 -30.167 -28.180  0.00  0.00    +0.086 C 
ATOM      2  C   UNL     1      28.462 -29.791 -29.267  0.00  0.00    +0.127 C 
ATOM      3  C   UNL     1      29.665 -30.770 -29.285  0.00  0.00    +0.004 C 
ATOM      4  C   UNL     1      30.713 -30.353 -30.325  0.00  0.00    -0.046 C 
ATOM      5  C   UNL     1      31.937 -31.259 -30.270  0.00  0.00    -0.049 C 
ATOM      6  C   UNL     1      31.606 -32.757 -30.413  0.00  0.00    -0.034 C 
ATOM      7  C   UNL     1      30.479 -33.214 -29.447  0.00  0.00    -0.032 C 
ATOM      8  C   UNL     1      31.116 -33.469 -28.077  0.00  0.00    -0.049 C 
ATOM      9  C   UNL     1      32.027 -34.698 -28.111  0.00  0.00    -0.047 C 
ATOM     10  C   UNL     1      32.869 -34.900 -29.401  0.00  0.00    -0.025 C 
ATOM     11  C   UNL     1      32.295 -36.095 -30.204  0.00  0.00    -0.059 C 
ATOM     12  C   UNL     1      34.400 -35.088 -29.008  0.00  0.00    -0.020 C 
ATOM     13  C   UNL     1      35.151 -34.198 -30.011  0.00  0.00    -0.048 C 
ATOM     14  C   UNL     1      34.226 -33.002 -30.156  0.00  0.00    -0.049 C 
ATOM     15  C   UNL     1      32.866 -33.667 -30.371  0.00  0.00    -0.032 C 
ATOM     16  C   UNL     1      29.227 -32.250 -29.476  0.00  0.00    -0.020 C 
ATOM     17  C   UNL     1      28.524 -32.471 -30.852  0.00  0.00    -0.059 C 
ATOM     18  C   UNL     1      28.195 -32.598 -28.367  0.00  0.00    -0.019 C 
ATOM     19  C   UNL     1      26.988 -31.648 -28.331  0.00  0.00    +0.077 C 
ENDROOT
BRANCH   1  22
ATOM     20  C   UNL     1      27.385 -29.078 -25.870  0.00  0.00    +0.240 C 
ATOM     21  O   UNL     1      27.733 -29.186 -24.696  0.00  0.00    -0.271 OA
ATOM     22  N   UNL     1      27.938 -29.878 -26.826  0.00  0.00    -0.303 N 
ATOM     23  H   UNL     1      28.786 -30.316 -26.586  0.00  0.00    +0.000 HD
BRANCH  20  26
ATOM     24  C   UNL     1      26.004 -25.631 -26.921  0.00  0.00    -0.046 C 
ATOM     25  C   UNL     1      26.833 -26.807 -26.518  0.00  0.00    -0.079 C 
ATOM     26  C   UNL     1      26.386 -28.054 -26.276  0.00  0.00    +0.007 C 
ATOM     27  C   UNL     1      24.958 -28.491 -26.251  0.00  0.00    -0.035 C 
ENDBRANCH  20  26
ENDBRANCH   1  22
BRANCH  12  28
ATOM     28  C   UNL     1      34.968 -36.537 -28.909  0.00  0.00    +0.010 C 
ATOM     29  C   UNL     1      35.293 -36.912 -27.453  0.00  0.00    -0.049 C 
BRANCH  28  30
ATOM     30  N   UNL     1      36.122 -36.716 -29.825  0.00  0.00    -0.305 N 
ATOM     31  C   UNL     1      37.392 -37.018 -29.169  0.00  0.00    -0.013 C 
ATOM     32  C   UNL     1      35.847 -37.688 -30.883  0.00  0.00    -0.013 C 
ATOM     33  H   UNL     1      36.239 -35.794 -30.245  0.00  0.00    +0.000 HD
ENDBRANCH  28  30
ENDBRANCH  12  28
BRANCH  19  34
ATOM     34  O   UNL     1      26.114 -32.035 -27.269  0.00  0.00    -0.390 OA
ATOM     35  H   UNL     1      25.206 -32.098 -27.605  0.00  0.00    +0.000 HD
ENDBRANCH  19  34
BRANCH   2  36
ATOM     36  O   UNL     1      28.965 -28.455 -29.033  0.00  0.00    -0.459 OA
BRANCH  36  37
ATOM     37  C   UNL     1      28.425 -27.475 -29.807  0.00  0.00    +0.304 C 
ATOM     38  C   UNL     1      27.829 -28.069 -31.046  0.00  0.00    +0.033 C 
ATOM     39  O   UNL     1      28.421 -26.282 -29.539  0.00  0.00    -0.251 OA
ENDBRANCH  36  37
ENDBRANCH   2  36
TORSDOF 7
ENDMDL
MODEL 10
REMARK VINA RESULT:    -6.284      2.364      3.949
REMARK INTER + INTRA:          -9.720
REMARK INTER:                  -8.315
REMARK INTRA:                  -1.405
REMARK UNBOUND:                -1.048
REMARK  Name = cpd246.pdb
REMARK  15 active torsions:
REMARK  status: ('A' for Active; 'I' for Inactive)
REMARK    1  A    between atoms: C_1  and  C_2
REMARK    2  A    between atoms: C_3  and  C_4
REMARK    3  A    between atoms: C_3  and  C_5
REMARK    4  A    between atoms: N_7  and  C_8
REMARK    5  A    between atoms: C_9  and  O_10
REMARK    6  A    between atoms: O_10  and  C_11
REMARK    7  A    between atoms: C_11  and  C_12
REMARK    8  A    between atoms: C_21  and  C_22
REMARK    9  A    between atoms: C_23  and  C_24
REMARK   10  A    between atoms: C_24  and  C_25
REMARK   11  A    between atoms: C_24  and  N_26
REMARK   12  A    between atoms: N_26  and  C_27
REMARK   13  A    between atoms: N_26  and  C_28
REMARK   14  A    between atoms: C_32  and  C_33
REMARK   15  A    between atoms: C_35  and  O_36
REMARK                            x       y       z     vdW  Elec       q    Type
REMARK                         _______ _______ _______ _____ _____    ______ ____
ROOT
ATOM      1  C   UNL     1      42.977 -20.525 -35.109  0.00  0.00    +0.086 C 
ATOM      2  C   UNL     1      42.438 -20.470 -36.565  0.00  0.00    +0.127 C 
ATOM      3  C   UNL     1      43.034 -19.280 -37.363  0.00  0.00    +0.004 C 
ATOM      4  C   UNL     1      42.450 -19.207 -38.780  0.00  0.00    -0.046 C 
ATOM      5  C   UNL     1      42.962 -17.980 -39.526  0.00  0.00    -0.049 C 
ATOM      6  C   UNL     1      44.498 -17.881 -39.573  0.00  0.00    -0.034 C 
ATOM      7  C   UNL     1      45.151 -18.047 -38.173  0.00  0.00    -0.032 C 
ATOM      8  C   UNL     1      45.070 -16.693 -37.460  0.00  0.00    -0.049 C 
ATOM      9  C   UNL     1      45.987 -15.663 -38.121  0.00  0.00    -0.047 C 
ATOM     10  C   UNL     1      46.079 -15.711 -39.671  0.00  0.00    -0.025 C 
ATOM     11  C   UNL     1      47.465 -16.268 -40.085  0.00  0.00    -0.059 C 
ATOM     12  C   UNL     1      45.784 -14.264 -40.263  0.00  0.00    -0.020 C 
ATOM     13  C   UNL     1      44.829 -14.531 -41.437  0.00  0.00    -0.048 C 
ATOM     14  C   UNL     1      43.965 -15.666 -40.915  0.00  0.00    -0.049 C 
ATOM     15  C   UNL     1      45.006 -16.633 -40.350  0.00  0.00    -0.032 C 
ATOM     16  C   UNL     1      44.589 -19.295 -37.386  0.00  0.00    -0.020 C 
ATOM     17  C   UNL     1      45.143 -20.565 -38.105  0.00  0.00    -0.059 C 
ATOM     18  C   UNL     1      45.095 -19.337 -35.917  0.00  0.00    -0.019 C 
ATOM     19  C   UNL     1      44.526 -20.511 -35.104  0.00  0.00    +0.077 C 
ENDROOT
BRANCH   1  22
ATOM     20  C   UNL     1      41.601 -19.527 -33.202  0.00  0.00    +0.240 C 
ATOM     21  O   UNL     1      41.479 -18.576 -32.434  0.00  0.00    -0.271 OA
ATOM     22  N   UNL     1      42.412 -19.428 -34.295  0.00  0.00    -0.303 N 
ATOM     23  H   UNL     1      42.649 -18.514 -34.575  0.00  0.00    +0.000 HD
BRANCH  20  26
ATOM     24  C   UNL     1      38.665 -22.027 -33.366  0.00  0.00    -0.046 C 
ATOM     25  C   UNL     1      39.599 -20.866 -33.486  0.00  0.00    -0.079 C 
ATOM     26  C   UNL     1      40.844 -20.788 -32.979  0.00  0.00    +0.007 C 
ATOM     27  C   UNL     1      41.506 -21.798 -32.099  0.00  0.00    -0.035 C 
ENDBRANCH  20  26
ENDBRANCH   1  22
BRANCH  12  28
ATOM     28  C   UNL     1      46.995 -13.354 -40.635  0.00  0.00    +0.010 C 
ATOM     29  C   UNL     1      47.005 -12.064 -39.796  0.00  0.00    -0.049 C 
BRANCH  28  30
ATOM     30  N   UNL     1      47.031 -13.094 -42.096  0.00  0.00    -0.305 N 
ATOM     31  C   UNL     1      46.930 -11.688 -42.478  0.00  0.00    -0.013 C 
ATOM     32  C   UNL     1      48.184 -13.720 -42.744  0.00  0.00    -0.013 C 
ATOM     33  H   UNL     1      46.179 -13.537 -42.439  0.00  0.00    +0.000 HD
ENDBRANCH  28  30
ENDBRANCH  12  28
BRANCH  19  34
ATOM     34  O   UNL     1      45.030 -20.449 -33.769  0.00  0.00    -0.390 OA
ATOM     35  H   UNL     1      44.719 -21.219 -33.269  0.00  0.00    +0.000 HD
ENDBRANCH  19  34
BRANCH   2  36
ATOM     36  O   UNL     1      40.998 -20.338 -36.558  0.00  0.00    -0.459 OA
BRANCH  36  37
ATOM     37  C   UNL     1      40.303 -21.414 -37.013  0.00  0.00    +0.304 C 
ATOM     38  C   UNL     1      41.236 -22.398 -37.648  0.00  0.00    +0.033 C 
ATOM     39  O   UNL     1      39.093 -21.567 -36.922  0.00  0.00    -0.251 OA
ENDBRANCH  36  37
ENDBRANCH   2  36
TORSDOF 7
ENDMDL
MODEL 11
REMARK VINA RESULT:    -6.220     26.516     31.790
REMARK INTER + INTRA:          -9.632
REMARK INTER:                  -8.164
REMARK INTRA:                  -1.468
REMARK UNBOUND:                -1.048
REMARK  Name = cpd246.pdb
REMARK  15 active torsions:
REMARK  status: ('A' for Active; 'I' for Inactive)
REMARK    1  A    between atoms: C_1  and  C_2
REMARK    2  A    between atoms: C_3  and  C_4
REMARK    3  A    between atoms: C_3  and  C_5
REMARK    4  A    between atoms: N_7  and  C_8
REMARK    5  A    between atoms: C_9  and  O_10
REMARK    6  A    between atoms: O_10  and  C_11
REMARK    7  A    between atoms: C_11  and  C_12
REMARK    8  A    between atoms: C_21  and  C_22
REMARK    9  A    between atoms: C_23  and  C_24
REMARK   10  A    between atoms: C_24  and  C_25
REMARK   11  A    between atoms: C_24  and  N_26
REMARK   12  A    between atoms: N_26  and  C_27
REMARK   13  A    between atoms: N_26  and  C_28
REMARK   14  A    between atoms: C_32  and  C_33
REMARK   15  A    between atoms: C_35  and  O_36
REMARK                            x       y       z     vdW  Elec       q    Type
REMARK                         _______ _______ _______ _____ _____    ______ ____
ROOT
ATOM      1  C   UNL     1      40.007 -46.260 -17.381  0.00  0.00    +0.086 C 
ATOM      2  C   UNL     1      40.056 -44.847 -16.738  0.00  0.00    +0.127 C 
ATOM      3  C   UNL     1      39.122 -43.843 -17.462  0.00  0.00    +0.004 C 
ATOM      4  C   UNL     1      39.224 -42.440 -16.850  0.00  0.00    -0.046 C 
ATOM      5  C   UNL     1      38.380 -41.435 -17.627  0.00  0.00    -0.049 C 
ATOM      6  C   UNL     1      36.904 -41.850 -17.775  0.00  0.00    -0.034 C 
ATOM      7  C   UNL     1      36.741 -43.303 -18.300  0.00  0.00    -0.032 C 
ATOM      8  C   UNL     1      36.899 -43.266 -19.823  0.00  0.00    -0.049 C 
ATOM      9  C   UNL     1      35.719 -42.552 -20.485  0.00  0.00    -0.047 C 
ATOM     10  C   UNL     1      35.155 -41.310 -19.740  0.00  0.00    -0.025 C 
ATOM     11  C   UNL     1      33.775 -41.664 -19.129  0.00  0.00    -0.059 C 
ATOM     12  C   UNL     1      35.099 -40.074 -20.741  0.00  0.00    -0.020 C 
ATOM     13  C   UNL     1      35.662 -38.906 -19.918  0.00  0.00    -0.048 C 
ATOM     14  C   UNL     1      36.759 -39.568 -19.102  0.00  0.00    -0.049 C 
ATOM     15  C   UNL     1      36.052 -40.809 -18.555  0.00  0.00    -0.032 C 
ATOM     16  C   UNL     1      37.647 -44.335 -17.520  0.00  0.00    -0.020 C 
ATOM     17  C   UNL     1      37.032 -44.483 -16.093  0.00  0.00    -0.059 C 
ATOM     18  C   UNL     1      37.631 -45.742 -18.179  0.00  0.00    -0.019 C 
ATOM     19  C   UNL     1      38.544 -46.761 -17.477  0.00  0.00    +0.077 C 
ENDROOT
BRANCH   1  22
ATOM     20  C   UNL     1      41.776 -46.984 -19.075  0.00  0.00    +0.240 C 
ATOM     21  O   UNL     1      42.027 -47.150 -20.266  0.00  0.00    -0.271 OA
ATOM     22  N   UNL     1      40.680 -46.265 -18.697  0.00  0.00    -0.303 N 
ATOM     23  H   UNL     1      40.290 -45.679 -19.385  0.00  0.00    +0.000 HD
BRANCH  20  26
ATOM     24  C   UNL     1      44.766 -47.143 -16.639  0.00  0.00    -0.046 C 
ATOM     25  C   UNL     1      43.735 -46.780 -17.658  0.00  0.00    -0.079 C 
ATOM     26  C   UNL     1      42.677 -47.529 -18.024  0.00  0.00    +0.007 C 
ATOM     27  C   UNL     1      42.381 -48.922 -17.570  0.00  0.00    -0.035 C 
ENDBRANCH  20  26
ENDBRANCH   1  22
BRANCH  12  28
ATOM     28  C   UNL     1      33.744 -39.750 -21.443  0.00  0.00    +0.010 C 
ATOM     29  C   UNL     1      33.758 -40.191 -22.917  0.00  0.00    -0.049 C 
BRANCH  28  30
ATOM     30  N   UNL     1      33.389 -38.320 -21.270  0.00  0.00    -0.305 N 
ATOM     31  C   UNL     1      33.439 -37.517 -22.489  0.00  0.00    -0.013 C 
ATOM     32  C   UNL     1      32.105 -38.143 -20.592  0.00  0.00    -0.013 C 
ATOM     33  H   UNL     1      34.131 -37.959 -20.670  0.00  0.00    +0.000 HD
ENDBRANCH  28  30
ENDBRANCH  12  28
BRANCH  19  34
ATOM     34  O   UNL     1      38.477 -48.009 -18.168  0.00  0.00    -0.390 OA
ATOM     35  H   UNL     1      37.550 -48.285 -18.250  0.00  0.00    +0.000 HD
ENDBRANCH  19  34
BRANCH   2  36
ATOM     36  O   UNL     1      41.405 -44.327 -16.782  0.00  0.00    -0.459 OA
BRANCH  36  37
ATOM     37  C   UNL     1      42.035 -44.212 -15.582  0.00  0.00    +0.304 C 
ATOM     38  C   UNL     1      43.309 -43.440 -15.743  0.00  0.00    +0.033 C 
ATOM     39  O   UNL     1      41.629 -44.665 -14.522  0.00  0.00    -0.251 OA
ENDBRANCH  36  37
ENDBRANCH   2  36
TORSDOF 7
ENDMDL
MODEL 12
REMARK VINA RESULT:    -6.213     18.587     21.357
REMARK INTER + INTRA:          -9.621
REMARK INTER:                  -8.460
REMARK INTRA:                  -1.162
REMARK UNBOUND:                -1.048
REMARK  Name = cpd246.pdb
REMARK  15 active torsions:
REMARK  status: ('A' for Active; 'I' for Inactive)
REMARK    1  A    between atoms: C_1  and  C_2
REMARK    2  A    between atoms: C_3  and  C_4
REMARK    3  A    between atoms: C_3  and  C_5
REMARK    4  A    between atoms: N_7  and  C_8
REMARK    5  A    between atoms: C_9  and  O_10
REMARK    6  A    between atoms: O_10  and  C_11
REMARK    7  A    between atoms: C_11  and  C_12
REMARK    8  A    between atoms: C_21  and  C_22
REMARK    9  A    between atoms: C_23  and  C_24
REMARK   10  A    between atoms: C_24  and  C_25
REMARK   11  A    between atoms: C_24  and  N_26
REMARK   12  A    between atoms: N_26  and  C_27
REMARK   13  A    between atoms: N_26  and  C_28
REMARK   14  A    between atoms: C_32  and  C_33
REMARK   15  A    between atoms: C_35  and  O_36
REMARK                            x       y       z     vdW  Elec       q    Type
REMARK                         _______ _______ _______ _____ _____    ______ ____
ROOT
ATOM      1  C   UNL     1      35.496 -37.599 -30.172  0.00  0.00    +0.086 C 
ATOM      2  C   UNL     1      34.179 -38.013 -30.884  0.00  0.00    +0.127 C 
ATOM      3  C   UNL     1      33.055 -36.961 -30.689  0.00  0.00    +0.004 C 
ATOM      4  C   UNL     1      31.745 -37.410 -31.350  0.00  0.00    -0.046 C 
ATOM      5  C   UNL     1      30.618 -36.422 -31.071  0.00  0.00    -0.049 C 
ATOM      6  C   UNL     1      30.953 -34.973 -31.472  0.00  0.00    -0.034 C 
ATOM      7  C   UNL     1      32.320 -34.497 -30.909  0.00  0.00    -0.032 C 
ATOM      8  C   UNL     1      32.097 -34.060 -29.457  0.00  0.00    -0.049 C 
ATOM      9  C   UNL     1      31.259 -32.783 -29.386  0.00  0.00    -0.047 C 
ATOM     10  C   UNL     1      30.100 -32.656 -30.414  0.00  0.00    -0.025 C 
ATOM     11  C   UNL     1      30.474 -31.591 -31.477  0.00  0.00    -0.059 C 
ATOM     12  C   UNL     1      28.746 -32.326 -29.645  0.00  0.00    -0.020 C 
ATOM     13  C   UNL     1      27.714 -33.260 -30.296  0.00  0.00    -0.048 C 
ATOM     14  C   UNL     1      28.517 -34.525 -30.546  0.00  0.00    -0.049 C 
ATOM     15  C   UNL     1      29.788 -33.979 -31.198  0.00  0.00    -0.032 C 
ATOM     16  C   UNL     1      33.477 -35.541 -31.163  0.00  0.00    -0.020 C 
ATOM     17  C   UNL     1      33.780 -35.510 -32.694  0.00  0.00    -0.059 C 
ATOM     18  C   UNL     1      34.788 -35.153 -30.424  0.00  0.00    -0.019 C 
ATOM     19  C   UNL     1      35.922 -36.174 -30.606  0.00  0.00    +0.077 C 
ENDROOT
BRANCH   1  22
ATOM     20  C   UNL     1      36.324 -38.048 -27.797  0.00  0.00    +0.240 C 
ATOM     21  O   UNL     1      36.171 -37.784 -26.607  0.00  0.00    -0.271 OA
ATOM     22  N   UNL     1      35.361 -37.712 -28.704  0.00  0.00    -0.303 N 
ATOM     23  H   UNL     1      34.468 -37.522 -28.336  0.00  0.00    +0.000 HD
BRANCH  20  26
ATOM     24  C   UNL     1      40.034 -38.627 -28.686  0.00  0.00    -0.046 C 
ATOM     25  C   UNL     1      38.707 -38.101 -28.246  0.00  0.00    -0.079 C 
ATOM     26  C   UNL     1      37.537 -38.768 -28.268  0.00  0.00    +0.007 C 
ATOM     27  C   UNL     1      37.306 -40.130 -28.839  0.00  0.00    -0.035 C 
ENDBRANCH  20  26
ENDBRANCH   1  22
BRANCH  12  28
ATOM     28  C   UNL     1      28.283 -30.839 -29.566  0.00  0.00    +0.010 C 
ATOM     29  C   UNL     1      28.320 -30.317 -28.119  0.00  0.00    -0.049 C 
BRANCH  28  30
ATOM     30  N   UNL     1      26.957 -30.663 -30.211  0.00  0.00    -0.305 N 
ATOM     31  C   UNL     1      25.890 -30.216 -29.320  0.00  0.00    -0.013 C 
ATOM     32  C   UNL     1      27.024 -29.813 -31.399  0.00  0.00    -0.013 C 
ATOM     33  H   UNL     1      26.702 -31.609 -30.496  0.00  0.00    +0.000 HD
ENDBRANCH  28  30
ENDBRANCH  12  28
BRANCH  19  34
ATOM     34  O   UNL     1      37.070 -35.741 -29.874  0.00  0.00    -0.390 OA
ATOM     35  H   UNL     1      36.820 -35.015 -29.280  0.00  0.00    +0.000 HD
ENDBRANCH  19  34
BRANCH   2  36
ATOM     36  O   UNL     1      33.711 -39.280 -30.368  0.00  0.00    -0.459 OA
BRANCH  36  37
ATOM     37  C   UNL     1      34.148 -40.386 -31.028  0.00  0.00    +0.304 C 
ATOM     38  C   UNL     1      34.171 -40.129 -32.503  0.00  0.00    +0.033 C 
ATOM     39  O   UNL     1      34.479 -41.440 -30.503  0.00  0.00    -0.251 OA
ENDBRANCH  36  37
ENDBRANCH   2  36
TORSDOF 7
ENDMDL
MODEL 13
REMARK VINA RESULT:    -6.170     23.947     29.337
REMARK INTER + INTRA:          -9.562
REMARK INTER:                  -8.074
REMARK INTRA:                  -1.487
REMARK UNBOUND:                -1.048
REMARK  Name = cpd246.pdb
REMARK  15 active torsions:
REMARK  status: ('A' for Active; 'I' for Inactive)
REMARK    1  A    between atoms: C_1  and  C_2
REMARK    2  A    between atoms: C_3  and  C_4
REMARK    3  A    between atoms: C_3  and  C_5
REMARK    4  A    between atoms: N_7  and  C_8
REMARK    5  A    between atoms: C_9  and  O_10
REMARK    6  A    between atoms: O_10  and  C_11
REMARK    7  A    between atoms: C_11  and  C_12
REMARK    8  A    between atoms: C_21  and  C_22
REMARK    9  A    between atoms: C_23  and  C_24
REMARK   10  A    between atoms: C_24  and  C_25
REMARK   11  A    between atoms: C_24  and  N_26
REMARK   12  A    between atoms: N_26  and  C_27
REMARK   13  A    between atoms: N_26  and  C_28
REMARK   14  A    between atoms: C_32  and  C_33
REMARK   15  A    between atoms: C_35  and  O_36
REMARK                            x       y       z     vdW  Elec       q    Type
REMARK                         _______ _______ _______ _____ _____    ______ ____
ROOT
ATOM      1  C   UNL     1      70.898 -15.280 -27.130  0.00  0.00    +0.086 C 
ATOM      2  C   UNL     1      70.487 -15.745 -28.553  0.00  0.00    +0.127 C 
ATOM      3  C   UNL     1      69.003 -15.418 -28.868  0.00  0.00    +0.004 C 
ATOM      4  C   UNL     1      68.597 -15.933 -30.255  0.00  0.00    -0.046 C 
ATOM      5  C   UNL     1      67.114 -15.699 -30.519  0.00  0.00    -0.049 C 
ATOM      6  C   UNL     1      66.678 -14.232 -30.342  0.00  0.00    -0.034 C 
ATOM      7  C   UNL     1      67.149 -13.627 -28.990  0.00  0.00    -0.032 C 
ATOM      8  C   UNL     1      66.154 -14.069 -27.913  0.00  0.00    -0.049 C 
ATOM      9  C   UNL     1      64.793 -13.399 -28.106  0.00  0.00    -0.047 C 
ATOM     10  C   UNL     1      64.310 -13.223 -29.573  0.00  0.00    -0.025 C 
ATOM     11  C   UNL     1      64.390 -11.725 -29.962  0.00  0.00    -0.059 C 
ATOM     12  C   UNL     1      62.847 -13.832 -29.724  0.00  0.00    -0.020 C 
ATOM     13  C   UNL     1      62.914 -14.635 -31.033  0.00  0.00    -0.048 C 
ATOM     14  C   UNL     1      64.314 -15.221 -30.995  0.00  0.00    -0.049 C 
ATOM     15  C   UNL     1      65.166 -14.005 -30.630  0.00  0.00    -0.032 C 
ATOM     16  C   UNL     1      68.676 -13.907 -28.701  0.00  0.00    -0.020 C 
ATOM     17  C   UNL     1      69.490 -13.026 -29.700  0.00  0.00    -0.059 C 
ATOM     18  C   UNL     1      69.087 -13.478 -27.264  0.00  0.00    -0.019 C 
ATOM     19  C   UNL     1      70.555 -13.783 -26.928  0.00  0.00    +0.077 C 
ENDROOT
BRANCH   1  22
ATOM     20  C   UNL     1      70.887 -16.763 -25.050  0.00  0.00    +0.240 C 
ATOM     21  O   UNL     1      70.225 -17.156 -24.092  0.00  0.00    -0.271 OA
ATOM     22  N   UNL     1      70.276 -16.134 -26.095  0.00  0.00    -0.303 N 
ATOM     23  H   UNL     1      69.303 -16.264 -26.169  0.00  0.00    +0.000 HD
BRANCH  20  26
ATOM     24  C   UNL     1      74.202 -18.639 -25.672  0.00  0.00    -0.046 C 
ATOM     25  C   UNL     1      72.780 -18.194 -25.550  0.00  0.00    -0.079 C 
ATOM     26  C   UNL     1      72.355 -16.995 -25.107  0.00  0.00    +0.007 C 
ATOM     27  C   UNL     1      73.209 -15.907 -24.543  0.00  0.00    -0.035 C 
ENDBRANCH  20  26
ENDBRANCH   1  22
BRANCH  12  28
ATOM     28  C   UNL     1      61.629 -12.862 -29.646  0.00  0.00    +0.010 C 
ATOM     29  C   UNL     1      60.738 -13.178 -28.432  0.00  0.00    -0.049 C 
BRANCH  28  30
ATOM     30  N   UNL     1      60.879 -12.851 -30.926  0.00  0.00    -0.305 N 
ATOM     31  C   UNL     1      59.484 -13.273 -30.831  0.00  0.00    -0.013 C 
ATOM     32  C   UNL     1      60.980 -11.567 -31.620  0.00  0.00    -0.013 C 
ATOM     33  H   UNL     1      61.347 -13.566 -31.484  0.00  0.00    +0.000 HD
ENDBRANCH  28  30
ENDBRANCH  12  28
BRANCH  19  34
ATOM     34  O   UNL     1      70.826 -13.374 -25.586  0.00  0.00    -0.390 OA
ATOM     35  H   UNL     1      71.649 -13.788 -25.282  0.00  0.00    +0.000 HD
ENDBRANCH  19  34
BRANCH   2  36
ATOM     36  O   UNL     1      70.677 -17.172 -28.685  0.00  0.00    -0.459 OA
BRANCH  36  37
ATOM     37  C   UNL     1      71.841 -17.563 -29.268  0.00  0.00    +0.304 C 
ATOM     38  C   UNL     1      72.265 -16.558 -30.294  0.00  0.00    +0.033 C 
ATOM     39  O   UNL     1      72.461 -18.583 -29.000  0.00  0.00    -0.251 OA
ENDBRANCH  36  37
ENDBRANCH   2  36
TORSDOF 7
ENDMDL
MODEL 14
REMARK VINA RESULT:    -6.006      3.889      9.591
REMARK INTER + INTRA:          -9.336
REMARK INTER:                  -7.878
REMARK INTRA:                  -1.458
REMARK UNBOUND:                -1.048
REMARK  Name = cpd246.pdb
REMARK  15 active torsions:
REMARK  status: ('A' for Active; 'I' for Inactive)
REMARK    1  A    between atoms: C_1  and  C_2
REMARK    2  A    between atoms: C_3  and  C_4
REMARK    3  A    between atoms: C_3  and  C_5
REMARK    4  A    between atoms: N_7  and  C_8
REMARK    5  A    between atoms: C_9  and  O_10
REMARK    6  A    between atoms: O_10  and  C_11
REMARK    7  A    between atoms: C_11  and  C_12
REMARK    8  A    between atoms: C_21  and  C_22
REMARK    9  A    between atoms: C_23  and  C_24
REMARK   10  A    between atoms: C_24  and  C_25
REMARK   11  A    between atoms: C_24  and  N_26
REMARK   12  A    between atoms: N_26  and  C_27
REMARK   13  A    between atoms: N_26  and  C_28
REMARK   14  A    between atoms: C_32  and  C_33
REMARK   15  A    between atoms: C_35  and  O_36
REMARK                            x       y       z     vdW  Elec       q    Type
REMARK                         _______ _______ _______ _____ _____    ______ ____
ROOT
ATOM      1  C   UNL     1      43.105 -19.969 -35.870  0.00  0.00    +0.086 C 
ATOM      2  C   UNL     1      42.976 -19.222 -34.515  0.00  0.00    +0.127 C 
ATOM      3  C   UNL     1      41.502 -18.870 -34.180  0.00  0.00    +0.004 C 
ATOM      4  C   UNL     1      41.397 -18.084 -32.866  0.00  0.00    -0.046 C 
ATOM      5  C   UNL     1      39.961 -17.654 -32.593  0.00  0.00    -0.049 C 
ATOM      6  C   UNL     1      38.954 -18.820 -32.603  0.00  0.00    -0.034 C 
ATOM      7  C   UNL     1      39.082 -19.709 -33.870  0.00  0.00    -0.032 C 
ATOM      8  C   UNL     1      38.316 -19.018 -35.002  0.00  0.00    -0.049 C 
ATOM      9  C   UNL     1      36.808 -19.040 -34.746  0.00  0.00    -0.047 C 
ATOM     10  C   UNL     1      36.353 -18.839 -33.274  0.00  0.00    -0.025 C 
ATOM     11  C   UNL     1      35.824 -20.183 -32.713  0.00  0.00    -0.059 C 
ATOM     12  C   UNL     1      35.277 -17.667 -33.210  0.00  0.00    -0.020 C 
ATOM     13  C   UNL     1      35.719 -16.825 -32.003  0.00  0.00    -0.048 C 
ATOM     14  C   UNL     1      37.234 -16.878 -32.093  0.00  0.00    -0.049 C 
ATOM     15  C   UNL     1      37.495 -18.369 -32.306  0.00  0.00    -0.032 C 
ATOM     16  C   UNL     1      40.576 -20.120 -34.174  0.00  0.00    -0.020 C 
ATOM     17  C   UNL     1      40.994 -21.142 -33.071  0.00  0.00    -0.059 C 
ATOM     18  C   UNL     1      40.719 -20.835 -35.546  0.00  0.00    -0.019 C 
ATOM     19  C   UNL     1      42.169 -21.203 -35.901  0.00  0.00    +0.077 C 
ENDROOT
BRANCH   1  22
ATOM     20  C   UNL     1      43.720 -18.666 -37.980  0.00  0.00    +0.240 C 
ATOM     21  O   UNL     1      43.299 -18.181 -39.027  0.00  0.00    -0.271 OA
ATOM     22  N   UNL     1      42.850 -19.054 -37.004  0.00  0.00    -0.303 N 
ATOM     23  H   UNL     1      41.941 -18.679 -37.061  0.00  0.00    +0.000 HD
BRANCH  20  26
ATOM     24  C   UNL     1      47.314 -17.636 -37.021  0.00  0.00    -0.046 C 
ATOM     25  C   UNL     1      45.850 -17.719 -37.309  0.00  0.00    -0.079 C 
ATOM     26  C   UNL     1      45.181 -18.806 -37.739  0.00  0.00    +0.007 C 
ATOM     27  C   UNL     1      45.782 -20.118 -38.123  0.00  0.00    -0.035 C 
ENDBRANCH  20  26
ENDBRANCH   1  22
BRANCH  12  28
ATOM     28  C   UNL     1      33.765 -18.050 -33.188  0.00  0.00    +0.010 C 
ATOM     29  C   UNL     1      33.185 -18.119 -34.611  0.00  0.00    -0.049 C 
BRANCH  28  30
ATOM     30  N   UNL     1      33.004 -17.141 -32.295  0.00  0.00    -0.305 N 
ATOM     31  C   UNL     1      32.191 -16.139 -32.979  0.00  0.00    -0.013 C 
ATOM     32  C   UNL     1      32.200 -17.870 -31.314  0.00  0.00    -0.013 C 
ATOM     33  H   UNL     1      33.731 -16.621 -31.805  0.00  0.00    +0.000 HD
ENDBRANCH  28  30
ENDBRANCH  12  28
BRANCH  19  34
ATOM     34  O   UNL     1      42.196 -21.832 -37.183  0.00  0.00    -0.390 OA
ATOM     35  H   UNL     1      41.737 -22.685 -37.135  0.00  0.00    +0.000 HD
ENDBRANCH  19  34
BRANCH   2  36
ATOM     36  O   UNL     1      43.741 -17.995 -34.547  0.00  0.00    -0.459 OA
BRANCH  36  37
ATOM     37  C   UNL     1      44.907 -18.006 -33.847  0.00  0.00    +0.304 C 
ATOM     38  C   UNL     1      44.972 -16.816 -32.940  0.00  0.00    +0.033 C 
ATOM     39  O   UNL     1      45.779 -18.858 -33.937  0.00  0.00    -0.251 OA
ENDBRANCH  36  37
ENDBRANCH   2  36
TORSDOF 7
ENDMDL
MODEL 15
REMARK VINA RESULT:    -5.814     17.816     20.689
REMARK INTER + INTRA:          -9.072
REMARK INTER:                  -7.672
REMARK INTRA:                  -1.400
REMARK UNBOUND:                -1.048
REMARK  Name = cpd246.pdb
REMARK  15 active torsions:
REMARK  status: ('A' for Active; 'I' for Inactive)
REMARK    1  A    between atoms: C_1  and  C_2
REMARK    2  A    between atoms: C_3  and  C_4
REMARK    3  A    between atoms: C_3  and  C_5
REMARK    4  A    between atoms: N_7  and  C_8
REMARK    5  A    between atoms: C_9  and  O_10
REMARK    6  A    between atoms: O_10  and  C_11
REMARK    7  A    between atoms: C_11  and  C_12
REMARK    8  A    between atoms: C_21  and  C_22
REMARK    9  A    between atoms: C_23  and  C_24
REMARK   10  A    between atoms: C_24  and  C_25
REMARK   11  A    between atoms: C_24  and  N_26
REMARK   12  A    between atoms: N_26  and  C_27
REMARK   13  A    between atoms: N_26  and  C_28
REMARK   14  A    between atoms: C_32  and  C_33
REMARK   15  A    between atoms: C_35  and  O_36
REMARK                            x       y       z     vdW  Elec       q    Type
REMARK                         _______ _______ _______ _____ _____    ______ ____
ROOT
ATOM      1  C   UNL     1      34.539 -36.600 -30.450  0.00  0.00    +0.086 C 
ATOM      2  C   UNL     1      33.200 -36.737 -31.226  0.00  0.00    +0.127 C 
ATOM      3  C   UNL     1      32.206 -35.597 -30.880  0.00  0.00    +0.004 C 
ATOM      4  C   UNL     1      30.869 -35.777 -31.612  0.00  0.00    -0.046 C 
ATOM      5  C   UNL     1      29.862 -34.712 -31.193  0.00  0.00    -0.049 C 
ATOM      6  C   UNL     1      30.379 -33.271 -31.366  0.00  0.00    -0.034 C 
ATOM      7  C   UNL     1      31.778 -33.057 -30.727  0.00  0.00    -0.032 C 
ATOM      8  C   UNL     1      31.573 -32.819 -29.228  0.00  0.00    -0.049 C 
ATOM      9  C   UNL     1      30.892 -31.474 -28.968  0.00  0.00    -0.047 C 
ATOM     10  C   UNL     1      29.784 -31.053 -29.973  0.00  0.00    -0.025 C 
ATOM     11  C   UNL     1      30.309 -29.894 -30.859  0.00  0.00    -0.059 C 
ATOM     12  C   UNL     1      28.461 -30.678 -29.172  0.00  0.00    -0.020 C 
ATOM     13  C   UNL     1      27.341 -31.370 -29.965  0.00  0.00    -0.048 C 
ATOM     14  C   UNL     1      27.992 -32.672 -30.399  0.00  0.00    -0.049 C 
ATOM     15  C   UNL     1      29.335 -32.194 -30.951  0.00  0.00    -0.032 C 
ATOM     16  C   UNL     1      32.808 -34.185 -31.130  0.00  0.00    -0.020 C 
ATOM     17  C   UNL     1      33.151 -33.961 -32.637  0.00  0.00    -0.059 C 
ATOM     18  C   UNL     1      34.137 -34.076 -30.331  0.00  0.00    -0.019 C 
ATOM     19  C   UNL     1      35.144 -35.190 -30.659  0.00  0.00    +0.077 C 
ENDROOT
BRANCH   1  22
ATOM     20  C   UNL     1      35.111 -37.738 -28.236  0.00  0.00    +0.240 C 
ATOM     21  O   UNL     1      35.054 -37.653 -27.012  0.00  0.00    -0.271 OA
ATOM     22  N   UNL     1      34.354 -36.916 -29.018  0.00  0.00    -0.303 N 
ATOM     23  H   UNL     1      33.591 -36.479 -28.573  0.00  0.00    +0.000 HD
BRANCH  20  26
ATOM     24  C   UNL     1      36.114 -41.119 -29.803  0.00  0.00    -0.046 C 
ATOM     25  C   UNL     1      35.426 -39.956 -29.168  0.00  0.00    -0.079 C 
ATOM     26  C   UNL     1      35.975 -38.758 -28.889  0.00  0.00    +0.007 C 
ATOM     27  C   UNL     1      37.412 -38.384 -29.056  0.00  0.00    -0.035 C 
ENDBRANCH  20  26
ENDBRANCH   1  22
BRANCH  12  28
ATOM     28  C   UNL     1      28.177 -29.175 -28.871  0.00  0.00    +0.010 C 
ATOM     29  C   UNL     1      27.888 -28.948 -27.377  0.00  0.00    -0.049 C 
BRANCH  28  30
ATOM     30  N   UNL     1      27.105 -28.652 -29.754  0.00  0.00    -0.305 N 
ATOM     31  C   UNL     1      25.929 -28.133 -29.060  0.00  0.00    -0.013 C 
ATOM     32  C   UNL     1      27.606 -27.671 -30.717  0.00  0.00    -0.013 C 
ATOM     33  H   UNL     1      26.787 -29.478 -30.260  0.00  0.00    +0.000 HD
ENDBRANCH  28  30
ENDBRANCH  12  28
BRANCH  19  34
ATOM     34  O   UNL     1      36.316 -35.015 -29.862  0.00  0.00    -0.390 OA
ATOM     35  H   UNL     1      36.969 -35.694 -30.094  0.00  0.00    +0.000 HD
ENDBRANCH  19  34
BRANCH   2  36
ATOM     36  O   UNL     1      32.570 -38.001 -30.912  0.00  0.00    -0.459 OA
BRANCH  36  37
ATOM     37  C   UNL     1      32.780 -39.005 -31.805  0.00  0.00    +0.304 C 
ATOM     38  C   UNL     1      32.342 -40.312 -31.220  0.00  0.00    +0.033 C 
ATOM     39  O   UNL     1      33.255 -38.870 -32.924  0.00  0.00    -0.251 OA
ENDBRANCH  36  37
ENDBRANCH   2  36
TORSDOF 7
ENDMDL
MODEL 16
REMARK VINA RESULT:    -5.796     30.378     32.510
REMARK INTER + INTRA:          -9.047
REMARK INTER:                  -7.630
REMARK INTRA:                  -1.417
REMARK UNBOUND:                -1.048
REMARK  Name = cpd246.pdb
REMARK  15 active torsions:
REMARK  status: ('A' for Active; 'I' for Inactive)
REMARK    1  A    between atoms: C_1  and  C_2
REMARK    2  A    between atoms: C_3  and  C_4
REMARK    3  A    between atoms: C_3  and  C_5
REMARK    4  A    between atoms: N_7  and  C_8
REMARK    5  A    between atoms: C_9  and  O_10
REMARK    6  A    between atoms: O_10  and  C_11
REMARK    7  A    between atoms: C_11  and  C_12
REMARK    8  A    between atoms: C_21  and  C_22
REMARK    9  A    between atoms: C_23  and  C_24
REMARK   10  A    between atoms: C_24  and  C_25
REMARK   11  A    between atoms: C_24  and  N_26
REMARK   12  A    between atoms: N_26  and  C_27
REMARK   13  A    between atoms: N_26  and  C_28
REMARK   14  A    between atoms: C_32  and  C_33
REMARK   15  A    between atoms: C_35  and  O_36
REMARK                            x       y       z     vdW  Elec       q    Type
REMARK                         _______ _______ _______ _____ _____    ______ ____
ROOT
ATOM      1  C   UNL     1      47.716 -46.438 -50.045  0.00  0.00    +0.086 C 
ATOM      2  C   UNL     1      47.863 -47.572 -48.994  0.00  0.00    +0.127 C 
ATOM      3  C   UNL     1      49.332 -47.747 -48.526  0.00  0.00    +0.004 C 
ATOM      4  C   UNL     1      49.470 -48.907 -47.530  0.00  0.00    -0.046 C 
ATOM      5  C   UNL     1      50.928 -49.139 -47.151  0.00  0.00    -0.049 C 
ATOM      6  C   UNL     1      51.635 -47.881 -46.611  0.00  0.00    -0.034 C 
ATOM      7  C   UNL     1      51.445 -46.647 -47.534  0.00  0.00    -0.032 C 
ATOM      8  C   UNL     1      52.469 -46.754 -48.668  0.00  0.00    -0.049 C 
ATOM      9  C   UNL     1      53.894 -46.551 -48.150  0.00  0.00    -0.047 C 
ATOM     10  C   UNL     1      54.219 -47.165 -46.759  0.00  0.00    -0.025 C 
ATOM     11  C   UNL     1      54.359 -46.026 -45.717  0.00  0.00    -0.059 C 
ATOM     12  C   UNL     1      55.521 -48.072 -46.874  0.00  0.00    -0.020 C 
ATOM     13  C   UNL     1      55.155 -49.345 -46.094  0.00  0.00    -0.048 C 
ATOM     14  C   UNL     1      53.688 -49.537 -46.436  0.00  0.00    -0.049 C 
ATOM     15  C   UNL     1      53.116 -48.137 -46.212  0.00  0.00    -0.032 C 
ATOM     16  C   UNL     1      49.939 -46.432 -47.959  0.00  0.00    -0.020 C 
ATOM     17  C   UNL     1      49.179 -45.948 -46.685  0.00  0.00    -0.059 C 
ATOM     18  C   UNL     1      49.788 -45.324 -49.038  0.00  0.00    -0.019 C 
ATOM     19  C   UNL     1      48.341 -45.123 -49.515  0.00  0.00    +0.077 C 
ENDROOT
BRANCH   1  22
ATOM     20  C   UNL     1      47.680 -46.897 -52.557  0.00  0.00    +0.240 C 
ATOM     21  O   UNL     1      48.346 -46.924 -53.590  0.00  0.00    -0.271 OA
ATOM     22  N   UNL     1      48.298 -46.842 -51.343  0.00  0.00    -0.303 N 
ATOM     23  H   UNL     1      49.247 -47.103 -51.329  0.00  0.00    +0.000 HD
BRANCH  20  26
ATOM     24  C   UNL     1      44.154 -48.466 -52.592  0.00  0.00    -0.046 C 
ATOM     25  C   UNL     1      45.619 -48.176 -52.543  0.00  0.00    -0.079 C 
ATOM     26  C   UNL     1      46.195 -46.961 -52.608  0.00  0.00    +0.007 C 
ATOM     27  C   UNL     1      45.495 -45.663 -52.852  0.00  0.00    -0.035 C 
ENDBRANCH  20  26
ENDBRANCH   1  22
BRANCH  12  28
ATOM     28  C   UNL     1      56.893 -47.456 -46.459  0.00  0.00    +0.010 C 
ATOM     29  C   UNL     1      57.464 -46.561 -47.573  0.00  0.00    -0.049 C 
BRANCH  28  30
ATOM     30  N   UNL     1      57.838 -48.515 -46.025  0.00  0.00    -0.305 N 
ATOM     31  C   UNL     1      58.867 -48.865 -47.000  0.00  0.00    -0.013 C 
ATOM     32  C   UNL     1      58.442 -48.222 -44.725  0.00  0.00    -0.013 C 
ATOM     33  H   UNL     1      57.247 -49.342 -45.936  0.00  0.00    +0.000 HD
ENDBRANCH  28  30
ENDBRANCH  12  28
BRANCH  19  34
ATOM     34  O   UNL     1      48.311 -44.105 -50.516  0.00  0.00    -0.390 OA
ATOM     35  H   UNL     1      49.216 -43.811 -50.707  0.00  0.00    +0.000 HD
ENDBRANCH  19  34
BRANCH   2  36
ATOM     36  O   UNL     1      47.409 -48.828 -49.549  0.00  0.00    -0.459 OA
BRANCH  36  37
ATOM     37  C   UNL     1      46.239 -49.307 -49.049  0.00  0.00    +0.304 C 
ATOM     38  C   UNL     1      46.438 -50.691 -48.514  0.00  0.00    +0.033 C 
ATOM     39  O   UNL     1      45.175 -48.704 -49.033  0.00  0.00    -0.251 OA
ENDBRANCH  36  37
ENDBRANCH   2  36
TORSDOF 7
ENDMDL
MODEL 17
REMARK VINA RESULT:    -5.753     30.930     32.987
REMARK INTER + INTRA:          -8.987
REMARK INTER:                  -7.490
REMARK INTRA:                  -1.497
REMARK UNBOUND:                -1.048
REMARK  Name = cpd246.pdb
REMARK  15 active torsions:
REMARK  status: ('A' for Active; 'I' for Inactive)
REMARK    1  A    between atoms: C_1  and  C_2
REMARK    2  A    between atoms: C_3  and  C_4
REMARK    3  A    between atoms: C_3  and  C_5
REMARK    4  A    between atoms: N_7  and  C_8
REMARK    5  A    between atoms: C_9  and  O_10
REMARK    6  A    between atoms: O_10  and  C_11
REMARK    7  A    between atoms: C_11  and  C_12
REMARK    8  A    between atoms: C_21  and  C_22
REMARK    9  A    between atoms: C_23  and  C_24
REMARK   10  A    between atoms: C_24  and  C_25
REMARK   11  A    between atoms: C_24  and  N_26
REMARK   12  A    between atoms: N_26  and  C_27
REMARK   13  A    between atoms: N_26  and  C_28
REMARK   14  A    between atoms: C_32  and  C_33
REMARK   15  A    between atoms: C_35  and  O_36
REMARK                            x       y       z     vdW  Elec       q    Type
REMARK                         _______ _______ _______ _____ _____    ______ ____
ROOT
ATOM      1  C   UNL     1      49.900 -46.072 -48.306  0.00  0.00    +0.086 C 
ATOM      2  C   UNL     1      50.255 -47.583 -48.341  0.00  0.00    +0.127 C 
ATOM      3  C   UNL     1      51.779 -47.829 -48.176  0.00  0.00    +0.004 C 
ATOM      4  C   UNL     1      52.120 -49.322 -48.269  0.00  0.00    -0.046 C 
ATOM      5  C   UNL     1      53.626 -49.549 -48.206  0.00  0.00    -0.049 C 
ATOM      6  C   UNL     1      54.295 -48.922 -46.969  0.00  0.00    -0.034 C 
ATOM      7  C   UNL     1      53.905 -47.431 -46.770  0.00  0.00    -0.032 C 
ATOM      8  C   UNL     1      54.793 -46.592 -47.694  0.00  0.00    -0.049 C 
ATOM      9  C   UNL     1      56.250 -46.607 -47.227  0.00  0.00    -0.047 C 
ATOM     10  C   UNL     1      56.782 -47.954 -46.664  0.00  0.00    -0.025 C 
ATOM     11  C   UNL     1      56.959 -47.833 -45.129  0.00  0.00    -0.059 C 
ATOM     12  C   UNL     1      58.126 -48.348 -47.420  0.00  0.00    -0.020 C 
ATOM     13  C   UNL     1      57.952 -49.843 -47.730  0.00  0.00    -0.048 C 
ATOM     14  C   UNL     1      56.474 -49.947 -48.061  0.00  0.00    -0.049 C 
ATOM     15  C   UNL     1      55.828 -49.176 -46.909  0.00  0.00    -0.032 C 
ATOM     16  C   UNL     1      52.348 -47.192 -46.876  0.00  0.00    -0.020 C 
ATOM     17  C   UNL     1      51.709 -47.821 -45.598  0.00  0.00    -0.059 C 
ATOM     18  C   UNL     1      51.987 -45.680 -46.878  0.00  0.00    -0.019 C 
ATOM     19  C   UNL     1      50.482 -45.408 -47.033  0.00  0.00    +0.077 C 
ENDROOT
BRANCH   1  22
ATOM     20  C   UNL     1      49.610 -44.644 -50.404  0.00  0.00    +0.240 C 
ATOM     21  O   UNL     1      50.162 -43.876 -51.188  0.00  0.00    -0.271 OA
ATOM     22  N   UNL     1      50.352 -45.393 -49.539  0.00  0.00    -0.303 N 
ATOM     23  H   UNL     1      51.306 -45.494 -49.763  0.00  0.00    +0.000 HD
BRANCH  20  26
ATOM     24  C   UNL     1      46.138 -45.928 -51.496  0.00  0.00    -0.046 C 
ATOM     25  C   UNL     1      47.592 -45.638 -51.313  0.00  0.00    -0.079 C 
ATOM     26  C   UNL     1      48.131 -44.800 -50.406  0.00  0.00    +0.007 C 
ATOM     27  C   UNL     1      47.380 -43.907 -49.472  0.00  0.00    -0.035 C 
ENDBRANCH  20  26
ENDBRANCH   1  22
BRANCH  12  28
ATOM     28  C   UNL     1      59.487 -48.004 -46.740  0.00  0.00    +0.010 C 
ATOM     29  C   UNL     1      60.278 -46.970 -47.560  0.00  0.00    -0.049 C 
BRANCH  28  30
ATOM     30  N   UNL     1      60.264 -49.237 -46.459  0.00  0.00    -0.305 N 
ATOM     31  C   UNL     1      61.569 -49.309 -47.112  0.00  0.00    -0.013 C 
ATOM     32  C   UNL     1      60.393 -49.500 -45.026  0.00  0.00    -0.013 C 
ATOM     33  H   UNL     1      59.702 -49.976 -46.881  0.00  0.00    +0.000 HD
ENDBRANCH  28  30
ENDBRANCH  12  28
BRANCH  19  34
ATOM     34  O   UNL     1      50.257 -43.997 -47.046  0.00  0.00    -0.390 OA
ATOM     35  H   UNL     1      51.014 -43.553 -47.459  0.00  0.00    +0.000 HD
ENDBRANCH  19  34
BRANCH   2  36
ATOM     36  O   UNL     1      49.834 -48.164 -49.597  0.00  0.00    -0.459 OA
BRANCH  36  37
ATOM     37  C   UNL     1      48.657 -48.843 -49.570  0.00  0.00    +0.304 C 
ATOM     38  C   UNL     1      48.385 -49.346 -48.186  0.00  0.00    +0.033 C 
ATOM     39  O   UNL     1      47.919 -49.022 -50.529  0.00  0.00    -0.251 OA
ENDBRANCH  36  37
ENDBRANCH   2  36
TORSDOF 7
ENDMDL
MODEL 18
REMARK VINA RESULT:    -5.740      1.582      2.204
REMARK INTER + INTRA:          -8.969
REMARK INTER:                  -7.772
REMARK INTRA:                  -1.197
REMARK UNBOUND:                -1.048
REMARK  Name = cpd246.pdb
REMARK  15 active torsions:
REMARK  status: ('A' for Active; 'I' for Inactive)
REMARK    1  A    between atoms: C_1  and  C_2
REMARK    2  A    between atoms: C_3  and  C_4
REMARK    3  A    between atoms: C_3  and  C_5
REMARK    4  A    between atoms: N_7  and  C_8
REMARK    5  A    between atoms: C_9  and  O_10
REMARK    6  A    between atoms: O_10  and  C_11
REMARK    7  A    between atoms: C_11  and  C_12
REMARK    8  A    between atoms: C_21  and  C_22
REMARK    9  A    between atoms: C_23  and  C_24
REMARK   10  A    between atoms: C_24  and  C_25
REMARK   11  A    between atoms: C_24  and  N_26
REMARK   12  A    between atoms: N_26  and  C_27
REMARK   13  A    between atoms: N_26  and  C_28
REMARK   14  A    between atoms: C_32  and  C_33
REMARK   15  A    between atoms: C_35  and  O_36
REMARK                            x       y       z     vdW  Elec       q    Type
REMARK                         _______ _______ _______ _____ _____    ______ ____
ROOT
ATOM      1  C   UNL     1      40.427 -20.318 -36.188  0.00  0.00    +0.086 C 
ATOM      2  C   UNL     1      39.964 -19.279 -37.245  0.00  0.00    +0.127 C 
ATOM      3  C   UNL     1      41.141 -18.419 -37.775  0.00  0.00    +0.004 C 
ATOM      4  C   UNL     1      40.658 -17.362 -38.777  0.00  0.00    -0.046 C 
ATOM      5  C   UNL     1      41.802 -16.456 -39.218  0.00  0.00    -0.049 C 
ATOM      6  C   UNL     1      43.013 -17.220 -39.787  0.00  0.00    -0.034 C 
ATOM      7  C   UNL     1      43.485 -18.370 -38.855  0.00  0.00    -0.032 C 
ATOM      8  C   UNL     1      44.367 -17.753 -37.766  0.00  0.00    -0.049 C 
ATOM      9  C   UNL     1      45.689 -17.246 -38.344  0.00  0.00    -0.047 C 
ATOM     10  C   UNL     1      45.622 -16.582 -39.747  0.00  0.00    -0.025 C 
ATOM     11  C   UNL     1      46.261 -17.529 -40.794  0.00  0.00    -0.059 C 
ATOM     12  C   UNL     1      46.318 -15.152 -39.689  0.00  0.00    -0.020 C 
ATOM     13  C   UNL     1      45.349 -14.237 -40.453  0.00  0.00    -0.048 C 
ATOM     14  C   UNL     1      43.988 -14.777 -40.049  0.00  0.00    -0.049 C 
ATOM     15  C   UNL     1      44.165 -16.283 -40.248  0.00  0.00    -0.032 C 
ATOM     16  C   UNL     1      42.292 -19.283 -38.366  0.00  0.00    -0.020 C 
ATOM     17  C   UNL     1      41.819 -20.104 -39.607  0.00  0.00    -0.059 C 
ATOM     18  C   UNL     1      42.741 -20.301 -37.281  0.00  0.00    -0.019 C 
ATOM     19  C   UNL     1      41.595 -21.172 -36.743  0.00  0.00    +0.077 C 
ENDROOT
BRANCH   1  22
ATOM     20  C   UNL     1      40.508 -20.069 -33.647  0.00  0.00    +0.240 C 
ATOM     21  O   UNL     1      41.138 -19.613 -32.695  0.00  0.00    -0.271 OA
ATOM     22  N   UNL     1      40.785 -19.653 -34.916  0.00  0.00    -0.303 N 
ATOM     23  H   UNL     1      41.284 -18.808 -34.995  0.00  0.00    +0.000 HD
BRANCH  20  26
ATOM     24  C   UNL     1      36.935 -21.375 -32.997  0.00  0.00    -0.046 C 
ATOM     25  C   UNL     1      38.170 -20.570 -33.242  0.00  0.00    -0.079 C 
ATOM     26  C   UNL     1      39.413 -21.052 -33.433  0.00  0.00    +0.007 C 
ATOM     27  C   UNL     1      39.831 -22.482 -33.328  0.00  0.00    -0.035 C 
ENDBRANCH  20  26
ENDBRANCH   1  22
BRANCH  12  28
ATOM     28  C   UNL     1      47.799 -15.029 -40.161  0.00  0.00    +0.010 C 
ATOM     29  C   UNL     1      48.695 -14.454 -39.051  0.00  0.00    -0.049 C 
BRANCH  28  30
ATOM     30  N   UNL     1      47.888 -14.265 -41.431  0.00  0.00    -0.305 N 
ATOM     31  C   UNL     1      48.441 -12.919 -41.306  0.00  0.00    -0.013 C 
ATOM     32  C   UNL     1      48.581 -15.010 -42.482  0.00  0.00    -0.013 C 
ATOM     33  H   UNL     1      46.913 -14.140 -41.703  0.00  0.00    +0.000 HD
ENDBRANCH  28  30
ENDBRANCH  12  28
BRANCH  19  34
ATOM     34  O   UNL     1      42.103 -22.054 -35.740  0.00  0.00    -0.390 OA
ATOM     35  H   UNL     1      42.706 -22.695 -36.148  0.00  0.00    +0.000 HD
ENDBRANCH  19  34
BRANCH   2  36
ATOM     36  O   UNL     1      38.975 -18.393 -36.672  0.00  0.00    -0.459 OA
BRANCH  36  37
ATOM     37  C   UNL     1      37.679 -18.685 -36.962  0.00  0.00    +0.304 C 
ATOM     38  C   UNL     1      37.166 -17.757 -38.019  0.00  0.00    +0.033 C 
ATOM     39  O   UNL     1      37.020 -19.575 -36.442  0.00  0.00    -0.251 OA
ENDBRANCH  36  37
ENDBRANCH   2  36
TORSDOF 7
ENDMDL
MODEL 19
REMARK VINA RESULT:    -5.733      4.197     10.255
REMARK INTER + INTRA:          -8.959
REMARK INTER:                  -7.487
REMARK INTRA:                  -1.472
REMARK UNBOUND:                -1.048
REMARK  Name = cpd246.pdb
REMARK  15 active torsions:
REMARK  status: ('A' for Active; 'I' for Inactive)
REMARK    1  A    between atoms: C_1  and  C_2
REMARK    2  A    between atoms: C_3  and  C_4
REMARK    3  A    between atoms: C_3  and  C_5
REMARK    4  A    between atoms: N_7  and  C_8
REMARK    5  A    between atoms: C_9  and  O_10
REMARK    6  A    between atoms: O_10  and  C_11
REMARK    7  A    between atoms: C_11  and  C_12
REMARK    8  A    between atoms: C_21  and  C_22
REMARK    9  A    between atoms: C_23  and  C_24
REMARK   10  A    between atoms: C_24  and  C_25
REMARK   11  A    between atoms: C_24  and  N_26
REMARK   12  A    between atoms: N_26  and  C_27
REMARK   13  A    between atoms: N_26  and  C_28
REMARK   14  A    between atoms: C_32  and  C_33
REMARK   15  A    between atoms: C_35  and  O_36
REMARK                            x       y       z     vdW  Elec       q    Type
REMARK                         _______ _______ _______ _____ _____    ______ ____
ROOT
ATOM      1  C   UNL     1      44.944 -14.342 -41.228  0.00  0.00    +0.086 C 
ATOM      2  C   UNL     1      45.895 -15.406 -40.616  0.00  0.00    +0.127 C 
ATOM      3  C   UNL     1      45.155 -16.359 -39.640  0.00  0.00    +0.004 C 
ATOM      4  C   UNL     1      46.119 -17.369 -39.003  0.00  0.00    -0.046 C 
ATOM      5  C   UNL     1      45.407 -18.237 -37.971  0.00  0.00    -0.049 C 
ATOM      6  C   UNL     1      44.163 -18.958 -38.523  0.00  0.00    -0.034 C 
ATOM      7  C   UNL     1      43.196 -17.996 -39.267  0.00  0.00    -0.032 C 
ATOM      8  C   UNL     1      42.339 -17.291 -38.211  0.00  0.00    -0.049 C 
ATOM      9  C   UNL     1      41.368 -18.268 -37.543  0.00  0.00    -0.047 C 
ATOM     10  C   UNL     1      41.907 -19.699 -37.266  0.00  0.00    -0.025 C 
ATOM     11  C   UNL     1      41.236 -20.696 -38.244  0.00  0.00    -0.059 C 
ATOM     12  C   UNL     1      41.669 -20.066 -35.736  0.00  0.00    -0.020 C 
ATOM     13  C   UNL     1      42.998 -20.701 -35.297  0.00  0.00    -0.048 C 
ATOM     14  C   UNL     1      44.028 -19.875 -36.047  0.00  0.00    -0.049 C 
ATOM     15  C   UNL     1      43.456 -19.852 -37.465  0.00  0.00    -0.032 C 
ATOM     16  C   UNL     1      43.942 -17.069 -40.306  0.00  0.00    -0.020 C 
ATOM     17  C   UNL     1      44.387 -17.988 -41.487  0.00  0.00    -0.059 C 
ATOM     18  C   UNL     1      43.005 -15.978 -40.895  0.00  0.00    -0.019 C 
ATOM     19  C   UNL     1      43.710 -15.024 -41.871  0.00  0.00    +0.077 C 
ENDROOT
BRANCH   1  22
ATOM     20  C   UNL     1      44.767 -11.990 -40.246  0.00  0.00    +0.240 C 
ATOM     21  O   UNL     1      44.113 -11.244 -39.521  0.00  0.00    -0.271 OA
ATOM     22  N   UNL     1      44.554 -13.337 -40.215  0.00  0.00    -0.303 N 
ATOM     23  H   UNL     1      44.084 -13.683 -39.422  0.00  0.00    +0.000 HD
BRANCH  20  26
ATOM     24  C   UNL     1      48.246 -10.719 -41.330  0.00  0.00    -0.046 C 
ATOM     25  C   UNL     1      47.051 -11.263 -40.616  0.00  0.00    -0.079 C 
ATOM     26  C   UNL     1      45.825 -11.448 -41.140  0.00  0.00    +0.007 C 
ATOM     27  C   UNL     1      45.377 -11.045 -42.508  0.00  0.00    -0.035 C 
ENDBRANCH  20  26
ENDBRANCH   1  22
BRANCH  12  28
ATOM     28  C   UNL     1      40.416 -20.916 -35.364  0.00  0.00    +0.010 C 
ATOM     29  C   UNL     1      39.160 -20.036 -35.236  0.00  0.00    -0.049 C 
BRANCH  28  30
ATOM     30  N   UNL     1      40.673 -21.737 -34.155  0.00  0.00    -0.305 N 
ATOM     31  C   UNL     1      40.156 -21.182 -32.907  0.00  0.00    -0.013 C 
ATOM     32  C   UNL     1      40.237 -23.124 -34.320  0.00  0.00    -0.013 C 
ATOM     33  H   UNL     1      41.690 -21.719 -34.066  0.00  0.00    +0.000 HD
ENDBRANCH  28  30
ENDBRANCH  12  28
BRANCH  19  34
ATOM     34  O   UNL     1      42.775 -14.049 -42.337  0.00  0.00    -0.390 OA
ATOM     35  H   UNL     1      43.239 -13.217 -42.520  0.00  0.00    +0.000 HD
ENDBRANCH  19  34
BRANCH   2  36
ATOM     36  O   UNL     1      46.968 -14.759 -39.894  0.00  0.00    -0.459 OA
BRANCH  36  37
ATOM     37  C   UNL     1      48.175 -14.738 -40.519  0.00  0.00    +0.304 C 
ATOM     38  C   UNL     1      49.203 -14.107 -39.632  0.00  0.00    +0.033 C 
ATOM     39  O   UNL     1      48.400 -15.171 -41.641  0.00  0.00    -0.251 OA
ENDBRANCH  36  37
ENDBRANCH   2  36
TORSDOF 7
ENDMDL
MODEL 20
REMARK VINA RESULT:    -5.674     32.726     35.024
REMARK INTER + INTRA:          -8.877
REMARK INTER:                  -7.617
REMARK INTRA:                  -1.260
REMARK UNBOUND:                -1.048
REMARK  Name = cpd246.pdb
REMARK  15 active torsions:
REMARK  status: ('A' for Active; 'I' for Inactive)
REMARK    1  A    between atoms: C_1  and  C_2
REMARK    2  A    between atoms: C_3  and  C_4
REMARK    3  A    between atoms: C_3  and  C_5
REMARK    4  A    between atoms: N_7  and  C_8
REMARK    5  A    between atoms: C_9  and  O_10
REMARK    6  A    between atoms: O_10  and  C_11
REMARK    7  A    between atoms: C_11  and  C_12
REMARK    8  A    between atoms: C_21  and  C_22
REMARK    9  A    between atoms: C_23  and  C_24
REMARK   10  A    between atoms: C_24  and  C_25
REMARK   11  A    between atoms: C_24  and  N_26
REMARK   12  A    between atoms: N_26  and  C_27
REMARK   13  A    between atoms: N_26  and  C_28
REMARK   14  A    between atoms: C_32  and  C_33
REMARK   15  A    between atoms: C_35  and  O_36
REMARK                            x       y       z     vdW  Elec       q    Type
REMARK                         _______ _______ _______ _____ _____    ______ ____
ROOT
ATOM      1  C   UNL     1      40.988 -42.838 -13.352  0.00  0.00    +0.086 C 
ATOM      2  C   UNL     1      42.413 -43.383 -13.063  0.00  0.00    +0.127 C 
ATOM      3  C   UNL     1      42.831 -44.488 -14.070  0.00  0.00    +0.004 C 
ATOM      4  C   UNL     1      44.218 -45.054 -13.737  0.00  0.00    -0.046 C 
ATOM      5  C   UNL     1      44.581 -46.206 -14.667  0.00  0.00    -0.049 C 
ATOM      6  C   UNL     1      44.493 -45.846 -16.162  0.00  0.00    -0.034 C 
ATOM      7  C   UNL     1      43.142 -45.177 -16.537  0.00  0.00    -0.032 C 
ATOM      8  C   UNL     1      42.109 -46.292 -16.729  0.00  0.00    -0.049 C 
ATOM      9  C   UNL     1      42.414 -47.120 -17.978  0.00  0.00    -0.047 C 
ATOM     10  C   UNL     1      43.913 -47.401 -18.274  0.00  0.00    -0.025 C 
ATOM     11  C   UNL     1      44.359 -46.563 -19.498  0.00  0.00    -0.059 C 
ATOM     12  C   UNL     1      44.127 -48.966 -18.474  0.00  0.00    -0.020 C 
ATOM     13  C   UNL     1      45.395 -49.273 -17.661  0.00  0.00    -0.048 C 
ATOM     14  C   UNL     1      45.247 -48.363 -16.454  0.00  0.00    -0.049 C 
ATOM     15  C   UNL     1      44.882 -47.025 -17.098  0.00  0.00    -0.032 C 
ATOM     16  C   UNL     1      42.748 -44.010 -15.548  0.00  0.00    -0.020 C 
ATOM     17  C   UNL     1      43.732 -42.831 -15.830  0.00  0.00    -0.059 C 
ATOM     18  C   UNL     1      41.308 -43.484 -15.807  0.00  0.00    -0.019 C 
ATOM     19  C   UNL     1      40.870 -42.383 -14.828  0.00  0.00    +0.077 C 
ENDROOT
BRANCH   1  22
ATOM     20  C   UNL     1      38.861 -43.668 -12.205  0.00  0.00    +0.240 C 
ATOM     21  O   UNL     1      37.927 -44.464 -12.262  0.00  0.00    -0.271 OA
ATOM     22  N   UNL     1      39.958 -43.839 -12.999  0.00  0.00    -0.303 N 
ATOM     23  H   UNL     1      40.078 -44.737 -13.383  0.00  0.00    +0.000 HD
BRANCH  20  26
ATOM     24  C   UNL     1      38.234 -40.090 -10.902  0.00  0.00    -0.046 C 
ATOM     25  C   UNL     1      38.339 -41.357 -11.688  0.00  0.00    -0.079 C 
ATOM     26  C   UNL     1      38.834 -42.530 -11.248  0.00  0.00    +0.007 C 
ATOM     27  C   UNL     1      39.481 -42.775  -9.924  0.00  0.00    -0.035 C 
ENDBRANCH  20  26
ENDBRANCH   1  22
BRANCH  12  28
ATOM     28  C   UNL     1      44.165 -49.528 -19.929  0.00  0.00    +0.010 C 
ATOM     29  C   UNL     1      42.921 -50.382 -20.230  0.00  0.00    -0.049 C 
BRANCH  28  30
ATOM     30  N   UNL     1      45.437 -50.248 -20.184  0.00  0.00    -0.305 N 
ATOM     31  C   UNL     1      45.292 -51.566 -20.796  0.00  0.00    -0.013 C 
ATOM     32  C   UNL     1      46.395 -49.436 -20.936  0.00  0.00    -0.013 C 
ATOM     33  H   UNL     1      45.810 -50.416 -19.249  0.00  0.00    +0.000 HD
ENDBRANCH  28  30
ENDBRANCH  12  28
BRANCH  19  34
ATOM     34  O   UNL     1      39.533 -41.985 -15.134  0.00  0.00    -0.390 OA
ATOM     35  H   UNL     1      39.536 -41.081 -15.485  0.00  0.00    +0.000 HD
ENDBRANCH  19  34
BRANCH   2  36
ATOM     36  O   UNL     1      42.473 -43.937 -11.728  0.00  0.00    -0.459 OA
BRANCH  36  37
ATOM     37  C   UNL     1      43.102 -43.171 -10.797  0.00  0.00    +0.304 C 
ATOM     38  C   UNL     1      43.360 -43.975  -9.560  0.00  0.00    +0.033 C 
ATOM     39  O   UNL     1      43.418 -41.999 -10.940  0.00  0.00    -0.251 OA
ENDBRANCH  36  37
ENDBRANCH   2  36
TORSDOF 7
ENDMDL
