@<TRIPOS>MOLECULE
*****
 36 39 0 0 0
SMALL
GASTEIGER

@<TRIPOS>ATOM
      1 C           4.4617   -2.5066    0.0000 C.3     1  UNL1        0.0305
      2 C           3.5266   -2.3083    0.0000 C.2     1  UNL1       -0.0255
      3 C           3.2308   -1.3993    0.0000 C.2     1  UNL1        0.0289
      4 C           3.8701   -0.6886    0.0000 C.3     1  UNL1        0.0355
      5 C           2.2957   -1.2009    0.0000 C.2     1  UNL1        0.2606
      6 O           1.9999   -0.2919    0.0000 O.2     1  UNL1       -0.2687
      7 N           1.6564   -1.9116    0.0000 N.am    1  UNL1       -0.1974
      8 C           0.0003   -0.9564    0.0000 C.3     1  UNL1        0.1656
      9 C          -0.8273   -1.4348    0.0000 C.3     1  UNL1        0.1910
     10 O          -0.8269   -2.3907    0.0000 O.3     1  UNL1       -0.4504
     11 C           0.1082   -2.5891    0.0000 C.2     1  UNL1        0.3175
     12 C           0.4040   -3.4981    0.0000 C.3     1  UNL1        0.1212
     13 O           0.7475   -1.8784    0.0000 O.2     1  UNL1       -0.2501
     14 C          -1.6551   -0.9569    0.0000 C.3     1  UNL1        0.0421
     15 C          -2.4833   -1.4353    0.0000 C.3     1  UNL1        0.0036
     16 C          -3.3117   -0.9573    0.0000 C.3     1  UNL1        0.0001
     17 C          -3.3120   -0.0009    0.0000 C.3     1  UNL1        0.0000
     18 C          -2.4838    0.4775    0.0000 C.3     1  UNL1        0.0002
     19 C          -2.4841    1.4333    0.0000 C.3     1  UNL1        0.0000
     20 C          -3.3125    1.9112    0.0000 C.3     1  UNL1        0.0000
     21 C          -4.1407    1.4328    0.0000 C.3     1  UNL1        0.0012
     22 C          -4.1410    2.4114    0.0000 C.3     1  UNL1        0.0000
     23 C          -4.9691    1.9108    0.0000 C.3     1  UNL1        0.0147
     24 C          -4.9694    2.8662    0.0000 C.3     1  UNL1        0.0576
     25 C          -4.1421    3.3441    0.0000 C.3     1  UNL1        0.0173
     26 N          -5.7969    3.3437    0.0000 N.3     1  UNL1       -0.2716
     27 C          -5.7972    4.2991    0.0000 C.3     1  UNL1        0.0896
     28 C          -6.6242    2.8657    0.0000 C.3     1  UNL1        0.0896
     29 C          -5.7961    1.4323    0.0000 C.3     1  UNL1        0.0013
     30 C          -5.7958    0.4765    0.0000 C.3     1  UNL1        0.0000
     31 C          -4.1404    0.4770    0.0000 C.3     1  UNL1        0.0000
     32 C          -1.6554   -0.0005    0.0000 C.3     1  UNL1        0.0059
     33 C          -1.6557    0.9750    0.0000 C.3     1  UNL1        0.0002
     34 C          -0.8278    0.4780    0.0000 C.3     1  UNL1        0.0349
     35 C           0.0000   -0.0000    0.0000 C.3     1  UNL1        0.1754
     36 O           0.8447    0.4879    0.0000 O.3     1  UNL1       -0.2212
@<TRIPOS>BOND
     1     1     2    1
     2     2     3    2
     3     3     4    1
     4     3     5    1
     5     5     6    2
     6     5     7   am
     7     7     8    1
     8     8     9    1
     9     9    10    1
    10    10    11    1
    11    11    12    1
    12    11    13    2
    13     9    14    1
    14    14    15    1
    15    15    16    1
    16    16    17    1
    17    17    18    1
    18    18    19    1
    19    19    20    1
    20    20    21    1
    21    21    22    1
    22    21    23    1
    23    23    24    1
    24    24    25    1
    25    24    26    1
    26    26    27    1
    27    26    28    1
    28    23    29    1
    29    29    30    1
    30    30    31    1
    31    17    31    1
    32    21    31    1
    33    18    32    1
    34    14    32    1
    35    32    33    1
    36    32    34    1
    37    34    35    1
    38     8    35    1
    39    35    36    1
