MODEL 1
REMARK VINA RESULT:    -8.500      0.000      0.000
REMARK INTER + INTRA:         -11.501
REMARK INTER:                 -10.736
REMARK INTRA:                  -0.765
REMARK UNBOUND:                -0.765
REMARK  Name = cpd238.pdb
REMARK  10 active torsions:
REMARK  status: ('A' for Active; 'I' for Inactive)
REMARK    1  A    between atoms: C_1  and  C_2
REMARK    2  A    between atoms: C_2  and  C_3
REMARK    3  A    between atoms: C_2  and  N_32
REMARK    4  A    between atoms: C_12  and  N_13
REMARK    5  A    between atoms: C_14  and  C_16
REMARK    6  A    between atoms: C_22  and  O_23
REMARK    7  A    between atoms: C_25  and  C_26
REMARK    8  A    between atoms: C_30  and  C_31
REMARK    9  A    between atoms: N_32  and  C_33
REMARK   10  A    between atoms: N_32  and  C_34
REMARK                            x       y       z     vdW  Elec       q    Type
REMARK                         _______ _______ _______ _____ _____    ______ ____
ROOT
ATOM      1  C   UNL     1      28.230 -31.450 -29.244  0.00  0.00    -0.020 C 
ATOM      2  C   UNL     1      29.200 -31.034 -28.112  0.00  0.00    -0.048 C 
ATOM      3  C   UNL     1      30.155 -30.030 -28.729  0.00  0.00    -0.049 C 
ATOM      4  C   UNL     1      30.434 -30.620 -30.114  0.00  0.00    -0.032 C 
ATOM      5  C   UNL     1      31.543 -31.718 -30.054  0.00  0.00    -0.034 C 
ATOM      6  C   UNL     1      32.919 -31.060 -29.851  0.00  0.00    -0.049 C 
ATOM      7  C   UNL     1      34.043 -32.083 -29.805  0.00  0.00    -0.049 C 
ATOM      8  C   UNL     1      34.093 -32.931 -31.085  0.00  0.00    -0.034 C 
ATOM      9  C   UNL     1      35.312 -33.883 -31.052  0.00  0.00    -0.029 C 
ATOM     10  C   UNL     1      35.002 -35.338 -30.667  0.00  0.00    +0.050 C 
ATOM     11  C   UNL     1      33.778 -35.422 -29.747  0.00  0.00    +0.074 C 
ATOM     12  C   UNL     1      32.512 -34.819 -30.369  0.00  0.00    -0.019 C 
ATOM     13  C   UNL     1      32.740 -33.647 -31.369  0.00  0.00    -0.024 C 
ATOM     14  C   UNL     1      32.792 -34.220 -32.817  0.00  0.00    -0.059 C 
ATOM     15  C   UNL     1      31.557 -32.598 -31.324  0.00  0.00    -0.032 C 
ATOM     16  C   UNL     1      30.166 -33.232 -31.487  0.00  0.00    -0.049 C 
ATOM     17  C   UNL     1      29.109 -32.156 -31.688  0.00  0.00    -0.047 C 
ATOM     18  C   UNL     1      29.015 -31.096 -30.579  0.00  0.00    -0.025 C 
ATOM     19  C   UNL     1      28.297 -29.868 -31.221  0.00  0.00    -0.059 C 
ENDROOT
BRANCH  10  20
ATOM     20  N   UNL     1      36.156 -35.996 -30.056  0.00  0.00    -0.306 N 
ATOM     21  C   UNL     1      37.314 -36.246 -30.758  0.00  0.00    +0.244 C 
ATOM     22  O   UNL     1      37.495 -35.885 -31.915  0.00  0.00    -0.270 OA
ATOM     23  H   UNL     1      36.103 -36.269 -29.111  0.00  0.00    +0.000 HD
BRANCH  21  24
ATOM     24  C   UNL     1      38.384 -36.976 -30.028  0.00  0.00    +0.037 A 
ATOM     25  C   UNL     1      39.724 -36.926 -30.435  0.00  0.00    -0.050 A 
ATOM     26  C   UNL     1      40.698 -37.613 -29.706  0.00  0.00    -0.061 A 
ATOM     27  C   UNL     1      40.341 -38.345 -28.574  0.00  0.00    -0.062 A 
ATOM     28  C   UNL     1      39.010 -38.388 -28.160  0.00  0.00    -0.061 A 
ATOM     29  C   UNL     1      38.032 -37.699 -28.881  0.00  0.00    -0.050 A 
ENDBRANCH  21  24
ENDBRANCH  10  20
BRANCH   1  31
ATOM     30  C   UNL     1      28.580 -33.729 -28.127  0.00  0.00    -0.049 C 
ATOM     31  C   UNL     1      27.628 -32.875 -28.998  0.00  0.00    +0.010 C 
BRANCH  31  32
ATOM     32  N   UNL     1      26.340 -33.014 -28.304  0.00  0.00    -0.305 N 
ATOM     33  C   UNL     1      25.575 -31.786 -28.169  0.00  0.00    -0.013 C 
ATOM     34  C   UNL     1      26.222 -33.919 -27.182  0.00  0.00    -0.013 C 
ATOM     35  H   UNL     1      25.863 -33.573 -29.011  0.00  0.00    +0.000 HD
ENDBRANCH  31  32
ENDBRANCH   1  31
BRANCH  11  36
ATOM     36  O   UNL     1      33.516 -36.781 -29.374  0.00  0.00    -0.390 OA
ATOM     37  H   UNL     1      32.558 -36.921 -29.314  0.00  0.00    +0.000 HD
ENDBRANCH  11  36
TORSDOF 5
ENDMDL
MODEL 2
REMARK VINA RESULT:    -8.283      1.995      3.657
REMARK INTER + INTRA:         -11.227
REMARK INTER:                 -10.317
REMARK INTRA:                  -0.910
REMARK UNBOUND:                -0.765
REMARK  Name = cpd238.pdb
REMARK  10 active torsions:
REMARK  status: ('A' for Active; 'I' for Inactive)
REMARK    1  A    between atoms: C_1  and  C_2
REMARK    2  A    between atoms: C_2  and  C_3
REMARK    3  A    between atoms: C_2  and  N_32
REMARK    4  A    between atoms: C_12  and  N_13
REMARK    5  A    between atoms: C_14  and  C_16
REMARK    6  A    between atoms: C_22  and  O_23
REMARK    7  A    between atoms: C_25  and  C_26
REMARK    8  A    between atoms: C_30  and  C_31
REMARK    9  A    between atoms: N_32  and  C_33
REMARK   10  A    between atoms: N_32  and  C_34
REMARK                            x       y       z     vdW  Elec       q    Type
REMARK                         _______ _______ _______ _____ _____    ______ ____
ROOT
ATOM      1  C   UNL     1      28.542 -31.379 -30.846  0.00  0.00    -0.020 C 
ATOM      2  C   UNL     1      28.939 -31.689 -32.309  0.00  0.00    -0.048 C 
ATOM      3  C   UNL     1      28.609 -33.153 -32.530  0.00  0.00    -0.049 C 
ATOM      4  C   UNL     1      29.047 -33.809 -31.218  0.00  0.00    -0.032 C 
ATOM      5  C   UNL     1      30.581 -34.102 -31.210  0.00  0.00    -0.034 C 
ATOM      6  C   UNL     1      30.890 -35.296 -32.130  0.00  0.00    -0.049 C 
ATOM      7  C   UNL     1      32.372 -35.640 -32.146  0.00  0.00    -0.049 C 
ATOM      8  C   UNL     1      32.896 -35.961 -30.738  0.00  0.00    -0.034 C 
ATOM      9  C   UNL     1      34.374 -36.411 -30.805  0.00  0.00    -0.029 C 
ATOM     10  C   UNL     1      35.409 -35.339 -30.431  0.00  0.00    +0.050 C 
ATOM     11  C   UNL     1      34.890 -33.930 -30.746  0.00  0.00    +0.074 C 
ATOM     12  C   UNL     1      33.579 -33.593 -30.023  0.00  0.00    -0.019 C 
ATOM     13  C   UNL     1      32.635 -34.799 -29.734  0.00  0.00    -0.024 C 
ATOM     14  C   UNL     1      32.917 -35.330 -28.297  0.00  0.00    -0.059 C 
ATOM     15  C   UNL     1      31.112 -34.376 -29.785  0.00  0.00    -0.032 C 
ATOM     16  C   UNL     1      30.780 -33.161 -28.904  0.00  0.00    -0.049 C 
ATOM     17  C   UNL     1      29.274 -32.971 -28.803  0.00  0.00    -0.047 C 
ATOM     18  C   UNL     1      28.530 -32.800 -30.136  0.00  0.00    -0.025 C 
ATOM     19  C   UNL     1      27.038 -33.153 -29.842  0.00  0.00    -0.059 C 
ENDROOT
BRANCH  10  20
ATOM     20  N   UNL     1      36.696 -35.574 -31.082  0.00  0.00    -0.306 N 
ATOM     21  C   UNL     1      37.684 -36.338 -30.499  0.00  0.00    +0.244 C 
ATOM     22  O   UNL     1      37.543 -36.928 -29.435  0.00  0.00    -0.270 OA
ATOM     23  H   UNL     1      36.863 -35.173 -31.966  0.00  0.00    +0.000 HD
BRANCH  21  24
ATOM     24  C   UNL     1      38.964 -36.443 -31.248  0.00  0.00    +0.037 A 
ATOM     25  C   UNL     1      40.087 -37.082 -30.706  0.00  0.00    -0.050 A 
ATOM     26  C   UNL     1      41.264 -37.173 -31.454  0.00  0.00    -0.061 A 
ATOM     27  C   UNL     1      41.322 -36.634 -32.738  0.00  0.00    -0.062 A 
ATOM     28  C   UNL     1      40.202 -36.008 -33.286  0.00  0.00    -0.061 A 
ATOM     29  C   UNL     1      39.022 -35.918 -32.545  0.00  0.00    -0.050 A 
ENDBRANCH  21  24
ENDBRANCH  10  20
BRANCH   1  31
ATOM     30  C   UNL     1      30.708 -30.018 -31.013  0.00  0.00    -0.049 C 
ATOM     31  C   UNL     1      29.362 -30.177 -30.265  0.00  0.00    +0.010 C 
BRANCH  31  32
ATOM     32  N   UNL     1      28.802 -28.820 -30.311  0.00  0.00    -0.305 N 
ATOM     33  C   UNL     1      28.240 -28.339 -29.060  0.00  0.00    -0.013 C 
ATOM     34  C   UNL     1      28.097 -28.373 -31.493  0.00  0.00    -0.013 C 
ATOM     35  H   UNL     1      29.677 -28.314 -30.446  0.00  0.00    +0.000 HD
ENDBRANCH  31  32
ENDBRANCH   1  31
BRANCH  11  36
ATOM     36  O   UNL     1      35.874 -32.942 -30.416  0.00  0.00    -0.390 OA
ATOM     37  H   UNL     1      35.737 -32.639 -29.505  0.00  0.00    +0.000 HD
ENDBRANCH  11  36
TORSDOF 5
ENDMDL
MODEL 3
REMARK VINA RESULT:    -8.270      3.021      9.493
REMARK INTER + INTRA:         -11.211
REMARK INTER:                 -10.429
REMARK INTRA:                  -0.782
REMARK UNBOUND:                -0.765
REMARK  Name = cpd238.pdb
REMARK  10 active torsions:
REMARK  status: ('A' for Active; 'I' for Inactive)
REMARK    1  A    between atoms: C_1  and  C_2
REMARK    2  A    between atoms: C_2  and  C_3
REMARK    3  A    between atoms: C_2  and  N_32
REMARK    4  A    between atoms: C_12  and  N_13
REMARK    5  A    between atoms: C_14  and  C_16
REMARK    6  A    between atoms: C_22  and  O_23
REMARK    7  A    between atoms: C_25  and  C_26
REMARK    8  A    between atoms: C_30  and  C_31
REMARK    9  A    between atoms: N_32  and  C_33
REMARK   10  A    between atoms: N_32  and  C_34
REMARK                            x       y       z     vdW  Elec       q    Type
REMARK                         _______ _______ _______ _____ _____    ______ ____
ROOT
ATOM      1  C   UNL     1      36.201 -38.838 -29.579  0.00  0.00    -0.020 C 
ATOM      2  C   UNL     1      36.575 -38.242 -30.958  0.00  0.00    -0.048 C 
ATOM      3  C   UNL     1      37.415 -37.013 -30.668  0.00  0.00    -0.049 C 
ATOM      4  C   UNL     1      36.703 -36.381 -29.469  0.00  0.00    -0.032 C 
ATOM      5  C   UNL     1      35.489 -35.509 -29.920  0.00  0.00    -0.034 C 
ATOM      6  C   UNL     1      35.992 -34.199 -30.552  0.00  0.00    -0.049 C 
ATOM      7  C   UNL     1      34.848 -33.299 -30.993  0.00  0.00    -0.049 C 
ATOM      8  C   UNL     1      33.916 -32.949 -29.823  0.00  0.00    -0.034 C 
ATOM      9  C   UNL     1      32.830 -31.947 -30.283  0.00  0.00    -0.029 C 
ATOM     10  C   UNL     1      31.452 -32.557 -30.580  0.00  0.00    +0.050 C 
ATOM     11  C   UNL     1      31.575 -34.014 -31.044  0.00  0.00    +0.074 C 
ATOM     12  C   UNL     1      32.280 -34.916 -30.022  0.00  0.00    -0.019 C 
ATOM     13  C   UNL     1      33.347 -34.219 -29.125  0.00  0.00    -0.024 C 
ATOM     14  C   UNL     1      32.675 -33.777 -27.791  0.00  0.00    -0.059 C 
ATOM     15  C   UNL     1      34.529 -35.201 -28.749  0.00  0.00    -0.032 C 
ATOM     16  C   UNL     1      34.054 -36.535 -28.150  0.00  0.00    -0.049 C 
ATOM     17  C   UNL     1      35.232 -37.314 -27.584  0.00  0.00    -0.047 C 
ATOM     18  C   UNL     1      36.368 -37.621 -28.572  0.00  0.00    -0.025 C 
ATOM     19  C   UNL     1      37.626 -37.920 -27.697  0.00  0.00    -0.059 C 
ENDROOT
BRANCH  10  20
ATOM     20  N   UNL     1      30.705 -31.764 -31.555  0.00  0.00    -0.306 N 
ATOM     21  C   UNL     1      29.528 -31.124 -31.232  0.00  0.00    +0.244 C 
ATOM     22  O   UNL     1      29.053 -31.111 -30.102  0.00  0.00    -0.270 OA
ATOM     23  H   UNL     1      31.053 -31.686 -32.473  0.00  0.00    +0.000 HD
BRANCH  21  24
ATOM     24  C   UNL     1      28.844 -30.403 -32.338  0.00  0.00    +0.037 A 
ATOM     25  C   UNL     1      28.834 -29.004 -32.415  0.00  0.00    -0.050 A 
ATOM     26  C   UNL     1      28.195 -28.371 -33.483  0.00  0.00    -0.061 A 
ATOM     27  C   UNL     1      27.570 -29.128 -34.474  0.00  0.00    -0.062 A 
ATOM     28  C   UNL     1      27.588 -30.521 -34.407  0.00  0.00    -0.061 A 
ATOM     29  C   UNL     1      28.230 -31.159 -33.344  0.00  0.00    -0.050 A 
ENDBRANCH  21  24
ENDBRANCH  10  20
BRANCH   1  31
ATOM     30  C   UNL     1      34.840 -40.538 -30.931  0.00  0.00    -0.049 C 
ATOM     31  C   UNL     1      34.877 -39.672 -29.648  0.00  0.00    +0.010 C 
BRANCH  31  32
ATOM     32  N   UNL     1      34.571 -40.645 -28.590  0.00  0.00    -0.305 N 
ATOM     33  C   UNL     1      35.403 -41.836 -28.586  0.00  0.00    -0.013 C 
ATOM     34  C   UNL     1      33.198 -40.874 -28.199  0.00  0.00    -0.013 C 
ATOM     35  H   UNL     1      34.872 -40.082 -27.795  0.00  0.00    +0.000 HD
ENDBRANCH  31  32
ENDBRANCH   1  31
BRANCH  11  36
ATOM     36  O   UNL     1      30.285 -34.562 -31.342  0.00  0.00    -0.390 OA
ATOM     37  H   UNL     1      30.332 -35.066 -32.170  0.00  0.00    +0.000 HD
ENDBRANCH  11  36
TORSDOF 5
ENDMDL
MODEL 4
REMARK VINA RESULT:    -7.861      2.444      3.555
REMARK INTER + INTRA:         -10.694
REMARK INTER:                  -9.628
REMARK INTRA:                  -1.066
REMARK UNBOUND:                -0.765
REMARK  Name = cpd238.pdb
REMARK  10 active torsions:
REMARK  status: ('A' for Active; 'I' for Inactive)
REMARK    1  A    between atoms: C_1  and  C_2
REMARK    2  A    between atoms: C_2  and  C_3
REMARK    3  A    between atoms: C_2  and  N_32
REMARK    4  A    between atoms: C_12  and  N_13
REMARK    5  A    between atoms: C_14  and  C_16
REMARK    6  A    between atoms: C_22  and  O_23
REMARK    7  A    between atoms: C_25  and  C_26
REMARK    8  A    between atoms: C_30  and  C_31
REMARK    9  A    between atoms: N_32  and  C_33
REMARK   10  A    between atoms: N_32  and  C_34
REMARK                            x       y       z     vdW  Elec       q    Type
REMARK                         _______ _______ _______ _____ _____    ______ ____
ROOT
ATOM      1  C   UNL     1      26.855 -33.852 -31.254  0.00  0.00    -0.020 C 
ATOM      2  C   UNL     1      27.298 -35.164 -30.561  0.00  0.00    -0.048 C 
ATOM      3  C   UNL     1      27.639 -34.786 -29.132  0.00  0.00    -0.049 C 
ATOM      4  C   UNL     1      28.366 -33.447 -29.291  0.00  0.00    -0.032 C 
ATOM      5  C   UNL     1      29.872 -33.654 -29.652  0.00  0.00    -0.034 C 
ATOM      6  C   UNL     1      30.644 -34.141 -28.414  0.00  0.00    -0.049 C 
ATOM      7  C   UNL     1      32.124 -34.341 -28.702  0.00  0.00    -0.049 C 
ATOM      8  C   UNL     1      32.783 -33.051 -29.211  0.00  0.00    -0.034 C 
ATOM      9  C   UNL     1      34.306 -33.260 -29.390  0.00  0.00    -0.029 C 
ATOM     10  C   UNL     1      34.774 -33.506 -30.832  0.00  0.00    +0.050 C 
ATOM     11  C   UNL     1      33.677 -34.179 -31.667  0.00  0.00    +0.074 C 
ATOM     12  C   UNL     1      32.377 -33.366 -31.725  0.00  0.00    -0.019 C 
ATOM     13  C   UNL     1      32.071 -32.486 -30.476  0.00  0.00    -0.024 C 
ATOM     14  C   UNL     1      32.607 -31.045 -30.728  0.00  0.00    -0.059 C 
ATOM     15  C   UNL     1      30.517 -32.365 -30.209  0.00  0.00    -0.032 C 
ATOM     16  C   UNL     1      29.714 -31.917 -31.441  0.00  0.00    -0.049 C 
ATOM     17  C   UNL     1      28.282 -31.580 -31.050  0.00  0.00    -0.047 C 
ATOM     18  C   UNL     1      27.495 -32.705 -30.361  0.00  0.00    -0.025 C 
ATOM     19  C   UNL     1      26.322 -32.005 -29.605  0.00  0.00    -0.059 C 
ENDROOT
BRANCH  10  20
ATOM     20  N   UNL     1      36.010 -34.285 -30.877  0.00  0.00    -0.306 N 
ATOM     21  C   UNL     1      37.181 -33.772 -31.392  0.00  0.00    +0.244 C 
ATOM     22  O   UNL     1      37.298 -32.619 -31.788  0.00  0.00    -0.270 OA
ATOM     23  H   UNL     1      36.006 -35.206 -30.529  0.00  0.00    +0.000 HD
BRANCH  21  24
ATOM     24  C   UNL     1      38.345 -34.697 -31.430  0.00  0.00    +0.037 A 
ATOM     25  C   UNL     1      39.601 -34.285 -31.894  0.00  0.00    -0.050 A 
ATOM     26  C   UNL     1      40.671 -35.183 -31.894  0.00  0.00    -0.061 A 
ATOM     27  C   UNL     1      40.493 -36.486 -31.429  0.00  0.00    -0.062 A 
ATOM     28  C   UNL     1      39.247 -36.895 -30.955  0.00  0.00    -0.061 A 
ATOM     29  C   UNL     1      38.175 -36.001 -30.949  0.00  0.00    -0.050 A 
ENDBRANCH  21  24
ENDBRANCH  10  20
BRANCH   1  31
ATOM     30  C   UNL     1      28.260 -34.850 -33.151  0.00  0.00    -0.049 C 
ATOM     31  C   UNL     1      27.081 -33.911 -32.803  0.00  0.00    +0.010 C 
BRANCH  31  32
ATOM     32  N   UNL     1      26.007 -34.398 -33.680  0.00  0.00    -0.305 N 
ATOM     33  C   UNL     1      24.660 -34.048 -33.261  0.00  0.00    -0.013 C 
ATOM     34  C   UNL     1      26.121 -35.700 -34.301  0.00  0.00    -0.013 C 
ATOM     35  H   UNL     1      26.216 -33.816 -34.491  0.00  0.00    +0.000 HD
ENDBRANCH  31  32
ENDBRANCH   1  31
BRANCH  11  36
ATOM     36  O   UNL     1      34.135 -34.427 -33.002  0.00  0.00    -0.390 OA
ATOM     37  H   UNL     1      33.660 -33.849 -33.619  0.00  0.00    +0.000 HD
ENDBRANCH  11  36
TORSDOF 5
ENDMDL
MODEL 5
REMARK VINA RESULT:    -7.842      2.604      3.695
REMARK INTER + INTRA:         -10.670
REMARK INTER:                  -9.681
REMARK INTRA:                  -0.990
REMARK UNBOUND:                -0.765
REMARK  Name = cpd238.pdb
REMARK  10 active torsions:
REMARK  status: ('A' for Active; 'I' for Inactive)
REMARK    1  A    between atoms: C_1  and  C_2
REMARK    2  A    between atoms: C_2  and  C_3
REMARK    3  A    between atoms: C_2  and  N_32
REMARK    4  A    between atoms: C_12  and  N_13
REMARK    5  A    between atoms: C_14  and  C_16
REMARK    6  A    between atoms: C_22  and  O_23
REMARK    7  A    between atoms: C_25  and  C_26
REMARK    8  A    between atoms: C_30  and  C_31
REMARK    9  A    between atoms: N_32  and  C_33
REMARK   10  A    between atoms: N_32  and  C_34
REMARK                            x       y       z     vdW  Elec       q    Type
REMARK                         _______ _______ _______ _____ _____    ______ ____
ROOT
ATOM      1  C   UNL     1      27.671 -35.703 -30.217  0.00  0.00    -0.020 C 
ATOM      2  C   UNL     1      28.339 -36.723 -29.263  0.00  0.00    -0.048 C 
ATOM      3  C   UNL     1      28.837 -35.921 -28.077  0.00  0.00    -0.049 C 
ATOM      4  C   UNL     1      29.394 -34.650 -28.726  0.00  0.00    -0.032 C 
ATOM      5  C   UNL     1      30.847 -34.869 -29.255  0.00  0.00    -0.034 C 
ATOM      6  C   UNL     1      31.832 -34.923 -28.074  0.00  0.00    -0.049 C 
ATOM      7  C   UNL     1      33.269 -35.115 -28.533  0.00  0.00    -0.049 C 
ATOM      8  C   UNL     1      33.715 -33.998 -29.488  0.00  0.00    -0.034 C 
ATOM      9  C   UNL     1      35.210 -34.164 -29.848  0.00  0.00    -0.029 C 
ATOM     10  C   UNL     1      35.494 -34.800 -31.217  0.00  0.00    +0.050 C 
ATOM     11  C   UNL     1      34.365 -35.751 -31.635  0.00  0.00    +0.074 C 
ATOM     12  C   UNL     1      32.994 -35.066 -31.707  0.00  0.00    -0.019 C 
ATOM     13  C   UNL     1      32.778 -33.875 -30.726  0.00  0.00    -0.024 C 
ATOM     14  C   UNL     1      33.123 -32.545 -31.462  0.00  0.00    -0.059 C 
ATOM     15  C   UNL     1      31.273 -33.769 -30.253  0.00  0.00    -0.032 C 
ATOM     16  C   UNL     1      30.263 -33.751 -31.412  0.00  0.00    -0.049 C 
ATOM     17  C   UNL     1      28.874 -33.395 -30.904  0.00  0.00    -0.047 C 
ATOM     18  C   UNL     1      28.309 -34.309 -29.805  0.00  0.00    -0.025 C 
ATOM     19  C   UNL     1      27.189 -33.484 -29.096  0.00  0.00    -0.059 C 
ENDROOT
BRANCH  10  20
ATOM     20  N   UNL     1      36.784 -35.486 -31.242  0.00  0.00    -0.306 N 
ATOM     21  C   UNL     1      37.957 -34.831 -31.550  0.00  0.00    +0.244 C 
ATOM     22  O   UNL     1      38.023 -33.625 -31.762  0.00  0.00    -0.270 OA
ATOM     23  H   UNL     1      36.817 -36.447 -31.032  0.00  0.00    +0.000 HD
BRANCH  21  24
ATOM     24  C   UNL     1      39.187 -35.665 -31.596  0.00  0.00    +0.037 A 
ATOM     25  C   UNL     1      39.512 -36.560 -30.569  0.00  0.00    -0.050 A 
ATOM     26  C   UNL     1      40.669 -37.338 -30.664  0.00  0.00    -0.061 A 
ATOM     27  C   UNL     1      41.497 -37.228 -31.781  0.00  0.00    -0.062 A 
ATOM     28  C   UNL     1      41.170 -36.347 -32.811  0.00  0.00    -0.061 A 
ATOM     29  C   UNL     1      40.013 -35.570 -32.723  0.00  0.00    -0.050 A 
ENDBRANCH  21  24
ENDBRANCH  10  20
BRANCH   1  31
ATOM     30  C   UNL     1      28.967 -37.015 -31.997  0.00  0.00    -0.049 C 
ATOM     31  C   UNL     1      27.682 -36.205 -31.701  0.00  0.00    +0.010 C 
BRANCH  31  32
ATOM     32  N   UNL     1      26.617 -37.099 -32.178  0.00  0.00    -0.305 N 
ATOM     33  C   UNL     1      25.306 -36.863 -31.598  0.00  0.00    -0.013 C 
ATOM     34  C   UNL     1      26.911 -38.490 -32.445  0.00  0.00    -0.013 C 
ATOM     35  H   UNL     1      26.572 -36.758 -33.138  0.00  0.00    +0.000 HD
ENDBRANCH  31  32
ENDBRANCH   1  31
BRANCH  11  36
ATOM     36  O   UNL     1      34.654 -36.357 -32.901  0.00  0.00    -0.390 OA
ATOM     37  H   UNL     1      34.792 -37.309 -32.779  0.00  0.00    +0.000 HD
ENDBRANCH  11  36
TORSDOF 5
ENDMDL
MODEL 6
REMARK VINA RESULT:    -7.832      2.773      4.373
REMARK INTER + INTRA:         -10.657
REMARK INTER:                  -9.670
REMARK INTRA:                  -0.987
REMARK UNBOUND:                -0.765
REMARK  Name = cpd238.pdb
REMARK  10 active torsions:
REMARK  status: ('A' for Active; 'I' for Inactive)
REMARK    1  A    between atoms: C_1  and  C_2
REMARK    2  A    between atoms: C_2  and  C_3
REMARK    3  A    between atoms: C_2  and  N_32
REMARK    4  A    between atoms: C_12  and  N_13
REMARK    5  A    between atoms: C_14  and  C_16
REMARK    6  A    between atoms: C_22  and  O_23
REMARK    7  A    between atoms: C_25  and  C_26
REMARK    8  A    between atoms: C_30  and  C_31
REMARK    9  A    between atoms: N_32  and  C_33
REMARK   10  A    between atoms: N_32  and  C_34
REMARK                            x       y       z     vdW  Elec       q    Type
REMARK                         _______ _______ _______ _____ _____    ______ ____
ROOT
ATOM      1  C   UNL     1      28.126 -35.954 -32.161  0.00  0.00    -0.020 C 
ATOM      2  C   UNL     1      28.590 -37.312 -31.579  0.00  0.00    -0.048 C 
ATOM      3  C   UNL     1      28.722 -37.102 -30.083  0.00  0.00    -0.049 C 
ATOM      4  C   UNL     1      29.349 -35.708 -29.982  0.00  0.00    -0.032 C 
ATOM      5  C   UNL     1      30.898 -35.763 -30.165  0.00  0.00    -0.034 C 
ATOM      6  C   UNL     1      31.553 -36.354 -28.904  0.00  0.00    -0.049 C 
ATOM      7  C   UNL     1      33.068 -36.414 -29.018  0.00  0.00    -0.049 C 
ATOM      8  C   UNL     1      33.674 -35.026 -29.276  0.00  0.00    -0.034 C 
ATOM      9  C   UNL     1      35.219 -35.106 -29.278  0.00  0.00    -0.029 C 
ATOM     10  C   UNL     1      35.878 -35.130 -30.665  0.00  0.00    +0.050 C 
ATOM     11  C   UNL     1      34.951 -35.761 -31.711  0.00  0.00    +0.074 C 
ATOM     12  C   UNL     1      33.604 -35.037 -31.841  0.00  0.00    -0.019 C 
ATOM     13  C   UNL     1      33.076 -34.351 -30.546  0.00  0.00    -0.024 C 
ATOM     14  C   UNL     1      33.516 -32.856 -30.549  0.00  0.00    -0.059 C 
ATOM     15  C   UNL     1      31.496 -34.372 -30.473  0.00  0.00    -0.032 C 
ATOM     16  C   UNL     1      30.814 -33.822 -31.736  0.00  0.00    -0.049 C 
ATOM     17  C   UNL     1      29.323 -33.636 -31.498  0.00  0.00    -0.047 C 
ATOM     18  C   UNL     1      28.554 -34.892 -31.060  0.00  0.00    -0.025 C 
ATOM     19  C   UNL     1      27.243 -34.379 -30.385  0.00  0.00    -0.059 C 
ENDROOT
BRANCH  10  20
ATOM     20  N   UNL     1      37.171 -35.810 -30.641  0.00  0.00    -0.306 N 
ATOM     21  C   UNL     1      38.250 -35.360 -31.370  0.00  0.00    +0.244 C 
ATOM     22  O   UNL     1      38.234 -34.331 -32.036  0.00  0.00    -0.270 OA
ATOM     23  H   UNL     1      37.275 -36.618 -30.087  0.00  0.00    +0.000 HD
BRANCH  21  24
ATOM     24  C   UNL     1      39.486 -36.184 -31.299  0.00  0.00    +0.037 A 
ATOM     25  C   UNL     1      40.493 -36.092 -32.268  0.00  0.00    -0.050 A 
ATOM     26  C   UNL     1      41.645 -36.873 -32.149  0.00  0.00    -0.061 A 
ATOM     27  C   UNL     1      41.797 -37.740 -31.067  0.00  0.00    -0.062 A 
ATOM     28  C   UNL     1      40.801 -37.825 -30.094  0.00  0.00    -0.061 A 
ATOM     29  C   UNL     1      39.649 -37.044 -30.205  0.00  0.00    -0.050 A 
ENDBRANCH  21  24
ENDBRANCH  10  20
BRANCH   1  31
ATOM     30  C   UNL     1      29.838 -36.587 -33.960  0.00  0.00    -0.049 C 
ATOM     31  C   UNL     1      28.543 -35.794 -33.663  0.00  0.00    +0.010 C 
BRANCH  31  32
ATOM     32  N   UNL     1      27.633 -36.246 -34.725  0.00  0.00    -0.305 N 
ATOM     33  C   UNL     1      28.281 -36.835 -35.885  0.00  0.00    -0.013 C 
ATOM     34  C   UNL     1      26.445 -35.479 -35.029  0.00  0.00    -0.013 C 
ATOM     35  H   UNL     1      27.200 -37.017 -34.216  0.00  0.00    +0.000 HD
ENDBRANCH  31  32
ENDBRANCH   1  31
BRANCH  11  36
ATOM     36  O   UNL     1      35.587 -35.801 -32.995  0.00  0.00    -0.390 OA
ATOM     37  H   UNL     1      35.092 -35.248 -33.619  0.00  0.00    +0.000 HD
ENDBRANCH  11  36
TORSDOF 5
ENDMDL
MODEL 7
REMARK VINA RESULT:    -7.642     17.651     20.891
REMARK INTER + INTRA:         -10.417
REMARK INTER:                  -9.982
REMARK INTRA:                  -0.435
REMARK UNBOUND:                -0.765
REMARK  Name = cpd238.pdb
REMARK  10 active torsions:
REMARK  status: ('A' for Active; 'I' for Inactive)
REMARK    1  A    between atoms: C_1  and  C_2
REMARK    2  A    between atoms: C_2  and  C_3
REMARK    3  A    between atoms: C_2  and  N_32
REMARK    4  A    between atoms: C_12  and  N_13
REMARK    5  A    between atoms: C_14  and  C_16
REMARK    6  A    between atoms: C_22  and  O_23
REMARK    7  A    between atoms: C_25  and  C_26
REMARK    8  A    between atoms: C_30  and  C_31
REMARK    9  A    between atoms: N_32  and  C_33
REMARK   10  A    between atoms: N_32  and  C_34
REMARK                            x       y       z     vdW  Elec       q    Type
REMARK                         _______ _______ _______ _____ _____    ______ ____
ROOT
ATOM      1  C   UNL     1      45.782 -19.532 -41.607  0.00  0.00    -0.020 C 
ATOM      2  C   UNL     1      44.351 -19.019 -41.902  0.00  0.00    -0.048 C 
ATOM      3  C   UNL     1      44.281 -17.621 -41.321  0.00  0.00    -0.049 C 
ATOM      4  C   UNL     1      45.037 -17.757 -39.996  0.00  0.00    -0.032 C 
ATOM      5  C   UNL     1      44.118 -18.329 -38.870  0.00  0.00    -0.034 C 
ATOM      6  C   UNL     1      43.124 -17.249 -38.408  0.00  0.00    -0.049 C 
ATOM      7  C   UNL     1      42.213 -17.745 -37.295  0.00  0.00    -0.049 C 
ATOM      8  C   UNL     1      43.015 -18.223 -36.075  0.00  0.00    -0.034 C 
ATOM      9  C   UNL     1      42.059 -18.617 -34.925  0.00  0.00    -0.029 C 
ATOM     10  C   UNL     1      41.812 -20.124 -34.758  0.00  0.00    +0.050 C 
ATOM     11  C   UNL     1      41.951 -20.862 -36.095  0.00  0.00    +0.074 C 
ATOM     12  C   UNL     1      43.328 -20.679 -36.746  0.00  0.00    -0.019 C 
ATOM     13  C   UNL     1      44.046 -19.329 -36.446  0.00  0.00    -0.024 C 
ATOM     14  C   UNL     1      45.003 -19.524 -35.231  0.00  0.00    -0.059 C 
ATOM     15  C   UNL     1      44.933 -18.852 -37.666  0.00  0.00    -0.032 C 
ATOM     16  C   UNL     1      45.910 -19.924 -38.174  0.00  0.00    -0.049 C 
ATOM     17  C   UNL     1      46.895 -19.322 -39.165  0.00  0.00    -0.047 C 
ATOM     18  C   UNL     1      46.273 -18.636 -40.391  0.00  0.00    -0.025 C 
ATOM     19  C   UNL     1      47.371 -17.675 -40.946  0.00  0.00    -0.059 C 
ENDROOT
BRANCH  10  20
ATOM     20  N   UNL     1      40.512 -20.397 -34.148  0.00  0.00    -0.306 N 
ATOM     21  C   UNL     1      39.336 -19.918 -34.682  0.00  0.00    +0.244 C 
ATOM     22  O   UNL     1      39.277 -19.289 -35.732  0.00  0.00    -0.270 OA
ATOM     23  H   UNL     1      40.476 -20.942 -33.328  0.00  0.00    +0.000 HD
BRANCH  21  24
ATOM     24  C   UNL     1      38.094 -20.224 -33.923  0.00  0.00    +0.037 A 
ATOM     25  C   UNL     1      37.830 -21.504 -33.421  0.00  0.00    -0.050 A 
ATOM     26  C   UNL     1      36.659 -21.740 -32.697  0.00  0.00    -0.061 A 
ATOM     27  C   UNL     1      35.754 -20.703 -32.471  0.00  0.00    -0.062 A 
ATOM     28  C   UNL     1      36.019 -19.424 -32.960  0.00  0.00    -0.061 A 
ATOM     29  C   UNL     1      37.191 -19.181 -33.679  0.00  0.00    -0.050 A 
ENDBRANCH  21  24
ENDBRANCH  10  20
BRANCH   1  31
ATOM     30  C   UNL     1      44.800 -21.719 -42.515  0.00  0.00    -0.049 C 
ATOM     31  C   UNL     1      45.835 -21.097 -41.547  0.00  0.00    +0.010 C 
BRANCH  31  32
ATOM     32  N   UNL     1      47.076 -21.799 -41.903  0.00  0.00    -0.305 N 
ATOM     33  C   UNL     1      47.295 -23.059 -41.212  0.00  0.00    -0.013 C 
ATOM     34  C   UNL     1      48.281 -21.043 -42.163  0.00  0.00    -0.013 C 
ATOM     35  H   UNL     1      46.828 -22.038 -42.864  0.00  0.00    +0.000 HD
ENDBRANCH  31  32
ENDBRANCH   1  31
BRANCH  11  36
ATOM     36  O   UNL     1      41.692 -22.262 -35.930  0.00  0.00    -0.390 OA
ATOM     37  H   UNL     1      40.896 -22.382 -35.390  0.00  0.00    +0.000 HD
ENDBRANCH  11  36
TORSDOF 5
ENDMDL
MODEL 8
REMARK VINA RESULT:    -7.462      2.038      3.512
REMARK INTER + INTRA:         -10.191
REMARK INTER:                  -9.164
REMARK INTRA:                  -1.026
REMARK UNBOUND:                -0.765
REMARK  Name = cpd238.pdb
REMARK  10 active torsions:
REMARK  status: ('A' for Active; 'I' for Inactive)
REMARK    1  A    between atoms: C_1  and  C_2
REMARK    2  A    between atoms: C_2  and  C_3
REMARK    3  A    between atoms: C_2  and  N_32
REMARK    4  A    between atoms: C_12  and  N_13
REMARK    5  A    between atoms: C_14  and  C_16
REMARK    6  A    between atoms: C_22  and  O_23
REMARK    7  A    between atoms: C_25  and  C_26
REMARK    8  A    between atoms: C_30  and  C_31
REMARK    9  A    between atoms: N_32  and  C_33
REMARK   10  A    between atoms: N_32  and  C_34
REMARK                            x       y       z     vdW  Elec       q    Type
REMARK                         _______ _______ _______ _____ _____    ______ ____
ROOT
ATOM      1  C   UNL     1      27.385 -30.390 -29.506  0.00  0.00    -0.020 C 
ATOM      2  C   UNL     1      27.963 -30.042 -30.900  0.00  0.00    -0.048 C 
ATOM      3  C   UNL     1      27.617 -31.213 -31.799  0.00  0.00    -0.049 C 
ATOM      4  C   UNL     1      27.855 -32.427 -30.896  0.00  0.00    -0.032 C 
ATOM      5  C   UNL     1      29.363 -32.829 -30.863  0.00  0.00    -0.034 C 
ATOM      6  C   UNL     1      29.753 -33.504 -32.190  0.00  0.00    -0.049 C 
ATOM      7  C   UNL     1      31.211 -33.936 -32.207  0.00  0.00    -0.049 C 
ATOM      8  C   UNL     1      31.532 -34.902 -31.057  0.00  0.00    -0.034 C 
ATOM      9  C   UNL     1      32.990 -35.405 -31.169  0.00  0.00    -0.029 C 
ATOM     10  C   UNL     1      34.000 -34.714 -30.240  0.00  0.00    +0.050 C 
ATOM     11  C   UNL     1      33.575 -33.274 -29.927  0.00  0.00    +0.074 C 
ATOM     12  C   UNL     1      32.191 -33.182 -29.271  0.00  0.00    -0.019 C 
ATOM     13  C   UNL     1      31.177 -34.297 -29.666  0.00  0.00    -0.024 C 
ATOM     14  C   UNL     1      31.248 -35.442 -28.611  0.00  0.00    -0.059 C 
ATOM     15  C   UNL     1      29.690 -33.762 -29.675  0.00  0.00    -0.032 C 
ATOM     16  C   UNL     1      29.284 -33.049 -28.375  0.00  0.00    -0.049 C 
ATOM     17  C   UNL     1      27.784 -32.790 -28.355  0.00  0.00    -0.047 C 
ATOM     18  C   UNL     1      27.231 -31.970 -29.532  0.00  0.00    -0.025 C 
ATOM     19  C   UNL     1      25.703 -32.281 -29.588  0.00  0.00    -0.059 C 
ENDROOT
BRANCH  10  20
ATOM     20  N   UNL     1      35.355 -34.746 -30.790  0.00  0.00    -0.306 N 
ATOM     21  C   UNL     1      36.304 -35.643 -30.349  0.00  0.00    +0.244 C 
ATOM     22  O   UNL     1      36.075 -36.516 -29.520  0.00  0.00    -0.270 OA
ATOM     23  H   UNL     1      35.597 -34.106 -31.498  0.00  0.00    +0.000 HD
BRANCH  21  24
ATOM     24  C   UNL     1      37.657 -35.522 -30.954  0.00  0.00    +0.037 A 
ATOM     25  C   UNL     1      38.077 -34.352 -31.599  0.00  0.00    -0.050 A 
ATOM     26  C   UNL     1      39.364 -34.278 -32.136  0.00  0.00    -0.061 A 
ATOM     27  C   UNL     1      40.232 -35.364 -32.029  0.00  0.00    -0.062 A 
ATOM     28  C   UNL     1      39.821 -36.526 -31.377  0.00  0.00    -0.061 A 
ATOM     29  C   UNL     1      38.537 -36.605 -30.834  0.00  0.00    -0.050 A 
ENDBRANCH  21  24
ENDBRANCH  10  20
BRANCH   1  31
ATOM     30  C   UNL     1      29.662 -29.531 -28.704  0.00  0.00    -0.049 C 
ATOM     31  C   UNL     1      28.160 -29.658 -28.358  0.00  0.00    +0.010 C 
BRANCH  31  32
ATOM     32  N   UNL     1      27.793 -28.283 -27.991  0.00  0.00    -0.305 N 
ATOM     33  C   UNL     1      26.365 -28.024 -27.908  0.00  0.00    -0.013 C 
ATOM     34  C   UNL     1      28.573 -27.172 -28.491  0.00  0.00    -0.013 C 
ATOM     35  H   UNL     1      28.138 -28.300 -27.031  0.00  0.00    +0.000 HD
ENDBRANCH  31  32
ENDBRANCH   1  31
BRANCH  11  36
ATOM     36  O   UNL     1      34.539 -32.633 -29.082  0.00  0.00    -0.390 OA
ATOM     37  H   UNL     1      34.939 -31.887 -29.556  0.00  0.00    +0.000 HD
ENDBRANCH  11  36
TORSDOF 5
ENDMDL
MODEL 9
REMARK VINA RESULT:    -7.462      2.595      4.518
REMARK INTER + INTRA:         -10.190
REMARK INTER:                  -9.472
REMARK INTRA:                  -0.718
REMARK UNBOUND:                -0.765
REMARK  Name = cpd238.pdb
REMARK  10 active torsions:
REMARK  status: ('A' for Active; 'I' for Inactive)
REMARK    1  A    between atoms: C_1  and  C_2
REMARK    2  A    between atoms: C_2  and  C_3
REMARK    3  A    between atoms: C_2  and  N_32
REMARK    4  A    between atoms: C_12  and  N_13
REMARK    5  A    between atoms: C_14  and  C_16
REMARK    6  A    between atoms: C_22  and  O_23
REMARK    7  A    between atoms: C_25  and  C_26
REMARK    8  A    between atoms: C_30  and  C_31
REMARK    9  A    between atoms: N_32  and  C_33
REMARK   10  A    between atoms: N_32  and  C_34
REMARK                            x       y       z     vdW  Elec       q    Type
REMARK                         _______ _______ _______ _____ _____    ______ ____
ROOT
ATOM      1  C   UNL     1      26.937 -30.921 -33.605  0.00  0.00    -0.020 C 
ATOM      2  C   UNL     1      27.497 -31.765 -34.775  0.00  0.00    -0.048 C 
ATOM      3  C   UNL     1      27.200 -33.211 -34.426  0.00  0.00    -0.049 C 
ATOM      4  C   UNL     1      27.491 -33.273 -32.924  0.00  0.00    -0.032 C 
ATOM      5  C   UNL     1      29.015 -33.464 -32.645  0.00  0.00    -0.034 C 
ATOM      6  C   UNL     1      29.431 -34.908 -32.976  0.00  0.00    -0.049 C 
ATOM      7  C   UNL     1      30.906 -35.157 -32.703  0.00  0.00    -0.049 C 
ATOM      8  C   UNL     1      31.270 -34.869 -31.239  0.00  0.00    -0.034 C 
ATOM      9  C   UNL     1      32.749 -35.237 -30.971  0.00  0.00    -0.029 C 
ATOM     10  C   UNL     1      33.730 -34.055 -30.953  0.00  0.00    +0.050 C 
ATOM     11  C   UNL     1      33.244 -32.913 -31.854  0.00  0.00    +0.074 C 
ATOM     12  C   UNL     1      31.859 -32.382 -31.462  0.00  0.00    -0.019 C 
ATOM     13  C   UNL     1      30.894 -33.419 -30.814  0.00  0.00    -0.024 C 
ATOM     14  C   UNL     1      31.015 -33.323 -29.264  0.00  0.00    -0.059 C 
ATOM     15  C   UNL     1      29.384 -33.125 -31.183  0.00  0.00    -0.032 C 
ATOM     16  C   UNL     1      28.951 -31.678 -30.898  0.00  0.00    -0.049 C 
ATOM     17  C   UNL     1      27.442 -31.537 -31.034  0.00  0.00    -0.047 C 
ATOM     18  C   UNL     1      26.851 -31.944 -32.393  0.00  0.00    -0.025 C 
ATOM     19  C   UNL     1      25.337 -32.223 -32.135  0.00  0.00    -0.059 C 
ENDROOT
BRANCH  10  20
ATOM     20  N   UNL     1      35.084 -34.467 -31.323  0.00  0.00    -0.306 N 
ATOM     21  C   UNL     1      35.937 -35.071 -30.426  0.00  0.00    +0.244 C 
ATOM     22  O   UNL     1      35.615 -35.369 -29.281  0.00  0.00    -0.270 OA
ATOM     23  H   UNL     1      35.396 -34.306 -32.243  0.00  0.00    +0.000 HD
BRANCH  21  24
ATOM     24  C   UNL     1      37.304 -35.381 -30.921  0.00  0.00    +0.037 A 
ATOM     25  C   UNL     1      37.949 -34.574 -31.867  0.00  0.00    -0.050 A 
ATOM     26  C   UNL     1      39.241 -34.894 -32.290  0.00  0.00    -0.061 A 
ATOM     27  C   UNL     1      39.892 -36.012 -31.770  0.00  0.00    -0.062 A 
ATOM     28  C   UNL     1      39.257 -36.812 -30.819  0.00  0.00    -0.061 A 
ATOM     29  C   UNL     1      37.968 -36.494 -30.390  0.00  0.00    -0.050 A 
ENDBRANCH  21  24
ENDBRANCH  10  20
BRANCH   1  31
ATOM     30  C   UNL     1      28.226 -29.084 -34.844  0.00  0.00    -0.049 C 
ATOM     31  C   UNL     1      27.682 -29.549 -33.471  0.00  0.00    +0.010 C 
BRANCH  31  32
ATOM     32  N   UNL     1      26.954 -28.366 -32.992  0.00  0.00    -0.305 N 
ATOM     33  C   UNL     1      26.150 -27.686 -33.994  0.00  0.00    -0.013 C 
ATOM     34  C   UNL     1      27.569 -27.487 -32.023  0.00  0.00    -0.013 C 
ATOM     35  H   UNL     1      26.298 -28.848 -32.377  0.00  0.00    +0.000 HD
ENDBRANCH  31  32
ENDBRANCH   1  31
BRANCH  11  36
ATOM     36  O   UNL     1      34.182 -31.829 -31.849  0.00  0.00    -0.390 OA
ATOM     37  H   UNL     1      34.588 -31.748 -32.726  0.00  0.00    +0.000 HD
ENDBRANCH  11  36
TORSDOF 5
ENDMDL
MODEL 10
REMARK VINA RESULT:    -7.406      3.238      9.630
REMARK INTER + INTRA:         -10.119
REMARK INTER:                  -9.177
REMARK INTRA:                  -0.942
REMARK UNBOUND:                -0.765
REMARK  Name = cpd238.pdb
REMARK  10 active torsions:
REMARK  status: ('A' for Active; 'I' for Inactive)
REMARK    1  A    between atoms: C_1  and  C_2
REMARK    2  A    between atoms: C_2  and  C_3
REMARK    3  A    between atoms: C_2  and  N_32
REMARK    4  A    between atoms: C_12  and  N_13
REMARK    5  A    between atoms: C_14  and  C_16
REMARK    6  A    between atoms: C_22  and  O_23
REMARK    7  A    between atoms: C_25  and  C_26
REMARK    8  A    between atoms: C_30  and  C_31
REMARK    9  A    between atoms: N_32  and  C_33
REMARK   10  A    between atoms: N_32  and  C_34
REMARK                            x       y       z     vdW  Elec       q    Type
REMARK                         _______ _______ _______ _____ _____    ______ ____
ROOT
ATOM      1  C   UNL     1      35.212 -37.580 -30.264  0.00  0.00    -0.020 C 
ATOM      2  C   UNL     1      35.747 -36.723 -31.437  0.00  0.00    -0.048 C 
ATOM      3  C   UNL     1      36.500 -35.570 -30.802  0.00  0.00    -0.049 C 
ATOM      4  C   UNL     1      35.613 -35.190 -29.612  0.00  0.00    -0.032 C 
ATOM      5  C   UNL     1      34.442 -34.254 -30.049  0.00  0.00    -0.034 C 
ATOM      6  C   UNL     1      34.981 -32.842 -30.339  0.00  0.00    -0.049 C 
ATOM      7  C   UNL     1      33.877 -31.880 -30.751  0.00  0.00    -0.049 C 
ATOM      8  C   UNL     1      32.786 -31.773 -29.675  0.00  0.00    -0.034 C 
ATOM      9  C   UNL     1      31.739 -30.707 -30.077  0.00  0.00    -0.029 C 
ATOM     10  C   UNL     1      30.434 -31.255 -30.673  0.00  0.00    +0.050 C 
ATOM     11  C   UNL     1      30.666 -32.592 -31.389  0.00  0.00    +0.074 C 
ATOM     12  C   UNL     1      31.258 -33.672 -30.474  0.00  0.00    -0.019 C 
ATOM     13  C   UNL     1      32.172 -33.159 -29.321  0.00  0.00    -0.024 C 
ATOM     14  C   UNL     1      31.313 -32.991 -28.032  0.00  0.00    -0.059 C 
ATOM     15  C   UNL     1      33.324 -34.188 -28.983  0.00  0.00    -0.032 C 
ATOM     16  C   UNL     1      32.818 -35.617 -28.726  0.00  0.00    -0.049 C 
ATOM     17  C   UNL     1      33.935 -36.484 -28.164  0.00  0.00    -0.047 C 
ATOM     18  C   UNL     1      35.202 -36.584 -29.027  0.00  0.00    -0.025 C 
ATOM     19  C   UNL     1      36.342 -37.041 -28.062  0.00  0.00    -0.059 C 
ENDROOT
BRANCH  10  20
ATOM     20  N   UNL     1      29.798 -30.291 -31.569  0.00  0.00    -0.306 N 
ATOM     21  C   UNL     1      28.845 -29.399 -31.129  0.00  0.00    +0.244 C 
ATOM     22  O   UNL     1      28.504 -29.297 -29.957  0.00  0.00    -0.270 OA
ATOM     23  H   UNL     1      30.059 -30.279 -32.519  0.00  0.00    +0.000 HD
BRANCH  21  24
ATOM     24  C   UNL     1      28.239 -28.517 -32.162  0.00  0.00    +0.037 A 
ATOM     25  C   UNL     1      27.403 -27.446 -31.822  0.00  0.00    -0.050 A 
ATOM     26  C   UNL     1      26.872 -26.633 -32.826  0.00  0.00    -0.061 A 
ATOM     27  C   UNL     1      27.175 -26.882 -34.164  0.00  0.00    -0.062 A 
ATOM     28  C   UNL     1      28.017 -27.941 -34.506  0.00  0.00    -0.061 A 
ATOM     29  C   UNL     1      28.554 -28.754 -33.506  0.00  0.00    -0.050 A 
ENDBRANCH  21  24
ENDBRANCH  10  20
BRANCH   1  31
ATOM     30  C   UNL     1      33.340 -37.847 -31.994  0.00  0.00    -0.049 C 
ATOM     31  C   UNL     1      33.938 -38.393 -30.675  0.00  0.00    +0.010 C 
BRANCH  31  32
ATOM     32  N   UNL     1      34.045 -39.835 -30.938  0.00  0.00    -0.305 N 
ATOM     33  C   UNL     1      33.550 -40.696 -29.877  0.00  0.00    -0.013 C 
ATOM     34  C   UNL     1      35.197 -40.354 -31.641  0.00  0.00    -0.013 C 
ATOM     35  H   UNL     1      33.360 -39.888 -31.693  0.00  0.00    +0.000 HD
ENDBRANCH  31  32
ENDBRANCH   1  31
BRANCH  11  36
ATOM     36  O   UNL     1      29.447 -33.079 -31.963  0.00  0.00    -0.390 OA
ATOM     37  H   UNL     1      28.913 -32.330 -32.271  0.00  0.00    +0.000 HD
ENDBRANCH  11  36
TORSDOF 5
ENDMDL
MODEL 11
REMARK VINA RESULT:    -7.368      1.942      2.528
REMARK INTER + INTRA:         -10.072
REMARK INTER:                  -9.034
REMARK INTRA:                  -1.038
REMARK UNBOUND:                -0.765
REMARK  Name = cpd238.pdb
REMARK  10 active torsions:
REMARK  status: ('A' for Active; 'I' for Inactive)
REMARK    1  A    between atoms: C_1  and  C_2
REMARK    2  A    between atoms: C_2  and  C_3
REMARK    3  A    between atoms: C_2  and  N_32
REMARK    4  A    between atoms: C_12  and  N_13
REMARK    5  A    between atoms: C_14  and  C_16
REMARK    6  A    between atoms: C_22  and  O_23
REMARK    7  A    between atoms: C_25  and  C_26
REMARK    8  A    between atoms: C_30  and  C_31
REMARK    9  A    between atoms: N_32  and  C_33
REMARK   10  A    between atoms: N_32  and  C_34
REMARK                            x       y       z     vdW  Elec       q    Type
REMARK                         _______ _______ _______ _____ _____    ______ ____
ROOT
ATOM      1  C   UNL     1      27.067 -34.547 -29.764  0.00  0.00    -0.020 C 
ATOM      2  C   UNL     1      27.604 -34.749 -28.326  0.00  0.00    -0.048 C 
ATOM      3  C   UNL     1      28.213 -33.421 -27.917  0.00  0.00    -0.049 C 
ATOM      4  C   UNL     1      28.926 -32.960 -29.191  0.00  0.00    -0.032 C 
ATOM      5  C   UNL     1      30.333 -33.623 -29.331  0.00  0.00    -0.034 C 
ATOM      6  C   UNL     1      31.312 -32.988 -28.328  0.00  0.00    -0.049 C 
ATOM      7  C   UNL     1      32.708 -33.583 -28.433  0.00  0.00    -0.049 C 
ATOM      8  C   UNL     1      33.288 -33.425 -29.847  0.00  0.00    -0.034 C 
ATOM      9  C   UNL     1      34.746 -33.941 -29.890  0.00  0.00    -0.029 C 
ATOM     10  C   UNL     1      34.932 -35.346 -30.483  0.00  0.00    +0.050 C 
ATOM     11  C   UNL     1      33.685 -36.212 -30.266  0.00  0.00    +0.074 C 
ATOM     12  C   UNL     1      32.414 -35.606 -30.877  0.00  0.00    -0.019 C 
ATOM     13  C   UNL     1      32.365 -34.050 -30.934  0.00  0.00    -0.024 C 
ATOM     14  C   UNL     1      32.875 -33.579 -32.329  0.00  0.00    -0.059 C 
ATOM     15  C   UNL     1      30.891 -33.503 -30.768  0.00  0.00    -0.032 C 
ATOM     16  C   UNL     1      29.882 -34.148 -31.732  0.00  0.00    -0.049 C 
ATOM     17  C   UNL     1      28.556 -33.403 -31.693  0.00  0.00    -0.047 C 
ATOM     18  C   UNL     1      27.886 -33.301 -30.313  0.00  0.00    -0.025 C 
ATOM     19  C   UNL     1      26.890 -32.104 -30.408  0.00  0.00    -0.059 C 
ENDROOT
BRANCH  10  20
ATOM     20  N   UNL     1      36.121 -36.008 -29.951  0.00  0.00    -0.306 N 
ATOM     21  C   UNL     1      37.310 -36.050 -30.646  0.00  0.00    +0.244 C 
ATOM     22  O   UNL     1      37.485 -35.489 -31.721  0.00  0.00    -0.270 OA
ATOM     23  H   UNL     1      36.072 -36.439 -29.066  0.00  0.00    +0.000 HD
BRANCH  21  24
ATOM     24  C   UNL     1      38.420 -36.809 -30.011  0.00  0.00    +0.037 A 
ATOM     25  C   UNL     1      38.219 -37.597 -28.869  0.00  0.00    -0.050 A 
ATOM     26  C   UNL     1      39.288 -38.307 -28.318  0.00  0.00    -0.061 A 
ATOM     27  C   UNL     1      40.552 -38.238 -28.902  0.00  0.00    -0.062 A 
ATOM     28  C   UNL     1      40.753 -37.464 -30.045  0.00  0.00    -0.061 A 
ATOM     29  C   UNL     1      39.688 -36.755 -30.604  0.00  0.00    -0.050 A 
ENDBRANCH  21  24
ENDBRANCH  10  20
BRANCH   1  31
ATOM     30  C   UNL     1      28.050 -36.900 -30.016  0.00  0.00    -0.049 C 
ATOM     31  C   UNL     1      27.000 -35.899 -30.552  0.00  0.00    +0.010 C 
BRANCH  31  32
ATOM     32  N   UNL     1      25.761 -36.689 -30.542  0.00  0.00    -0.305 N 
ATOM     33  C   UNL     1      24.563 -35.956 -30.168  0.00  0.00    -0.013 C 
ATOM     34  C   UNL     1      25.788 -38.062 -30.088  0.00  0.00    -0.013 C 
ATOM     35  H   UNL     1      25.695 -36.855 -31.546  0.00  0.00    +0.000 HD
ENDBRANCH  31  32
ENDBRANCH   1  31
BRANCH  11  36
ATOM     36  O   UNL     1      33.881 -37.528 -30.800  0.00  0.00    -0.390 OA
ATOM     37  H   UNL     1      34.321 -37.463 -31.663  0.00  0.00    +0.000 HD
ENDBRANCH  11  36
TORSDOF 5
ENDMDL
MODEL 12
REMARK VINA RESULT:    -7.171      5.499      7.941
REMARK INTER + INTRA:          -9.823
REMARK INTER:                  -9.288
REMARK INTRA:                  -0.535
REMARK UNBOUND:                -0.765
REMARK  Name = cpd238.pdb
REMARK  10 active torsions:
REMARK  status: ('A' for Active; 'I' for Inactive)
REMARK    1  A    between atoms: C_1  and  C_2
REMARK    2  A    between atoms: C_2  and  C_3
REMARK    3  A    between atoms: C_2  and  N_32
REMARK    4  A    between atoms: C_12  and  N_13
REMARK    5  A    between atoms: C_14  and  C_16
REMARK    6  A    between atoms: C_22  and  O_23
REMARK    7  A    between atoms: C_25  and  C_26
REMARK    8  A    between atoms: C_30  and  C_31
REMARK    9  A    between atoms: N_32  and  C_33
REMARK   10  A    between atoms: N_32  and  C_34
REMARK                            x       y       z     vdW  Elec       q    Type
REMARK                         _______ _______ _______ _____ _____    ______ ____
ROOT
ATOM      1  C   UNL     1      31.802 -41.936 -25.296  0.00  0.00    -0.020 C 
ATOM      2  C   UNL     1      33.232 -41.810 -24.716  0.00  0.00    -0.048 C 
ATOM      3  C   UNL     1      33.302 -40.437 -24.075  0.00  0.00    -0.049 C 
ATOM      4  C   UNL     1      32.548 -39.550 -25.070  0.00  0.00    -0.032 C 
ATOM      5  C   UNL     1      33.470 -39.105 -26.250  0.00  0.00    -0.034 C 
ATOM      6  C   UNL     1      34.464 -38.036 -25.762  0.00  0.00    -0.049 C 
ATOM      7  C   UNL     1      35.376 -37.550 -26.878  0.00  0.00    -0.049 C 
ATOM      8  C   UNL     1      34.576 -36.970 -28.054  0.00  0.00    -0.034 C 
ATOM      9  C   UNL     1      35.534 -36.387 -29.119  0.00  0.00    -0.029 C 
ATOM     10  C   UNL     1      35.783 -37.280 -30.344  0.00  0.00    +0.050 C 
ATOM     11  C   UNL     1      35.642 -38.765 -29.988  0.00  0.00    +0.074 C 
ATOM     12  C   UNL     1      34.264 -39.122 -29.416  0.00  0.00    -0.019 C 
ATOM     13  C   UNL     1      33.545 -37.989 -28.623  0.00  0.00    -0.024 C 
ATOM     14  C   UNL     1      32.591 -37.223 -29.588  0.00  0.00    -0.059 C 
ATOM     15  C   UNL     1      32.657 -38.567 -27.450  0.00  0.00    -0.032 C 
ATOM     16  C   UNL     1      31.679 -39.665 -27.901  0.00  0.00    -0.049 C 
ATOM     17  C   UNL     1      30.693 -39.990 -26.789  0.00  0.00    -0.047 C 
ATOM     18  C   UNL     1      31.312 -40.434 -25.454  0.00  0.00    -0.025 C 
ATOM     19  C   UNL     1      30.212 -40.195 -24.372  0.00  0.00    -0.059 C 
ENDROOT
BRANCH  10  20
ATOM     20  N   UNL     1      37.084 -37.014 -30.956  0.00  0.00    -0.306 N 
ATOM     21  C   UNL     1      38.265 -37.169 -30.263  0.00  0.00    +0.244 C 
ATOM     22  O   UNL     1      38.325 -37.597 -29.117  0.00  0.00    -0.270 OA
ATOM     23  H   UNL     1      37.117 -36.715 -31.894  0.00  0.00    +0.000 HD
BRANCH  21  24
ATOM     24  C   UNL     1      39.509 -36.805 -30.992  0.00  0.00    +0.037 A 
ATOM     25  C   UNL     1      39.479 -36.088 -32.194  0.00  0.00    -0.050 A 
ATOM     26  C   UNL     1      40.675 -35.752 -32.834  0.00  0.00    -0.061 A 
ATOM     27  C   UNL     1      41.897 -36.127 -32.276  0.00  0.00    -0.062 A 
ATOM     28  C   UNL     1      41.931 -36.831 -31.073  0.00  0.00    -0.061 A 
ATOM     29  C   UNL     1      40.739 -37.165 -30.427  0.00  0.00    -0.050 A 
ENDBRANCH  21  24
ENDBRANCH  10  20
BRANCH   1  31
ATOM     30  C   UNL     1      33.162 -43.494 -26.811  0.00  0.00    -0.049 C 
ATOM     31  C   UNL     1      31.750 -42.947 -26.492  0.00  0.00    +0.010 C 
BRANCH  31  32
ATOM     32  N   UNL     1      30.945 -44.172 -26.378  0.00  0.00    -0.305 N 
ATOM     33  C   UNL     1      29.867 -44.115 -25.405  0.00  0.00    -0.013 C 
ATOM     34  C   UNL     1      31.583 -45.465 -26.488  0.00  0.00    -0.013 C 
ATOM     35  H   UNL     1      30.505 -44.133 -27.297  0.00  0.00    +0.000 HD
ENDBRANCH  31  32
ENDBRANCH   1  31
BRANCH  11  36
ATOM     36  O   UNL     1      35.902 -39.588 -31.133  0.00  0.00    -0.390 OA
ATOM     37  H   UNL     1      36.295 -40.426 -30.846  0.00  0.00    +0.000 HD
ENDBRANCH  11  36
TORSDOF 5
ENDMDL
MODEL 13
REMARK VINA RESULT:    -7.046     18.270     20.313
REMARK INTER + INTRA:          -9.665
REMARK INTER:                  -8.644
REMARK INTRA:                  -1.021
REMARK UNBOUND:                -0.765
REMARK  Name = cpd238.pdb
REMARK  10 active torsions:
REMARK  status: ('A' for Active; 'I' for Inactive)
REMARK    1  A    between atoms: C_1  and  C_2
REMARK    2  A    between atoms: C_2  and  C_3
REMARK    3  A    between atoms: C_2  and  N_32
REMARK    4  A    between atoms: C_12  and  N_13
REMARK    5  A    between atoms: C_14  and  C_16
REMARK    6  A    between atoms: C_22  and  O_23
REMARK    7  A    between atoms: C_25  and  C_26
REMARK    8  A    between atoms: C_30  and  C_31
REMARK    9  A    between atoms: N_32  and  C_33
REMARK   10  A    between atoms: N_32  and  C_34
REMARK                            x       y       z     vdW  Elec       q    Type
REMARK                         _______ _______ _______ _____ _____    ______ ____
ROOT
ATOM      1  C   UNL     1      38.836 -20.691 -34.220  0.00  0.00    -0.020 C 
ATOM      2  C   UNL     1      38.595 -20.430 -35.727  0.00  0.00    -0.048 C 
ATOM      3  C   UNL     1      39.228 -21.597 -36.459  0.00  0.00    -0.049 C 
ATOM      4  C   UNL     1      40.528 -21.830 -35.684  0.00  0.00    -0.032 C 
ATOM      5  C   UNL     1      41.655 -20.855 -36.153  0.00  0.00    -0.034 C 
ATOM      6  C   UNL     1      42.180 -21.288 -37.532  0.00  0.00    -0.049 C 
ATOM      7  C   UNL     1      43.297 -20.384 -38.031  0.00  0.00    -0.049 C 
ATOM      8  C   UNL     1      44.478 -20.345 -37.051  0.00  0.00    -0.034 C 
ATOM      9  C   UNL     1      45.637 -19.506 -37.638  0.00  0.00    -0.029 C 
ATOM     10  C   UNL     1      45.755 -18.073 -37.098  0.00  0.00    +0.050 C 
ATOM     11  C   UNL     1      44.389 -17.527 -36.663  0.00  0.00    +0.074 C 
ATOM     12  C   UNL     1      43.711 -18.384 -35.586  0.00  0.00    -0.019 C 
ATOM     13  C   UNL     1      44.042 -19.906 -35.622  0.00  0.00    -0.024 C 
ATOM     14  C   UNL     1      45.225 -20.190 -34.648  0.00  0.00    -0.059 C 
ATOM     15  C   UNL     1      42.819 -20.784 -35.138  0.00  0.00    -0.032 C 
ATOM     16  C   UNL     1      42.249 -20.350 -33.778  0.00  0.00    -0.049 C 
ATOM     17  C   UNL     1      41.256 -21.381 -33.263  0.00  0.00    -0.047 C 
ATOM     18  C   UNL     1      40.071 -21.691 -34.191  0.00  0.00    -0.025 C 
ATOM     19  C   UNL     1      39.524 -23.081 -33.738  0.00  0.00    -0.059 C 
ENDROOT
BRANCH  10  20
ATOM     20  N   UNL     1      46.387 -17.177 -38.065  0.00  0.00    -0.306 N 
ATOM     21  C   UNL     1      47.310 -16.226 -37.688  0.00  0.00    +0.244 C 
ATOM     22  O   UNL     1      47.719 -16.098 -36.540  0.00  0.00    -0.270 OA
ATOM     23  H   UNL     1      46.146 -17.256 -39.016  0.00  0.00    +0.000 HD
BRANCH  21  24
ATOM     24  C   UNL     1      47.827 -15.344 -38.768  0.00  0.00    +0.037 A 
ATOM     25  C   UNL     1      48.580 -14.196 -38.489  0.00  0.00    -0.050 A 
ATOM     26  C   UNL     1      49.060 -13.408 -39.537  0.00  0.00    -0.061 A 
ATOM     27  C   UNL     1      48.796 -13.762 -40.860  0.00  0.00    -0.062 A 
ATOM     28  C   UNL     1      48.056 -14.911 -41.141  0.00  0.00    -0.061 A 
ATOM     29  C   UNL     1      47.577 -15.705 -40.098  0.00  0.00    -0.050 A 
ENDBRANCH  21  24
ENDBRANCH  10  20
BRANCH   1  31
ATOM     30  C   UNL     1      39.325 -18.176 -34.263  0.00  0.00    -0.049 C 
ATOM     31  C   UNL     1      38.838 -19.360 -33.394  0.00  0.00    +0.010 C 
BRANCH  31  32
ATOM     32  N   UNL     1      37.581 -18.852 -32.827  0.00  0.00    -0.305 N 
ATOM     33  C   UNL     1      36.498 -19.818 -32.756  0.00  0.00    -0.013 C 
ATOM     34  C   UNL     1      37.157 -17.499 -33.115  0.00  0.00    -0.013 C 
ATOM     35  H   UNL     1      37.907 -18.715 -31.870  0.00  0.00    +0.000 HD
ENDBRANCH  31  32
ENDBRANCH   1  31
BRANCH  11  36
ATOM     36  O   UNL     1      44.510 -16.181 -36.186  0.00  0.00    -0.390 OA
ATOM     37  H   UNL     1      45.278 -15.759 -36.601  0.00  0.00    +0.000 HD
ENDBRANCH  11  36
TORSDOF 5
ENDMDL
MODEL 14
REMARK VINA RESULT:    -6.909      4.966      6.759
REMARK INTER + INTRA:          -9.491
REMARK INTER:                  -8.512
REMARK INTRA:                  -0.980
REMARK UNBOUND:                -0.765
REMARK  Name = cpd238.pdb
REMARK  10 active torsions:
REMARK  status: ('A' for Active; 'I' for Inactive)
REMARK    1  A    between atoms: C_1  and  C_2
REMARK    2  A    between atoms: C_2  and  C_3
REMARK    3  A    between atoms: C_2  and  N_32
REMARK    4  A    between atoms: C_12  and  N_13
REMARK    5  A    between atoms: C_14  and  C_16
REMARK    6  A    between atoms: C_22  and  O_23
REMARK    7  A    between atoms: C_25  and  C_26
REMARK    8  A    between atoms: C_30  and  C_31
REMARK    9  A    between atoms: N_32  and  C_33
REMARK   10  A    between atoms: N_32  and  C_34
REMARK                            x       y       z     vdW  Elec       q    Type
REMARK                         _______ _______ _______ _____ _____    ______ ____
ROOT
ATOM      1  C   UNL     1      32.414 -32.755 -30.629  0.00  0.00    -0.020 C 
ATOM      2  C   UNL     1      33.687 -32.403 -29.822  0.00  0.00    -0.048 C 
ATOM      3  C   UNL     1      34.789 -33.286 -30.374  0.00  0.00    -0.049 C 
ATOM      4  C   UNL     1      34.084 -34.629 -30.587  0.00  0.00    -0.032 C 
ATOM      5  C   UNL     1      34.013 -35.454 -29.263  0.00  0.00    -0.034 C 
ATOM      6  C   UNL     1      35.403 -36.023 -28.927  0.00  0.00    -0.049 C 
ATOM      7  C   UNL     1      35.389 -36.855 -27.653  0.00  0.00    -0.049 C 
ATOM      8  C   UNL     1      34.394 -38.021 -27.746  0.00  0.00    -0.034 C 
ATOM      9  C   UNL     1      34.486 -38.907 -26.482  0.00  0.00    -0.029 C 
ATOM     10  C   UNL     1      33.388 -38.676 -25.432  0.00  0.00    +0.050 C 
ATOM     11  C   UNL     1      32.872 -37.232 -25.475  0.00  0.00    +0.074 C 
ATOM     12  C   UNL     1      32.308 -36.832 -26.844  0.00  0.00    -0.019 C 
ATOM     13  C   UNL     1      32.951 -37.538 -28.075  0.00  0.00    -0.024 C 
ATOM     14  C   UNL     1      32.097 -38.787 -28.446  0.00  0.00    -0.059 C 
ATOM     15  C   UNL     1      32.976 -36.596 -29.345  0.00  0.00    -0.032 C 
ATOM     16  C   UNL     1      31.607 -35.982 -29.683  0.00  0.00    -0.049 C 
ATOM     17  C   UNL     1      31.649 -35.302 -31.044  0.00  0.00    -0.047 C 
ATOM     18  C   UNL     1      32.710 -34.203 -31.210  0.00  0.00    -0.025 C 
ATOM     19  C   UNL     1      32.924 -34.044 -32.749  0.00  0.00    -0.059 C 
ENDROOT
BRANCH  10  20
ATOM     20  N   UNL     1      33.840 -39.025 -24.087  0.00  0.00    -0.306 N 
ATOM     21  C   UNL     1      33.605 -40.265 -23.533  0.00  0.00    +0.244 C 
ATOM     22  O   UNL     1      33.064 -41.184 -24.138  0.00  0.00    -0.270 OA
ATOM     23  H   UNL     1      34.327 -38.353 -23.558  0.00  0.00    +0.000 HD
BRANCH  21  24
ATOM     24  C   UNL     1      34.067 -40.462 -22.134  0.00  0.00    +0.037 A 
ATOM     25  C   UNL     1      33.909 -39.471 -21.156  0.00  0.00    -0.050 A 
ATOM     26  C   UNL     1      34.342 -39.708 -19.850  0.00  0.00    -0.061 A 
ATOM     27  C   UNL     1      34.928 -40.928 -19.516  0.00  0.00    -0.062 A 
ATOM     28  C   UNL     1      35.077 -41.921 -20.484  0.00  0.00    -0.061 A 
ATOM     29  C   UNL     1      34.642 -41.692 -21.790  0.00  0.00    -0.050 A 
ENDBRANCH  21  24
ENDBRANCH  10  20
BRANCH   1  31
ATOM     30  C   UNL     1      31.355 -32.613 -28.299  0.00  0.00    -0.049 C 
ATOM     31  C   UNL     1      31.109 -32.447 -29.818  0.00  0.00    +0.010 C 
BRANCH  31  32
ATOM     32  N   UNL     1      30.494 -31.115 -29.903  0.00  0.00    -0.305 N 
ATOM     33  C   UNL     1      30.399 -30.395 -28.645  0.00  0.00    -0.013 C 
ATOM     34  C   UNL     1      29.385 -30.892 -30.805  0.00  0.00    -0.013 C 
ATOM     35  H   UNL     1      31.231 -30.657 -30.441  0.00  0.00    +0.000 HD
ENDBRANCH  31  32
ENDBRANCH   1  31
BRANCH  11  36
ATOM     36  O   UNL     1      31.868 -37.023 -24.474  0.00  0.00    -0.390 OA
ATOM     37  H   UNL     1      32.291 -36.766 -23.640  0.00  0.00    +0.000 HD
ENDBRANCH  11  36
TORSDOF 5
ENDMDL
MODEL 15
REMARK VINA RESULT:    -6.893      1.423      2.067
REMARK INTER + INTRA:          -9.472
REMARK INTER:                  -8.455
REMARK INTRA:                  -1.017
REMARK UNBOUND:                -0.765
REMARK  Name = cpd238.pdb
REMARK  10 active torsions:
REMARK  status: ('A' for Active; 'I' for Inactive)
REMARK    1  A    between atoms: C_1  and  C_2
REMARK    2  A    between atoms: C_2  and  C_3
REMARK    3  A    between atoms: C_2  and  N_32
REMARK    4  A    between atoms: C_12  and  N_13
REMARK    5  A    between atoms: C_14  and  C_16
REMARK    6  A    between atoms: C_22  and  O_23
REMARK    7  A    between atoms: C_25  and  C_26
REMARK    8  A    between atoms: C_30  and  C_31
REMARK    9  A    between atoms: N_32  and  C_33
REMARK   10  A    between atoms: N_32  and  C_34
REMARK                            x       y       z     vdW  Elec       q    Type
REMARK                         _______ _______ _______ _____ _____    ______ ____
ROOT
ATOM      1  C   UNL     1      26.894 -30.307 -28.993  0.00  0.00    -0.020 C 
ATOM      2  C   UNL     1      28.049 -29.706 -28.155  0.00  0.00    -0.048 C 
ATOM      3  C   UNL     1      28.883 -28.887 -29.122  0.00  0.00    -0.049 C 
ATOM      4  C   UNL     1      28.913 -29.759 -30.380  0.00  0.00    -0.032 C 
ATOM      5  C   UNL     1      30.014 -30.862 -30.284  0.00  0.00    -0.034 C 
ATOM      6  C   UNL     1      31.405 -30.230 -30.461  0.00  0.00    -0.049 C 
ATOM      7  C   UNL     1      32.518 -31.265 -30.396  0.00  0.00    -0.049 C 
ATOM      8  C   UNL     1      32.341 -32.358 -31.461  0.00  0.00    -0.034 C 
ATOM      9  C   UNL     1      33.544 -33.329 -31.438  0.00  0.00    -0.029 C 
ATOM     10  C   UNL     1      33.304 -34.662 -30.712  0.00  0.00    +0.050 C 
ATOM     11  C   UNL     1      32.260 -34.509 -29.599  0.00  0.00    +0.074 C 
ATOM     12  C   UNL     1      30.906 -33.998 -30.107  0.00  0.00    -0.019 C 
ATOM     13  C   UNL     1      30.957 -33.064 -31.353  0.00  0.00    -0.024 C 
ATOM     14  C   UNL     1      30.753 -33.923 -32.638  0.00  0.00    -0.059 C 
ATOM     15  C   UNL     1      29.803 -31.984 -31.326  0.00  0.00    -0.032 C 
ATOM     16  C   UNL     1      28.403 -32.584 -31.113  0.00  0.00    -0.049 C 
ATOM     17  C   UNL     1      27.330 -31.532 -31.350  0.00  0.00    -0.047 C 
ATOM     18  C   UNL     1      27.433 -30.265 -30.487  0.00  0.00    -0.025 C 
ATOM     19  C   UNL     1      26.616 -29.167 -31.238  0.00  0.00    -0.059 C 
ENDROOT
BRANCH  10  20
ATOM     20  N   UNL     1      34.546 -35.224 -30.184  0.00  0.00    -0.306 N 
ATOM     21  C   UNL     1      35.303 -36.128 -30.897  0.00  0.00    +0.244 C 
ATOM     22  O   UNL     1      35.038 -36.478 -32.041  0.00  0.00    -0.270 OA
ATOM     23  H   UNL     1      34.851 -34.950 -29.289  0.00  0.00    +0.000 HD
BRANCH  21  24
ATOM     24  C   UNL     1      36.510 -36.664 -30.213  0.00  0.00    +0.037 A 
ATOM     25  C   UNL     1      36.473 -37.097 -28.882  0.00  0.00    -0.050 A 
ATOM     26  C   UNL     1      37.628 -37.611 -28.286  0.00  0.00    -0.061 A 
ATOM     27  C   UNL     1      38.814 -37.696 -29.014  0.00  0.00    -0.062 A 
ATOM     28  C   UNL     1      38.851 -37.276 -30.343  0.00  0.00    -0.061 A 
ATOM     29  C   UNL     1      37.699 -36.766 -30.946  0.00  0.00    -0.050 A 
ENDBRANCH  21  24
ENDBRANCH  10  20
BRANCH   1  31
ATOM     30  C   UNL     1      27.430 -32.320 -27.500  0.00  0.00    -0.049 C 
ATOM     31  C   UNL     1      26.342 -31.628 -28.356  0.00  0.00    +0.010 C 
BRANCH  31  32
ATOM     32  N   UNL     1      25.194 -31.572 -27.440  0.00  0.00    -0.305 N 
ATOM     33  C   UNL     1      24.206 -30.552 -27.748  0.00  0.00    -0.013 C 
ATOM     34  C   UNL     1      25.389 -31.808 -26.027  0.00  0.00    -0.013 C 
ATOM     35  H   UNL     1      24.772 -32.466 -27.694  0.00  0.00    +0.000 HD
ENDBRANCH  31  32
ENDBRANCH   1  31
BRANCH  11  36
ATOM     36  O   UNL     1      32.065 -35.752 -28.912  0.00  0.00    -0.390 OA
ATOM     37  H   UNL     1      32.926 -36.168 -28.746  0.00  0.00    +0.000 HD
ENDBRANCH  11  36
TORSDOF 5
ENDMDL
MODEL 16
REMARK VINA RESULT:    -6.883      3.536      9.289
REMARK INTER + INTRA:          -9.459
REMARK INTER:                  -8.557
REMARK INTRA:                  -0.902
REMARK UNBOUND:                -0.765
REMARK  Name = cpd238.pdb
REMARK  10 active torsions:
REMARK  status: ('A' for Active; 'I' for Inactive)
REMARK    1  A    between atoms: C_1  and  C_2
REMARK    2  A    between atoms: C_2  and  C_3
REMARK    3  A    between atoms: C_2  and  N_32
REMARK    4  A    between atoms: C_12  and  N_13
REMARK    5  A    between atoms: C_14  and  C_16
REMARK    6  A    between atoms: C_22  and  O_23
REMARK    7  A    between atoms: C_25  and  C_26
REMARK    8  A    between atoms: C_30  and  C_31
REMARK    9  A    between atoms: N_32  and  C_33
REMARK   10  A    between atoms: N_32  and  C_34
REMARK                            x       y       z     vdW  Elec       q    Type
REMARK                         _______ _______ _______ _____ _____    ______ ____
ROOT
ATOM      1  C   UNL     1      34.735 -40.155 -27.948  0.00  0.00    -0.020 C 
ATOM      2  C   UNL     1      33.677 -40.466 -29.035  0.00  0.00    -0.048 C 
ATOM      3  C   UNL     1      34.388 -40.314 -30.365  0.00  0.00    -0.049 C 
ATOM      4  C   UNL     1      35.263 -39.075 -30.152  0.00  0.00    -0.032 C 
ATOM      5  C   UNL     1      34.454 -37.759 -30.374  0.00  0.00    -0.034 C 
ATOM      6  C   UNL     1      34.197 -37.550 -31.877  0.00  0.00    -0.049 C 
ATOM      7  C   UNL     1      33.427 -36.268 -32.155  0.00  0.00    -0.049 C 
ATOM      8  C   UNL     1      34.162 -35.034 -31.610  0.00  0.00    -0.034 C 
ATOM      9  C   UNL     1      33.407 -33.742 -32.005  0.00  0.00    -0.029 C 
ATOM     10  C   UNL     1      32.536 -33.123 -30.903  0.00  0.00    +0.050 C 
ATOM     11  C   UNL     1      32.024 -34.193 -29.930  0.00  0.00    +0.074 C 
ATOM     12  C   UNL     1      33.151 -34.983 -29.253  0.00  0.00    -0.019 C 
ATOM     13  C   UNL     1      34.457 -35.151 -30.086  0.00  0.00    -0.024 C 
ATOM     14  C   UNL     1      35.454 -34.017 -29.699  0.00  0.00    -0.059 C 
ATOM     15  C   UNL     1      35.175 -36.527 -29.781  0.00  0.00    -0.032 C 
ATOM     16  C   UNL     1      35.410 -36.780 -28.283  0.00  0.00    -0.049 C 
ATOM     17  C   UNL     1      36.320 -37.983 -28.083  0.00  0.00    -0.047 C 
ATOM     18  C   UNL     1      35.836 -39.300 -28.710  0.00  0.00    -0.025 C 
ATOM     19  C   UNL     1      37.103 -40.201 -28.845  0.00  0.00    -0.059 C 
ENDROOT
BRANCH  10  20
ATOM     20  N   UNL     1      31.424 -32.352 -31.456  0.00  0.00    -0.306 N 
ATOM     21  C   UNL     1      30.951 -31.209 -30.850  0.00  0.00    +0.244 C 
ATOM     22  O   UNL     1      31.457 -30.715 -29.849  0.00  0.00    -0.270 OA
ATOM     23  H   UNL     1      30.999 -32.660 -32.290  0.00  0.00    +0.000 HD
BRANCH  21  24
ATOM     24  C   UNL     1      29.776 -30.560 -31.491  0.00  0.00    +0.037 A 
ATOM     25  C   UNL     1      29.536 -29.185 -31.375  0.00  0.00    -0.050 A 
ATOM     26  C   UNL     1      28.430 -28.616 -32.010  0.00  0.00    -0.061 A 
ATOM     27  C   UNL     1      27.567 -29.412 -32.762  0.00  0.00    -0.062 A 
ATOM     28  C   UNL     1      27.810 -30.780 -32.890  0.00  0.00    -0.061 A 
ATOM     29  C   UNL     1      28.916 -31.353 -32.261  0.00  0.00    -0.050 A 
ENDBRANCH  21  24
ENDBRANCH  10  20
BRANCH   1  31
ATOM     30  C   UNL     1      32.768 -38.869 -26.924  0.00  0.00    -0.049 C 
ATOM     31  C   UNL     1      34.072 -39.646 -26.623  0.00  0.00    +0.010 C 
BRANCH  31  32
ATOM     32  N   UNL     1      33.645 -40.613 -25.602  0.00  0.00    -0.305 N 
ATOM     33  C   UNL     1      33.947 -42.003 -25.902  0.00  0.00    -0.013 C 
ATOM     34  C   UNL     1      32.399 -40.412 -24.895  0.00  0.00    -0.013 C 
ATOM     35  H   UNL     1      34.293 -40.331 -24.866  0.00  0.00    +0.000 HD
ENDBRANCH  31  32
ENDBRANCH   1  31
BRANCH  11  36
ATOM     36  O   UNL     1      31.191 -33.606 -28.922  0.00  0.00    -0.390 OA
ATOM     37  H   UNL     1      30.973 -32.695 -29.174  0.00  0.00    +0.000 HD
ENDBRANCH  11  36
TORSDOF 5
ENDMDL
MODEL 17
REMARK VINA RESULT:    -6.870     30.678     35.763
REMARK INTER + INTRA:          -9.442
REMARK INTER:                  -8.451
REMARK INTRA:                  -0.991
REMARK UNBOUND:                -0.765
REMARK  Name = cpd238.pdb
REMARK  10 active torsions:
REMARK  status: ('A' for Active; 'I' for Inactive)
REMARK    1  A    between atoms: C_1  and  C_2
REMARK    2  A    between atoms: C_2  and  C_3
REMARK    3  A    between atoms: C_2  and  N_32
REMARK    4  A    between atoms: C_12  and  N_13
REMARK    5  A    between atoms: C_14  and  C_16
REMARK    6  A    between atoms: C_22  and  O_23
REMARK    7  A    between atoms: C_25  and  C_26
REMARK    8  A    between atoms: C_30  and  C_31
REMARK    9  A    between atoms: N_32  and  C_33
REMARK   10  A    between atoms: N_32  and  C_34
REMARK                            x       y       z     vdW  Elec       q    Type
REMARK                         _______ _______ _______ _____ _____    ______ ____
ROOT
ATOM      1  C   UNL     1      60.617 -30.774 -58.019  0.00  0.00    -0.020 C 
ATOM      2  C   UNL     1      61.599 -30.689 -56.826  0.00  0.00    -0.048 C 
ATOM      3  C   UNL     1      62.193 -32.076 -56.675  0.00  0.00    -0.049 C 
ATOM      4  C   UNL     1      60.992 -32.996 -56.913  0.00  0.00    -0.032 C 
ATOM      5  C   UNL     1      60.135 -33.164 -55.619  0.00  0.00    -0.034 C 
ATOM      6  C   UNL     1      60.871 -34.073 -54.619  0.00  0.00    -0.049 C 
ATOM      7  C   UNL     1      60.071 -34.289 -53.343  0.00  0.00    -0.049 C 
ATOM      8  C   UNL     1      58.693 -34.900 -53.634  0.00  0.00    -0.034 C 
ATOM      9  C   UNL     1      57.952 -35.207 -52.310  0.00  0.00    -0.029 C 
ATOM     10  C   UNL     1      56.885 -34.182 -51.898  0.00  0.00    +0.050 C 
ATOM     11  C   UNL     1      57.222 -32.782 -52.428  0.00  0.00    +0.074 C 
ATOM     12  C   UNL     1      57.360 -32.732 -53.955  0.00  0.00    -0.019 C 
ATOM     13  C   UNL     1      57.867 -34.039 -54.634  0.00  0.00    -0.024 C 
ATOM     14  C   UNL     1      56.638 -34.880 -55.094  0.00  0.00    -0.059 C 
ATOM     15  C   UNL     1      58.731 -33.735 -55.923  0.00  0.00    -0.032 C 
ATOM     16  C   UNL     1      58.036 -32.797 -56.924  0.00  0.00    -0.049 C 
ATOM     17  C   UNL     1      58.805 -32.753 -58.236  0.00  0.00    -0.047 C 
ATOM     18  C   UNL     1      60.277 -32.321 -58.134  0.00  0.00    -0.025 C 
ATOM     19  C   UNL     1      60.968 -32.847 -59.431  0.00  0.00    -0.059 C 
ENDROOT
BRANCH  10  20
ATOM     20  N   UNL     1      56.689 -34.154 -50.450  0.00  0.00    -0.306 N 
ATOM     21  C   UNL     1      55.736 -34.927 -49.824  0.00  0.00    +0.244 C 
ATOM     22  O   UNL     1      55.030 -35.738 -50.412  0.00  0.00    -0.270 OA
ATOM     23  H   UNL     1      57.256 -33.562 -49.903  0.00  0.00    +0.000 HD
BRANCH  21  24
ATOM     24  C   UNL     1      55.606 -34.753 -48.353  0.00  0.00    +0.037 A 
ATOM     25  C   UNL     1      56.220 -33.690 -47.677  0.00  0.00    -0.050 A 
ATOM     26  C   UNL     1      56.055 -33.556 -46.297  0.00  0.00    -0.061 A 
ATOM     27  C   UNL     1      55.278 -34.474 -45.591  0.00  0.00    -0.062 A 
ATOM     28  C   UNL     1      54.656 -35.526 -46.262  0.00  0.00    -0.061 A 
ATOM     29  C   UNL     1      54.814 -35.663 -47.642  0.00  0.00    -0.050 A 
ENDBRANCH  21  24
ENDBRANCH  10  20
BRANCH   1  31
ATOM     30  C   UNL     1      59.175 -29.359 -56.441  0.00  0.00    -0.049 C 
ATOM     31  C   UNL     1      59.490 -29.690 -57.920  0.00  0.00    +0.010 C 
BRANCH  31  32
ATOM     32  N   UNL     1      59.700 -28.362 -58.513  0.00  0.00    -0.305 N 
ATOM     33  C   UNL     1      58.640 -27.399 -58.267  0.00  0.00    -0.013 C 
ATOM     34  C   UNL     1      60.324 -28.245 -59.813  0.00  0.00    -0.013 C 
ATOM     35  H   UNL     1      60.488 -28.075 -57.932  0.00  0.00    +0.000 HD
ENDBRANCH  31  32
ENDBRANCH   1  31
BRANCH  11  36
ATOM     36  O   UNL     1      56.233 -31.831 -52.014  0.00  0.00    -0.390 OA
ATOM     37  H   UNL     1      56.642 -30.955 -51.933  0.00  0.00    +0.000 HD
ENDBRANCH  11  36
TORSDOF 5
ENDMDL
MODEL 18
REMARK VINA RESULT:    -6.843     20.390     21.787
REMARK INTER + INTRA:          -9.409
REMARK INTER:                  -8.486
REMARK INTRA:                  -0.923
REMARK UNBOUND:                -0.765
REMARK  Name = cpd238.pdb
REMARK  10 active torsions:
REMARK  status: ('A' for Active; 'I' for Inactive)
REMARK    1  A    between atoms: C_1  and  C_2
REMARK    2  A    between atoms: C_2  and  C_3
REMARK    3  A    between atoms: C_2  and  N_32
REMARK    4  A    between atoms: C_12  and  N_13
REMARK    5  A    between atoms: C_14  and  C_16
REMARK    6  A    between atoms: C_22  and  O_23
REMARK    7  A    between atoms: C_25  and  C_26
REMARK    8  A    between atoms: C_30  and  C_31
REMARK    9  A    between atoms: N_32  and  C_33
REMARK   10  A    between atoms: N_32  and  C_34
REMARK                            x       y       z     vdW  Elec       q    Type
REMARK                         _______ _______ _______ _____ _____    ______ ____
ROOT
ATOM      1  C   UNL     1      41.615 -14.590 -33.938  0.00  0.00    -0.020 C 
ATOM      2  C   UNL     1      41.185 -16.064 -33.734  0.00  0.00    -0.048 C 
ATOM      3  C   UNL     1      42.185 -16.658 -32.760  0.00  0.00    -0.049 C 
ATOM      4  C   UNL     1      43.518 -16.064 -33.224  0.00  0.00    -0.032 C 
ATOM      5  C   UNL     1      44.119 -16.872 -34.418  0.00  0.00    -0.034 C 
ATOM      6  C   UNL     1      44.678 -18.213 -33.912  0.00  0.00    -0.049 C 
ATOM      7  C   UNL     1      45.296 -19.036 -35.032  0.00  0.00    -0.049 C 
ATOM      8  C   UNL     1      46.426 -18.274 -35.741  0.00  0.00    -0.034 C 
ATOM      9  C   UNL     1      47.103 -19.178 -36.798  0.00  0.00    -0.029 C 
ATOM     10  C   UNL     1      46.668 -18.934 -38.251  0.00  0.00    +0.050 C 
ATOM     11  C   UNL     1      45.232 -18.401 -38.321  0.00  0.00    +0.074 C 
ATOM     12  C   UNL     1      45.034 -17.093 -37.544  0.00  0.00    -0.019 C 
ATOM     13  C   UNL     1      45.949 -16.900 -36.297  0.00  0.00    -0.024 C 
ATOM     14  C   UNL     1      47.209 -16.085 -36.716  0.00  0.00    -0.059 C 
ATOM     15  C   UNL     1      45.222 -16.081 -35.157  0.00  0.00    -0.032 C 
ATOM     16  C   UNL     1      44.619 -14.752 -35.641  0.00  0.00    -0.049 C 
ATOM     17  C   UNL     1      44.166 -13.909 -34.459  0.00  0.00    -0.047 C 
ATOM     18  C   UNL     1      43.147 -14.570 -33.518  0.00  0.00    -0.025 C 
ATOM     19  C   UNL     1      43.241 -13.790 -32.169  0.00  0.00    -0.059 C 
ENDROOT
BRANCH  10  20
ATOM     20  N   UNL     1      46.816 -20.135 -39.072  0.00  0.00    -0.306 N 
ATOM     21  C   UNL     1      47.110 -20.072 -40.416  0.00  0.00    +0.244 C 
ATOM     22  O   UNL     1      47.333 -19.024 -41.012  0.00  0.00    -0.270 OA
ATOM     23  H   UNL     1      46.701 -21.017 -38.650  0.00  0.00    +0.000 HD
BRANCH  21  24
ATOM     24  C   UNL     1      47.172 -21.370 -41.139  0.00  0.00    +0.037 A 
ATOM     25  C   UNL     1      46.162 -21.773 -42.024  0.00  0.00    -0.050 A 
ATOM     26  C   UNL     1      46.272 -22.992 -42.695  0.00  0.00    -0.061 A 
ATOM     27  C   UNL     1      47.385 -23.808 -42.491  0.00  0.00    -0.062 A 
ATOM     28  C   UNL     1      48.397 -23.404 -41.620  0.00  0.00    -0.061 A 
ATOM     29  C   UNL     1      48.295 -22.184 -40.949  0.00  0.00    -0.050 A 
ENDBRANCH  21  24
ENDBRANCH  10  20
BRANCH   1  31
ATOM     30  C   UNL     1      41.170 -15.140 -36.402  0.00  0.00    -0.049 C 
ATOM     31  C   UNL     1      41.134 -14.033 -35.321  0.00  0.00    +0.010 C 
BRANCH  31  32
ATOM     32  N   UNL     1      39.776 -13.490 -35.457  0.00  0.00    -0.305 N 
ATOM     33  C   UNL     1      39.255 -12.823 -34.276  0.00  0.00    -0.013 C 
ATOM     34  C   UNL     1      38.784 -14.215 -36.221  0.00  0.00    -0.013 C 
ATOM     35  H   UNL     1      39.989 -12.754 -36.131  0.00  0.00    +0.000 HD
ENDBRANCH  31  32
ENDBRANCH   1  31
BRANCH  11  36
ATOM     36  O   UNL     1      44.830 -18.203 -39.683  0.00  0.00    -0.390 OA
ATOM     37  H   UNL     1      45.584 -18.371 -40.269  0.00  0.00    +0.000 HD
ENDBRANCH  11  36
TORSDOF 5
ENDMDL
MODEL 19
REMARK VINA RESULT:    -6.814     20.848     23.349
REMARK INTER + INTRA:          -9.371
REMARK INTER:                  -8.437
REMARK INTRA:                  -0.935
REMARK UNBOUND:                -0.765
REMARK  Name = cpd238.pdb
REMARK  10 active torsions:
REMARK  status: ('A' for Active; 'I' for Inactive)
REMARK    1  A    between atoms: C_1  and  C_2
REMARK    2  A    between atoms: C_2  and  C_3
REMARK    3  A    between atoms: C_2  and  N_32
REMARK    4  A    between atoms: C_12  and  N_13
REMARK    5  A    between atoms: C_14  and  C_16
REMARK    6  A    between atoms: C_22  and  O_23
REMARK    7  A    between atoms: C_25  and  C_26
REMARK    8  A    between atoms: C_30  and  C_31
REMARK    9  A    between atoms: N_32  and  C_33
REMARK   10  A    between atoms: N_32  and  C_34
REMARK                            x       y       z     vdW  Elec       q    Type
REMARK                         _______ _______ _______ _____ _____    ______ ____
ROOT
ATOM      1  C   UNL     1      47.068 -13.233 -40.447  0.00  0.00    -0.020 C 
ATOM      2  C   UNL     1      46.662 -12.858 -39.001  0.00  0.00    -0.048 C 
ATOM      3  C   UNL     1      47.755 -13.409 -38.105  0.00  0.00    -0.049 C 
ATOM      4  C   UNL     1      48.064 -14.771 -38.732  0.00  0.00    -0.032 C 
ATOM      5  C   UNL     1      47.053 -15.862 -38.257  0.00  0.00    -0.034 C 
ATOM      6  C   UNL     1      47.352 -16.254 -36.800  0.00  0.00    -0.049 C 
ATOM      7  C   UNL     1      46.407 -17.331 -36.290  0.00  0.00    -0.049 C 
ATOM      8  C   UNL     1      46.466 -18.597 -37.157  0.00  0.00    -0.034 C 
ATOM      9  C   UNL     1      45.578 -19.707 -36.548  0.00  0.00    -0.029 C 
ATOM     10  C   UNL     1      44.204 -19.891 -37.210  0.00  0.00    +0.050 C 
ATOM     11  C   UNL     1      43.698 -18.576 -37.818  0.00  0.00    +0.074 C 
ATOM     12  C   UNL     1      44.653 -17.989 -38.867  0.00  0.00    -0.019 C 
ATOM     13  C   UNL     1      46.165 -18.298 -38.655  0.00  0.00    -0.024 C 
ATOM     14  C   UNL     1      46.544 -19.561 -39.485  0.00  0.00    -0.059 C 
ATOM     15  C   UNL     1      47.082 -17.114 -39.163  0.00  0.00    -0.032 C 
ATOM     16  C   UNL     1      46.780 -16.675 -40.604  0.00  0.00    -0.049 C 
ATOM     17  C   UNL     1      47.853 -15.721 -41.108  0.00  0.00    -0.047 C 
ATOM     18  C   UNL     1      48.068 -14.453 -40.267  0.00  0.00    -0.025 C 
ATOM     19  C   UNL     1      49.494 -13.933 -40.633  0.00  0.00    -0.059 C 
ENDROOT
BRANCH  10  20
ATOM     20  N   UNL     1      43.221 -20.442 -36.280  0.00  0.00    -0.306 N 
ATOM     21  C   UNL     1      42.234 -21.313 -36.687  0.00  0.00    +0.244 C 
ATOM     22  O   UNL     1      42.140 -21.742 -37.831  0.00  0.00    -0.270 OA
ATOM     23  H   UNL     1      43.265 -20.183 -35.331  0.00  0.00    +0.000 HD
BRANCH  21  24
ATOM     24  C   UNL     1      41.266 -21.748 -35.645  0.00  0.00    +0.037 A 
ATOM     25  C   UNL     1      41.288 -21.219 -34.348  0.00  0.00    -0.050 A 
ATOM     26  C   UNL     1      40.347 -21.644 -33.407  0.00  0.00    -0.061 A 
ATOM     27  C   UNL     1      39.384 -22.589 -33.757  0.00  0.00    -0.062 A 
ATOM     28  C   UNL     1      39.351 -23.109 -35.051  0.00  0.00    -0.061 A 
ATOM     29  C   UNL     1      40.287 -22.686 -35.997  0.00  0.00    -0.050 A 
ENDBRANCH  21  24
ENDBRANCH  10  20
BRANCH   1  31
ATOM     30  C   UNL     1      44.516 -13.445 -40.571  0.00  0.00    -0.049 C 
ATOM     31  C   UNL     1      45.822 -13.324 -41.393  0.00  0.00    +0.010 C 
BRANCH  31  32
ATOM     32  N   UNL     1      45.524 -12.221 -42.317  0.00  0.00    -0.305 N 
ATOM     33  C   UNL     1      46.303 -12.215 -43.544  0.00  0.00    -0.013 C 
ATOM     34  C   UNL     1      45.221 -10.907 -41.795  0.00  0.00    -0.013 C 
ATOM     35  H   UNL     1      44.581 -12.511 -42.577  0.00  0.00    +0.000 HD
ENDBRANCH  31  32
ENDBRANCH   1  31
BRANCH  11  36
ATOM     36  O   UNL     1      42.405 -18.755 -38.409  0.00  0.00    -0.390 OA
ATOM     37  H   UNL     1      41.732 -18.340 -37.847  0.00  0.00    +0.000 HD
ENDBRANCH  11  36
TORSDOF 5
ENDMDL
MODEL 20
REMARK VINA RESULT:    -6.635      3.192      9.212
REMARK INTER + INTRA:          -9.145
REMARK INTER:                  -8.615
REMARK INTRA:                  -0.530
REMARK UNBOUND:                -0.765
REMARK  Name = cpd238.pdb
REMARK  10 active torsions:
REMARK  status: ('A' for Active; 'I' for Inactive)
REMARK    1  A    between atoms: C_1  and  C_2
REMARK    2  A    between atoms: C_2  and  C_3
REMARK    3  A    between atoms: C_2  and  N_32
REMARK    4  A    between atoms: C_12  and  N_13
REMARK    5  A    between atoms: C_14  and  C_16
REMARK    6  A    between atoms: C_22  and  O_23
REMARK    7  A    between atoms: C_25  and  C_26
REMARK    8  A    between atoms: C_30  and  C_31
REMARK    9  A    between atoms: N_32  and  C_33
REMARK   10  A    between atoms: N_32  and  C_34
REMARK                            x       y       z     vdW  Elec       q    Type
REMARK                         _______ _______ _______ _____ _____    ______ ____
ROOT
ATOM      1  C   UNL     1      34.267 -39.233 -29.191  0.00  0.00    -0.020 C 
ATOM      2  C   UNL     1      32.900 -39.241 -29.919  0.00  0.00    -0.048 C 
ATOM      3  C   UNL     1      33.196 -38.894 -31.365  0.00  0.00    -0.049 C 
ATOM      4  C   UNL     1      34.257 -37.796 -31.249  0.00  0.00    -0.032 C 
ATOM      5  C   UNL     1      33.608 -36.399 -30.992  0.00  0.00    -0.034 C 
ATOM      6  C   UNL     1      32.946 -35.884 -32.281  0.00  0.00    -0.049 C 
ATOM      7  C   UNL     1      32.313 -34.514 -32.094  0.00  0.00    -0.049 C 
ATOM      8  C   UNL     1      33.340 -33.472 -31.625  0.00  0.00    -0.034 C 
ATOM      9  C   UNL     1      32.688 -32.071 -31.550  0.00  0.00    -0.029 C 
ATOM     10  C   UNL     1      32.280 -31.607 -30.144  0.00  0.00    +0.050 C 
ATOM     11  C   UNL     1      31.939 -32.799 -29.241  0.00  0.00    +0.074 C 
ATOM     12  C   UNL     1      33.097 -33.794 -29.091  0.00  0.00    -0.019 C 
ATOM     13  C   UNL     1      34.058 -33.905 -30.312  0.00  0.00    -0.024 C 
ATOM     14  C   UNL     1      35.271 -32.953 -30.089  0.00  0.00    -0.059 C 
ATOM     15  C   UNL     1      34.636 -35.368 -30.473  0.00  0.00    -0.032 C 
ATOM     16  C   UNL     1      35.271 -35.924 -29.188  0.00  0.00    -0.049 C 
ATOM     17  C   UNL     1      36.023 -37.214 -29.479  0.00  0.00    -0.047 C 
ATOM     18  C   UNL     1      35.197 -38.341 -30.119  0.00  0.00    -0.025 C 
ATOM     19  C   UNL     1      36.229 -39.300 -30.791  0.00  0.00    -0.059 C 
ENDROOT
BRANCH  10  20
ATOM     20  N   UNL     1      31.171 -30.655 -30.186  0.00  0.00    -0.306 N 
ATOM     21  C   UNL     1      29.992 -30.932 -30.842  0.00  0.00    +0.244 C 
ATOM     22  O   UNL     1      29.753 -32.007 -31.380  0.00  0.00    -0.270 OA
ATOM     23  H   UNL     1      31.271 -29.787 -29.731  0.00  0.00    +0.000 HD
BRANCH  21  24
ATOM     24  C   UNL     1      28.973 -29.849 -30.855  0.00  0.00    +0.037 A 
ATOM     25  C   UNL     1      28.153 -29.592 -29.748  0.00  0.00    -0.050 A 
ATOM     26  C   UNL     1      27.223 -28.551 -29.799  0.00  0.00    -0.061 A 
ATOM     27  C   UNL     1      27.112 -27.765 -30.946  0.00  0.00    -0.062 A 
ATOM     28  C   UNL     1      27.935 -28.011 -32.045  0.00  0.00    -0.061 A 
ATOM     29  C   UNL     1      28.870 -29.047 -31.998  0.00  0.00    -0.050 A 
ENDBRANCH  21  24
ENDBRANCH  10  20
BRANCH   1  31
ATOM     30  C   UNL     1      32.711 -38.339 -27.360  0.00  0.00    -0.049 C 
ATOM     31  C   UNL     1      34.106 -38.937 -27.661  0.00  0.00    +0.010 C 
BRANCH  31  32
ATOM     32  N   UNL     1      34.205 -40.036 -26.690  0.00  0.00    -0.305 N 
ATOM     33  C   UNL     1      34.337 -41.362 -27.269  0.00  0.00    -0.013 C 
ATOM     34  C   UNL     1      33.429 -39.990 -25.470  0.00  0.00    -0.013 C 
ATOM     35  H   UNL     1      35.120 -39.798 -26.306  0.00  0.00    +0.000 HD
ENDBRANCH  31  32
ENDBRANCH   1  31
BRANCH  11  36
ATOM     36  O   UNL     1      31.535 -32.351 -27.941  0.00  0.00    -0.390 OA
ATOM     37  H   UNL     1      32.317 -32.248 -27.377  0.00  0.00    +0.000 HD
ENDBRANCH  11  36
TORSDOF 5
ENDMDL
