@<TRIPOS>MOLECULE
*****
 34 38 0 0 0
SMALL
GASTEIGER

@<TRIPOS>ATOM
      1 C           2.5443    0.4900    0.0000 C.3     1  UNL1        0.0173
      2 C           1.6965    0.0005    0.0000 C.3     1  UNL1        0.0576
      3 C           0.8487    0.4900    0.0000 C.3     1  UNL1        0.0147
      4 C           0.8481    1.4689    0.0000 C.3     1  UNL1        0.0013
      5 C          -0.0000    1.9586    0.0000 C.3     1  UNL1        0.0000
      6 C          -0.8481    0.4897    0.0000 C.3     1  UNL1        0.0000
      7 C          -1.6968   -0.0003    0.0000 C.3     1  UNL1        0.0000
      8 C          -2.5455    0.4896    0.0000 C.3     1  UNL1        0.0000
      9 C          -3.3941   -0.0004    0.0000 C.3     1  UNL1        0.0001
     10 C          -3.3942   -0.9803    0.0000 C.3     1  UNL1        0.0019
     11 C          -4.2425   -1.4698    0.0000 C.3     1  UNL1        0.0243
     12 C          -4.2423   -2.4493    0.0000 C.3     1  UNL1        0.1258
     13 N          -5.0905   -2.9390    0.0000 N.am    1  UNL1       -0.2008
     14 C          -5.7459   -2.2111    0.0000 C.2     1  UNL1        0.2648
     15 O          -5.4432   -1.2796    0.0000 O.2     1  UNL1       -0.2684
     16 C          -6.7039   -2.4148    0.0000 C.ar    1  UNL1        0.0550
     17 C          -7.0066   -3.3463    0.0000 C.ar    1  UNL1        0.0046
     18 C          -7.9647   -3.5499    0.0000 C.ar    1  UNL1        0.0001
     19 C          -8.6201   -2.8221    0.0000 C.ar    1  UNL1        0.0000
     20 C          -8.3174   -1.8905    0.0000 C.ar    1  UNL1        0.0001
     21 C          -7.3593   -1.6869    0.0000 C.ar    1  UNL1        0.0046
     22 C          -3.3936   -2.9393    0.0000 C.3     1  UNL1        0.1718
     23 O          -3.3937   -3.9393    0.0000 O.3     1  UNL1       -0.2213
     24 C          -2.5452   -2.4498    0.0000 C.3     1  UNL1        0.0347
     25 C          -2.5455   -1.4703    0.0000 C.3     1  UNL1        0.0026
     26 C          -1.6795   -1.9703    0.0000 C.3     1  UNL1        0.0001
     27 C          -1.6968   -0.9803    0.0000 C.3     1  UNL1        0.0001
     28 C          -0.8487   -1.4700    0.0000 C.3     1  UNL1        0.0000
     29 C          -0.0000   -0.9800    0.0000 C.3     1  UNL1        0.0000
     30 C          -0.0000   -0.0000    0.0000 C.3     1  UNL1        0.0012
     31 C           0.8660   -0.5000    0.0000 C.3     1  UNL1        0.0000
     32 N           1.6965   -0.9784    0.0000 N.3     1  UNL1       -0.2716
     33 C           0.8487   -1.4679    0.0000 C.3     1  UNL1        0.0896
     34 C           2.5443   -1.4679    0.0000 C.3     1  UNL1        0.0896
@<TRIPOS>BOND
     1     1     2    1
     2     2     3    1
     3     3     4    1
     4     4     5    1
     5     5     6    1
     6     6     7    1
     7     7     8    1
     8     8     9    1
     9     9    10    1
    10    10    11    1
    11    11    12    1
    12    12    13    1
    13    13    14   am
    14    14    15    2
    15    14    16    1
    16    16    17   ar
    17    17    18   ar
    18    18    19   ar
    19    19    20   ar
    20    20    21   ar
    21    16    21   ar
    22    12    22    1
    23    22    23    1
    24    22    24    1
    25    24    25    1
    26    10    25    1
    27    25    26    1
    28    25    27    1
    29     7    27    1
    30    27    28    1
    31    28    29    1
    32    29    30    1
    33     3    30    1
    34     6    30    1
    35    30    31    1
    36     2    32    1
    37    32    33    1
    38    32    34    1
