REMARK  Name = cpd238.pdb
REMARK  10 active torsions:
REMARK  status: ('A' for Active; 'I' for Inactive)
REMARK    1  A    between atoms: C_1  and  C_2
REMARK    2  A    between atoms: C_2  and  C_3
REMARK    3  A    between atoms: C_2  and  N_32
REMARK    4  A    between atoms: C_12  and  N_13
REMARK    5  A    between atoms: C_14  and  C_16
REMARK    6  A    between atoms: C_22  and  O_23
REMARK    7  A    between atoms: C_25  and  C_26
REMARK    8  A    between atoms: C_30  and  C_31
REMARK    9  A    between atoms: N_32  and  C_33
REMARK   10  A    between atoms: N_32  and  C_34
REMARK                            x       y       z     vdW  Elec       q    Type
REMARK                         _______ _______ _______ _____ _____    ______ ____
ROOT
ATOM      1  C   UNL     1       2.127   0.761  -0.512  0.00  0.00    -0.020 C 
ATOM      2  C   UNL     1       1.133   1.782  -1.117  0.00  0.00    -0.048 C 
ATOM      3  C   UNL     1       0.461   2.459   0.062  0.00  0.00    -0.049 C 
ATOM      4  C   UNL     1       0.231   1.304   1.041  0.00  0.00    -0.032 C 
ATOM      5  C   UNL     1      -1.066   0.508   0.691  0.00  0.00    -0.034 C 
ATOM      6  C   UNL     1      -2.306   1.332   1.079  0.00  0.00    -0.049 C 
ATOM      7  C   UNL     1      -3.602   0.595   0.778  0.00  0.00    -0.049 C 
ATOM      8  C   UNL     1      -3.669  -0.757   1.504  0.00  0.00    -0.034 C 
ATOM      9  C   UNL     1      -5.042  -1.428   1.264  0.00  0.00    -0.029 C 
ATOM     10  C   UNL     1      -5.059  -2.535   0.199  0.00  0.00    +0.050 C 
ATOM     11  C   UNL     1      -3.983  -2.298  -0.868  0.00  0.00    +0.074 C 
ATOM     12  C   UNL     1      -2.564  -2.222  -0.289  0.00  0.00    -0.019 C 
ATOM     13  C   UNL     1      -2.453  -1.668   1.163  0.00  0.00    -0.024 C 
ATOM     14  C   UNL     1      -2.451  -2.864   2.162  0.00  0.00    -0.059 C 
ATOM     15  C   UNL     1      -1.105  -0.872   1.386  0.00  0.00    -0.032 C 
ATOM     16  C   UNL     1       0.150  -1.657   0.971  0.00  0.00    -0.049 C 
ATOM     17  C   UNL     1       1.407  -0.942   1.444  0.00  0.00    -0.047 C 
ATOM     18  C   UNL     1       1.577   0.505   0.956  0.00  0.00    -0.025 C 
ATOM     19  C   UNL     1       2.582   1.175   1.945  0.00  0.00    -0.059 C 
ENDROOT
BRANCH  10  20
ATOM     20  N   UNL     1      -6.377  -2.677  -0.417  0.00  0.00    -0.306 N 
ATOM     21  C   UNL     1      -7.464  -3.158   0.280  0.00  0.00    +0.244 C 
ATOM     22  O   UNL     1      -7.432  -3.440   1.472  0.00  0.00    -0.270 OA
ATOM     23  H   UNL     1      -6.492  -2.421  -1.361  0.00  0.00    +0.000 HD
BRANCH  21  24
ATOM     24  C   UNL     1      -8.728  -3.306  -0.489  0.00  0.00    +0.037 A 
ATOM     25  C   UNL     1      -8.732  -3.658  -1.845  0.00  0.00    -0.050 A 
ATOM     26  C   UNL     1      -9.945  -3.804  -2.522  0.00  0.00    -0.061 A 
ATOM     27  C   UNL     1     -11.151  -3.604  -1.851  0.00  0.00    -0.062 A 
ATOM     28  C   UNL     1     -11.151  -3.265  -0.498  0.00  0.00    -0.061 A 
ATOM     29  C   UNL     1      -9.942  -3.122   0.185  0.00  0.00    -0.050 A 
ENDBRANCH  21  24
ENDBRANCH  10  20
BRANCH   1  31
ATOM     30  C   UNL     1       2.687   0.110  -2.927  0.00  0.00    -0.049 C 
ATOM     31  C   UNL     1       2.416  -0.421  -1.499  0.00  0.00    +0.010 C 
BRANCH  31  32
ATOM     32  N   UNL     1       3.562  -1.309  -1.259  0.00  0.00    -0.305 N 
ATOM     33  C   UNL     1       3.247  -2.727  -1.213  0.00  0.00    -0.013 C 
ATOM     34  C   UNL     1       4.611  -0.900  -0.351  0.00  0.00    -0.013 C 
ATOM     35  H   UNL     1       4.046  -1.151  -2.143  0.00  0.00    +0.000 HD
ENDBRANCH  31  32
ENDBRANCH   1  31
BRANCH  11  36
ATOM     36  O   UNL     1      -4.027  -3.323  -1.869  0.00  0.00    -0.390 OA
ATOM     37  H   UNL     1      -3.823  -4.180  -1.463  0.00  0.00    +0.000 HD
ENDBRANCH  11  36
TORSDOF 5
