@<TRIPOS>MOLECULE
*****
 25 28 0 0 0
SMALL
GASTEIGER

@<TRIPOS>ATOM
      1 C           0.0000   -1.0000    0.0000 C.ar    1  UNL1        0.0000
      2 C          -0.8660   -1.5000    0.0000 C.ar    1  UNL1        0.0000
      3 C          -1.7321   -1.0000    0.0000 C.ar    1  UNL1        0.0016
      4 C          -1.7321   -0.0000    0.0000 C.ar    1  UNL1        0.0194
      5 C          -2.5981    0.5000    0.0000 C.ar    1  UNL1        0.1030
      6 C          -3.4641   -0.0000    0.0000 C.ar    1  UNL1        0.0239
      7 C          -4.3301    0.5000    0.0000 C.ar    1  UNL1        0.0392
      8 C          -4.3301    1.5000    0.0000 C.ar    1  UNL1        0.1693
      9 N          -5.1962    2.0000    0.0000 N.pl3   1  UNL1       -0.2174
     10 C          -6.0622    1.5000    0.0000 C.3     1  UNL1        0.1312
     11 C          -6.0622    0.5000    0.0000 C.3     1  UNL1        0.0960
     12 N          -6.9282   -0.0000    0.0000 N.3     1  UNL1       -0.2671
     13 C          -6.9282   -1.0000    0.0000 C.3     1  UNL1        0.0771
     14 C          -7.7942   -1.5000    0.0000 C.3     1  UNL1        0.0434
     15 C          -8.6603   -1.0000    0.0000 C.ar    1  UNL1       -0.0234
     16 C          -9.5263   -1.5000    0.0000 C.ar    1  UNL1       -0.0045
     17 C         -10.3923   -1.0000    0.0000 C.ar    1  UNL1       -0.0003
     18 C         -10.3923   -0.0000    0.0000 C.ar    1  UNL1       -0.0003
     19 C          -9.5263    0.5000    0.0000 C.ar    1  UNL1       -0.0032
     20 C          -8.6603   -0.0000    0.0000 C.ar    1  UNL1       -0.0101
     21 C          -7.7942    0.5000    0.0000 C.3     1  UNL1        0.0989
     22 N          -3.4641    2.0000    0.0000 N.ar    1  UNL1       -0.1314
     23 N          -2.5981    1.5000    0.0000 N.ar    1  UNL1       -0.1467
     24 C          -0.8660    0.5000    0.0000 C.ar    1  UNL1        0.0016
     25 C          -0.0000   -0.0000    0.0000 C.ar    1  UNL1        0.0000
@<TRIPOS>BOND
     1     1     2   ar
     2     2     3   ar
     3     3     4   ar
     4     4     5    1
     5     5     6   ar
     6     6     7   ar
     7     7     8   ar
     8     8     9    1
     9     9    10    1
    10    10    11    1
    11    11    12    1
    12    12    13    1
    13    13    14    1
    14    14    15    1
    15    15    16   ar
    16    16    17   ar
    17    17    18   ar
    18    18    19   ar
    19    19    20   ar
    20    15    20   ar
    21    20    21    1
    22    12    21    1
    23     8    22   ar
    24    22    23   ar
    25     5    23   ar
    26     4    24   ar
    27    24    25   ar
    28     1    25   ar
