REMARK  Name = cpd265.pdb
REMARK  5 active torsions:
REMARK  status: ('A' for Active; 'I' for Inactive)
REMARK    1  A    between atoms: C_4  and  C_5
REMARK    2  A    between atoms: C_8  and  N_9
REMARK    3  A    between atoms: N_9  and  C_10
REMARK    4  A    between atoms: C_10  and  C_11
REMARK    5  A    between atoms: C_11  and  N_12
REMARK                            x       y       z     vdW  Elec       q    Type
REMARK                         _______ _______ _______ _____ _____    ______ ____
ROOT
ATOM      1  N   UNL     1      -4.973   2.280  -0.468  0.00  0.00    -0.326 N 
ATOM      2  H   UNL     1      -5.141   3.125  -0.945  0.00  0.00    +0.000 HD
ENDROOT
BRANCH   1   6
ATOM      3  C   UNL     1      -1.186   0.591  -0.073  0.00  0.00    +0.093 A 
ATOM      4  C   UNL     1      -2.059   0.064  -1.016  0.00  0.00    -0.031 A 
ATOM      5  C   UNL     1      -3.331   0.618  -1.161  0.00  0.00    -0.018 A 
ATOM      6  C   UNL     1      -3.704   1.685  -0.364  0.00  0.00    +0.141 A 
ATOM      7  N   UNL     1      -2.833   2.202   0.520  0.00  0.00    -0.134 NA
ATOM      8  N   UNL     1      -1.575   1.650   0.673  0.00  0.00    -0.147 NA
BRANCH   3  12
ATOM      9  C   UNL     1       2.802  -0.878   0.635  0.00  0.00    -0.062 A 
ATOM     10  C   UNL     1       1.819  -1.741   0.161  0.00  0.00    -0.061 A 
ATOM     11  C   UNL     1       0.521  -1.269  -0.067  0.00  0.00    -0.053 A 
ATOM     12  C   UNL     1       0.176   0.076   0.167  0.00  0.00    +0.002 A 
ATOM     13  C   UNL     1       1.191   0.923   0.654  0.00  0.00    -0.053 A 
ATOM     14  C   UNL     1       2.488   0.454   0.884  0.00  0.00    -0.061 A 
ENDBRANCH   3  12
ENDBRANCH   1   6
BRANCH   1  15
ATOM     15  C   UNL     1      -6.027   1.503   0.215  0.00  0.00    +0.023 C 
BRANCH  15  16
ATOM     16  C   UNL     1      -6.670   0.437  -0.697  0.00  0.00    +0.015 C 
BRANCH  16  17
ATOM     17  N   UNL     1      -7.872  -0.198  -0.117  0.00  0.00    -0.296 N 
ATOM     18  C   UNL     1      -8.197  -1.439  -0.841  0.00  0.00    +0.003 C 
ATOM     19  C   UNL     1      -9.316  -2.208  -0.126  0.00  0.00    -0.015 C 
ATOM     20  C   UNL     1     -10.502  -1.333   0.183  0.00  0.00    -0.042 A 
ATOM     21  C   UNL     1     -11.738  -1.908   0.506  0.00  0.00    -0.058 A 
ATOM     22  C   UNL     1     -12.830  -1.100   0.820  0.00  0.00    -0.061 A 
ATOM     23  C   UNL     1     -12.693   0.286   0.820  0.00  0.00    -0.061 A 
ATOM     24  C   UNL     1     -11.461   0.866   0.512  0.00  0.00    -0.057 A 
ATOM     25  C   UNL     1     -10.352   0.064   0.205  0.00  0.00    -0.030 A 
ATOM     26  C   UNL     1      -9.035   0.715  -0.168  0.00  0.00    +0.024 C 
ATOM     27  H   UNL     1      -7.667  -0.415   0.858  0.00  0.00    +0.000 HD
ENDBRANCH  16  17
ENDBRANCH  15  16
ENDBRANCH   1  15
TORSDOF 5
