MODEL 1
REMARK VINA RESULT:    -9.057      0.000      0.000
REMARK INTER + INTRA:         -12.222
REMARK INTER:                 -11.705
REMARK INTRA:                  -0.517
REMARK UNBOUND:                -0.517
REMARK  Name = cpd265.pdb
REMARK  5 active torsions:
REMARK  status: ('A' for Active; 'I' for Inactive)
REMARK    1  A    between atoms: C_4  and  C_5
REMARK    2  A    between atoms: C_8  and  N_9
REMARK    3  A    between atoms: N_9  and  C_10
REMARK    4  A    between atoms: C_10  and  C_11
REMARK    5  A    between atoms: C_11  and  N_12
REMARK                            x       y       z     vdW  Elec       q    Type
REMARK                         _______ _______ _______ _____ _____    ______ ____
ROOT
ATOM      1  N   UNL     1      40.808 -35.486 -31.310  0.00  0.00    -0.326 N 
ATOM      2  H   UNL     1      40.968 -34.570 -30.987  0.00  0.00    +0.000 HD
ENDROOT
BRANCH   1   6
ATOM      3  C   UNL     1      43.000 -38.771 -29.985  0.00  0.00    +0.093 A 
ATOM      4  C   UNL     1      41.663 -38.668 -29.622  0.00  0.00    -0.031 A 
ATOM      5  C   UNL     1      40.915 -37.574 -30.058  0.00  0.00    -0.018 A 
ATOM      6  C   UNL     1      41.515 -36.609 -30.845  0.00  0.00    +0.141 A 
ATOM      7  N   UNL     1      42.802 -36.743 -31.212  0.00  0.00    -0.134 NA
ATOM      8  N   UNL     1      43.549 -37.821 -30.775  0.00  0.00    -0.147 NA
BRANCH   3  12
ATOM      9  C   UNL     1      45.573 -42.024 -28.816  0.00  0.00    -0.062 A 
ATOM     10  C   UNL     1      45.105 -41.131 -27.857  0.00  0.00    -0.061 A 
ATOM     11  C   UNL     1      44.272 -40.071 -28.233  0.00  0.00    -0.053 A 
ATOM     12  C   UNL     1      43.882 -39.881 -29.573  0.00  0.00    +0.002 A 
ATOM     13  C   UNL     1      44.379 -40.796 -30.521  0.00  0.00    -0.053 A 
ATOM     14  C   UNL     1      45.212 -41.856 -30.149  0.00  0.00    -0.061 A 
ENDBRANCH   3  12
ENDBRANCH   1   6
BRANCH   1  15
ATOM     15  C   UNL     1      39.800 -35.829 -32.333  0.00  0.00    +0.023 C 
BRANCH  15  16
ATOM     16  C   UNL     1      38.525 -34.965 -32.229  0.00  0.00    +0.015 C 
BRANCH  16  17
ATOM     17  N   UNL     1      37.742 -35.204 -30.998  0.00  0.00    -0.296 N 
ATOM     18  C   UNL     1      37.684 -36.645 -30.698  0.00  0.00    +0.003 C 
ATOM     19  C   UNL     1      37.049 -36.888 -29.322  0.00  0.00    -0.015 C 
ATOM     20  C   UNL     1      35.741 -36.160 -29.161  0.00  0.00    -0.042 A 
ATOM     21  C   UNL     1      34.852 -36.523 -28.141  0.00  0.00    -0.058 A 
ATOM     22  C   UNL     1      33.653 -35.833 -27.973  0.00  0.00    -0.061 A 
ATOM     23  C   UNL     1      33.336 -34.771 -28.817  0.00  0.00    -0.061 A 
ATOM     24  C   UNL     1      34.223 -34.395 -29.828  0.00  0.00    -0.057 A 
ATOM     25  C   UNL     1      35.438 -35.075 -30.001  0.00  0.00    -0.030 A 
ATOM     26  C   UNL     1      36.366 -34.678 -31.132  0.00  0.00    +0.024 C 
ATOM     27  H   UNL     1      38.209 -34.714 -30.235  0.00  0.00    +0.000 HD
ENDBRANCH  16  17
ENDBRANCH  15  16
ENDBRANCH   1  15
TORSDOF 5
ENDMDL
MODEL 2
REMARK VINA RESULT:    -8.981      1.047      2.060
REMARK INTER + INTRA:         -12.124
REMARK INTER:                 -11.627
REMARK INTRA:                  -0.497
REMARK UNBOUND:                -0.517
REMARK  Name = cpd265.pdb
REMARK  5 active torsions:
REMARK  status: ('A' for Active; 'I' for Inactive)
REMARK    1  A    between atoms: C_4  and  C_5
REMARK    2  A    between atoms: C_8  and  N_9
REMARK    3  A    between atoms: N_9  and  C_10
REMARK    4  A    between atoms: C_10  and  C_11
REMARK    5  A    between atoms: C_11  and  N_12
REMARK                            x       y       z     vdW  Elec       q    Type
REMARK                         _______ _______ _______ _____ _____    ______ ____
ROOT
ATOM      1  N   UNL     1      40.426 -35.997 -30.992  0.00  0.00    -0.326 N 
ATOM      2  H   UNL     1      40.710 -35.068 -31.153  0.00  0.00    +0.000 HD
ENDROOT
BRANCH   1   6
ATOM      3  C   UNL     1      43.018 -39.110 -30.018  0.00  0.00    +0.093 A 
ATOM      4  C   UNL     1      43.126 -38.515 -31.268  0.00  0.00    -0.031 A 
ATOM      5  C   UNL     1      42.266 -37.471 -31.610  0.00  0.00    -0.018 A 
ATOM      6  C   UNL     1      41.318 -37.043 -30.698  0.00  0.00    +0.141 A 
ATOM      7  N   UNL     1      41.251 -37.610 -29.481  0.00  0.00    -0.134 NA
ATOM      8  N   UNL     1      42.095 -38.650 -29.142  0.00  0.00    -0.147 NA
BRANCH   3  12
ATOM      9  C   UNL     1      45.505 -42.348 -28.643  0.00  0.00    -0.062 A 
ATOM     10  C   UNL     1      45.263 -42.189 -30.004  0.00  0.00    -0.061 A 
ATOM     11  C   UNL     1      44.453 -41.140 -30.455  0.00  0.00    -0.053 A 
ATOM     12  C   UNL     1      43.870 -40.223 -29.559  0.00  0.00    +0.002 A 
ATOM     13  C   UNL     1      44.127 -40.416 -28.187  0.00  0.00    -0.053 A 
ATOM     14  C   UNL     1      44.935 -41.463 -27.734  0.00  0.00    -0.061 A 
ENDBRANCH   3  12
ENDBRANCH   1   6
BRANCH   1  15
ATOM     15  C   UNL     1      39.018 -36.441 -31.032  0.00  0.00    +0.023 C 
BRANCH  15  16
ATOM     16  C   UNL     1      38.072 -35.374 -31.624  0.00  0.00    +0.015 C 
BRANCH  16  17
ATOM     17  N   UNL     1      36.702 -35.419 -31.071  0.00  0.00    -0.296 N 
ATOM     18  C   UNL     1      36.165 -34.056 -30.920  0.00  0.00    +0.003 C 
ATOM     19  C   UNL     1      34.678 -34.098 -30.540  0.00  0.00    -0.015 C 
ATOM     20  C   UNL     1      34.414 -35.010 -29.371  0.00  0.00    -0.042 A 
ATOM     21  C   UNL     1      33.209 -34.917 -28.662  0.00  0.00    -0.058 A 
ATOM     22  C   UNL     1      32.950 -35.780 -27.598  0.00  0.00    -0.061 A 
ATOM     23  C   UNL     1      33.889 -36.744 -27.239  0.00  0.00    -0.061 A 
ATOM     24  C   UNL     1      35.086 -36.851 -27.949  0.00  0.00    -0.057 A 
ATOM     25  C   UNL     1      35.354 -35.996 -29.029  0.00  0.00    -0.030 A 
ATOM     26  C   UNL     1      36.678 -36.102 -29.759  0.00  0.00    +0.024 C 
ATOM     27  H   UNL     1      36.122 -35.944 -31.725  0.00  0.00    +0.000 HD
ENDBRANCH  16  17
ENDBRANCH  15  16
ENDBRANCH   1  15
TORSDOF 5
ENDMDL
MODEL 3
REMARK VINA RESULT:    -8.401      1.571      2.483
REMARK INTER + INTRA:         -11.374
REMARK INTER:                 -10.768
REMARK INTRA:                  -0.607
REMARK UNBOUND:                -0.517
REMARK  Name = cpd265.pdb
REMARK  5 active torsions:
REMARK  status: ('A' for Active; 'I' for Inactive)
REMARK    1  A    between atoms: C_4  and  C_5
REMARK    2  A    between atoms: C_8  and  N_9
REMARK    3  A    between atoms: N_9  and  C_10
REMARK    4  A    between atoms: C_10  and  C_11
REMARK    5  A    between atoms: C_11  and  N_12
REMARK                            x       y       z     vdW  Elec       q    Type
REMARK                         _______ _______ _______ _____ _____    ______ ____
ROOT
ATOM      1  N   UNL     1      40.820 -35.229 -31.181  0.00  0.00    -0.326 N 
ATOM      2  H   UNL     1      40.853 -34.357 -30.723  0.00  0.00    +0.000 HD
ENDROOT
BRANCH   1   6
ATOM      3  C   UNL     1      43.495 -38.305 -30.325  0.00  0.00    +0.093 A 
ATOM      4  C   UNL     1      42.141 -38.600 -30.410  0.00  0.00    -0.031 A 
ATOM      5  C   UNL     1      41.231 -37.582 -30.696  0.00  0.00    -0.018 A 
ATOM      6  C   UNL     1      41.692 -36.292 -30.891  0.00  0.00    +0.141 A 
ATOM      7  N   UNL     1      43.010 -36.033 -30.837  0.00  0.00    -0.134 NA
ATOM      8  N   UNL     1      43.914 -37.038 -30.546  0.00  0.00    -0.147 NA
BRANCH   3  12
ATOM      9  C   UNL     1      46.563 -41.194 -29.426  0.00  0.00    -0.062 A 
ATOM     10  C   UNL     1      45.391 -41.600 -30.058  0.00  0.00    -0.061 A 
ATOM     11  C   UNL     1      44.391 -40.666 -30.349  0.00  0.00    -0.053 A 
ATOM     12  C   UNL     1      44.538 -39.304 -30.021  0.00  0.00    +0.002 A 
ATOM     13  C   UNL     1      45.732 -38.925 -29.375  0.00  0.00    -0.053 A 
ATOM     14  C   UNL     1      46.732 -39.857 -29.082  0.00  0.00    -0.061 A 
ENDBRANCH   3  12
ENDBRANCH   1   6
BRANCH   1  15
ATOM     15  C   UNL     1      39.848 -35.559 -32.243  0.00  0.00    +0.023 C 
BRANCH  15  16
ATOM     16  C   UNL     1      38.451 -34.957 -31.983  0.00  0.00    +0.015 C 
BRANCH  16  17
ATOM     17  N   UNL     1      37.399 -35.968 -31.750  0.00  0.00    -0.296 N 
ATOM     18  C   UNL     1      36.149 -35.320 -31.318  0.00  0.00    +0.003 C 
ATOM     19  C   UNL     1      34.999 -36.334 -31.269  0.00  0.00    -0.015 C 
ATOM     20  C   UNL     1      35.364 -37.572 -30.493  0.00  0.00    -0.042 A 
ATOM     21  C   UNL     1      34.363 -38.443 -30.041  0.00  0.00    -0.058 A 
ATOM     22  C   UNL     1      34.700 -39.604 -29.347  0.00  0.00    -0.061 A 
ATOM     23  C   UNL     1      36.038 -39.907 -29.106  0.00  0.00    -0.061 A 
ATOM     24  C   UNL     1      37.042 -39.052 -29.565  0.00  0.00    -0.057 A 
ATOM     25  C   UNL     1      36.716 -37.886 -30.274  0.00  0.00    -0.030 A 
ATOM     26  C   UNL     1      37.819 -36.949 -30.725  0.00  0.00    +0.024 C 
ATOM     27  H   UNL     1      37.243 -36.459 -32.630  0.00  0.00    +0.000 HD
ENDBRANCH  16  17
ENDBRANCH  15  16
ENDBRANCH   1  15
TORSDOF 5
ENDMDL
MODEL 4
REMARK VINA RESULT:    -8.242      2.265      2.877
REMARK INTER + INTRA:         -11.169
REMARK INTER:                 -10.481
REMARK INTRA:                  -0.688
REMARK UNBOUND:                -0.517
REMARK  Name = cpd265.pdb
REMARK  5 active torsions:
REMARK  status: ('A' for Active; 'I' for Inactive)
REMARK    1  A    between atoms: C_4  and  C_5
REMARK    2  A    between atoms: C_8  and  N_9
REMARK    3  A    between atoms: N_9  and  C_10
REMARK    4  A    between atoms: C_10  and  C_11
REMARK    5  A    between atoms: C_11  and  N_12
REMARK                            x       y       z     vdW  Elec       q    Type
REMARK                         _______ _______ _______ _____ _____    ______ ____
ROOT
ATOM      1  N   UNL     1      40.000 -36.002 -30.970  0.00  0.00    -0.326 N 
ATOM      2  H   UNL     1      40.134 -35.028 -30.910  0.00  0.00    +0.000 HD
ENDROOT
BRANCH   1   6
ATOM      3  C   UNL     1      42.851 -38.839 -29.888  0.00  0.00    +0.093 A 
ATOM      4  C   UNL     1      43.150 -37.945 -30.907  0.00  0.00    -0.031 A 
ATOM      5  C   UNL     1      42.207 -36.988 -31.282  0.00  0.00    -0.018 A 
ATOM      6  C   UNL     1      40.987 -36.944 -30.632  0.00  0.00    +0.141 A 
ATOM      7  N   UNL     1      40.729 -37.797 -29.625  0.00  0.00    -0.134 NA
ATOM      8  N   UNL     1      41.658 -38.752 -29.257  0.00  0.00    -0.147 NA
BRANCH   3  12
ATOM      9  C   UNL     1      45.542 -41.930 -28.557  0.00  0.00    -0.062 A 
ATOM     10  C   UNL     1      44.956 -41.074 -27.630  0.00  0.00    -0.061 A 
ATOM     11  C   UNL     1      44.084 -40.066 -28.058  0.00  0.00    -0.053 A 
ATOM     12  C   UNL     1      43.772 -39.893 -29.420  0.00  0.00    +0.002 A 
ATOM     13  C   UNL     1      44.388 -40.770 -30.335  0.00  0.00    -0.053 A 
ATOM     14  C   UNL     1      45.260 -41.777 -29.911  0.00  0.00    -0.061 A 
ENDBRANCH   3  12
ENDBRANCH   1   6
BRANCH   1  15
ATOM     15  C   UNL     1      38.742 -36.628 -31.424  0.00  0.00    +0.023 C 
BRANCH  15  16
ATOM     16  C   UNL     1      37.489 -35.947 -30.836  0.00  0.00    +0.015 C 
BRANCH  16  17
ATOM     17  N   UNL     1      36.622 -36.859 -30.062  0.00  0.00    -0.296 N 
ATOM     18  C   UNL     1      37.236 -37.169 -28.759  0.00  0.00    +0.003 C 
ATOM     19  C   UNL     1      36.259 -37.949 -27.869  0.00  0.00    -0.015 C 
ATOM     20  C   UNL     1      35.662 -39.135 -28.580  0.00  0.00    -0.042 A 
ATOM     21  C   UNL     1      35.035 -40.153 -27.850  0.00  0.00    -0.058 A 
ATOM     22  C   UNL     1      34.457 -41.238 -28.507  0.00  0.00    -0.061 A 
ATOM     23  C   UNL     1      34.495 -41.309 -29.898  0.00  0.00    -0.061 A 
ATOM     24  C   UNL     1      35.107 -40.292 -30.633  0.00  0.00    -0.057 A 
ATOM     25  C   UNL     1      35.683 -39.190 -29.984  0.00  0.00    -0.030 A 
ATOM     26  C   UNL     1      36.379 -38.118 -30.799  0.00  0.00    +0.024 C 
ATOM     27  H   UNL     1      35.730 -36.387 -29.914  0.00  0.00    +0.000 HD
ENDBRANCH  16  17
ENDBRANCH  15  16
ENDBRANCH   1  15
TORSDOF 5
ENDMDL
MODEL 5
REMARK VINA RESULT:    -8.127      2.984      5.706
REMARK INTER + INTRA:         -11.020
REMARK INTER:                 -10.395
REMARK INTRA:                  -0.625
REMARK UNBOUND:                -0.517
REMARK  Name = cpd265.pdb
REMARK  5 active torsions:
REMARK  status: ('A' for Active; 'I' for Inactive)
REMARK    1  A    between atoms: C_4  and  C_5
REMARK    2  A    between atoms: C_8  and  N_9
REMARK    3  A    between atoms: N_9  and  C_10
REMARK    4  A    between atoms: C_10  and  C_11
REMARK    5  A    between atoms: C_11  and  N_12
REMARK                            x       y       z     vdW  Elec       q    Type
REMARK                         _______ _______ _______ _____ _____    ______ ____
ROOT
ATOM      1  N   UNL     1      35.225 -36.952 -27.699  0.00  0.00    -0.326 N 
ATOM      2  H   UNL     1      35.198 -37.056 -26.720  0.00  0.00    +0.000 HD
ENDROOT
BRANCH   1   6
ATOM      3  C   UNL     1      38.783 -37.141 -29.858  0.00  0.00    +0.093 A 
ATOM      4  C   UNL     1      37.792 -36.262 -30.275  0.00  0.00    -0.031 A 
ATOM      5  C   UNL     1      36.595 -36.186 -29.563  0.00  0.00    -0.018 A 
ATOM      6  C   UNL     1      36.412 -36.988 -28.451  0.00  0.00    +0.141 A 
ATOM      7  N   UNL     1      37.395 -37.809 -28.044  0.00  0.00    -0.134 NA
ATOM      8  N   UNL     1      38.580 -37.893 -28.752  0.00  0.00    -0.147 NA
BRANCH   3  12
ATOM      9  C   UNL     1      42.557 -37.603 -31.884  0.00  0.00    -0.062 A 
ATOM     10  C   UNL     1      42.346 -38.229 -30.659  0.00  0.00    -0.061 A 
ATOM     11  C   UNL     1      41.123 -38.079 -29.996  0.00  0.00    -0.053 A 
ATOM     12  C   UNL     1      40.080 -37.306 -30.542  0.00  0.00    +0.002 A 
ATOM     13  C   UNL     1      40.326 -36.679 -31.779  0.00  0.00    -0.053 A 
ATOM     14  C   UNL     1      41.548 -36.826 -32.444  0.00  0.00    -0.061 A 
ENDBRANCH   3  12
ENDBRANCH   1   6
BRANCH   1  15
ATOM     15  C   UNL     1      34.025 -36.744 -28.533  0.00  0.00    +0.023 C 
BRANCH  15  16
ATOM     16  C   UNL     1      32.997 -35.797 -27.877  0.00  0.00    +0.015 C 
BRANCH  16  17
ATOM     17  N   UNL     1      32.612 -34.652 -28.728  0.00  0.00    -0.296 N 
ATOM     18  C   UNL     1      33.786 -33.815 -29.026  0.00  0.00    +0.003 C 
ATOM     19  C   UNL     1      33.440 -32.743 -30.067  0.00  0.00    -0.015 C 
ATOM     20  C   UNL     1      32.197 -31.974 -29.703  0.00  0.00    -0.042 A 
ATOM     21  C   UNL     1      31.917 -30.750 -30.323  0.00  0.00    -0.058 A 
ATOM     22  C   UNL     1      30.753 -30.050 -30.008  0.00  0.00    -0.061 A 
ATOM     23  C   UNL     1      29.859 -30.571 -29.077  0.00  0.00    -0.061 A 
ATOM     24  C   UNL     1      30.124 -31.797 -28.464  0.00  0.00    -0.057 A 
ATOM     25  C   UNL     1      31.286 -32.516 -28.780  0.00  0.00    -0.030 A 
ATOM     26  C   UNL     1      31.576 -33.824 -28.072  0.00  0.00    +0.024 C 
ATOM     27  H   UNL     1      32.231 -35.027 -29.597  0.00  0.00    +0.000 HD
ENDBRANCH  16  17
ENDBRANCH  15  16
ENDBRANCH   1  15
TORSDOF 5
ENDMDL
MODEL 6
REMARK VINA RESULT:    -7.861      3.875     11.610
REMARK INTER + INTRA:         -10.676
REMARK INTER:                 -10.144
REMARK INTRA:                  -0.532
REMARK UNBOUND:                -0.517
REMARK  Name = cpd265.pdb
REMARK  5 active torsions:
REMARK  status: ('A' for Active; 'I' for Inactive)
REMARK    1  A    between atoms: C_4  and  C_5
REMARK    2  A    between atoms: C_8  and  N_9
REMARK    3  A    between atoms: N_9  and  C_10
REMARK    4  A    between atoms: C_10  and  C_11
REMARK    5  A    between atoms: C_11  and  N_12
REMARK                            x       y       z     vdW  Elec       q    Type
REMARK                         _______ _______ _______ _____ _____    ______ ____
ROOT
ATOM      1  N   UNL     1      35.148 -33.281 -30.523  0.00  0.00    -0.326 N 
ATOM      2  H   UNL     1      35.899 -32.718 -30.821  0.00  0.00    +0.000 HD
ENDROOT
BRANCH   1   6
ATOM      3  C   UNL     1      31.385 -31.710 -29.677  0.00  0.00    +0.093 A 
ATOM      4  C   UNL     1      31.883 -32.724 -28.870  0.00  0.00    -0.031 A 
ATOM      5  C   UNL     1      33.142 -33.261 -29.139  0.00  0.00    -0.018 A 
ATOM      6  C   UNL     1      33.876 -32.775 -30.206  0.00  0.00    +0.141 A 
ATOM      7  N   UNL     1      33.389 -31.770 -30.956  0.00  0.00    -0.134 NA
ATOM      8  N   UNL     1      32.139 -31.242 -30.697  0.00  0.00    -0.147 NA
BRANCH   3  12
ATOM      9  C   UNL     1      27.532 -29.876 -29.081  0.00  0.00    -0.062 A 
ATOM     10  C   UNL     1      28.043 -30.013 -30.367  0.00  0.00    -0.061 A 
ATOM     11  C   UNL     1      29.296 -30.605 -30.566  0.00  0.00    -0.053 A 
ATOM     12  C   UNL     1      30.064 -31.079 -29.485  0.00  0.00    +0.002 A 
ATOM     13  C   UNL     1      29.523 -30.918 -28.194  0.00  0.00    -0.053 A 
ATOM     14  C   UNL     1      28.273 -30.326 -27.993  0.00  0.00    -0.061 A 
ENDBRANCH   3  12
ENDBRANCH   1   6
BRANCH   1  15
ATOM     15  C   UNL     1      35.238 -34.746 -30.362  0.00  0.00    +0.023 C 
BRANCH  15  16
ATOM     16  C   UNL     1      35.770 -35.455 -31.625  0.00  0.00    +0.015 C 
BRANCH  16  17
ATOM     17  N   UNL     1      37.010 -36.227 -31.398  0.00  0.00    -0.296 N 
ATOM     18  C   UNL     1      37.320 -36.289 -29.959  0.00  0.00    +0.003 C 
ATOM     19  C   UNL     1      38.486 -37.251 -29.696  0.00  0.00    -0.015 C 
ATOM     20  C   UNL     1      39.671 -36.967 -30.581  0.00  0.00    -0.042 A 
ATOM     21  C   UNL     1      40.931 -37.490 -30.263  0.00  0.00    -0.058 A 
ATOM     22  C   UNL     1      42.024 -37.252 -31.096  0.00  0.00    -0.061 A 
ATOM     23  C   UNL     1      41.863 -36.496 -32.255  0.00  0.00    -0.061 A 
ATOM     24  C   UNL     1      40.607 -35.983 -32.586  0.00  0.00    -0.057 A 
ATOM     25  C   UNL     1      39.498 -36.225 -31.762  0.00  0.00    -0.030 A 
ATOM     26  C   UNL     1      38.154 -35.623 -32.117  0.00  0.00    +0.024 C 
ATOM     27  H   UNL     1      36.858 -37.169 -31.756  0.00  0.00    +0.000 HD
ENDBRANCH  16  17
ENDBRANCH  15  16
ENDBRANCH   1  15
TORSDOF 5
ENDMDL
MODEL 7
REMARK VINA RESULT:    -7.757      4.573      7.248
REMARK INTER + INTRA:         -10.542
REMARK INTER:                 -10.008
REMARK INTRA:                  -0.534
REMARK UNBOUND:                -0.517
REMARK  Name = cpd265.pdb
REMARK  5 active torsions:
REMARK  status: ('A' for Active; 'I' for Inactive)
REMARK    1  A    between atoms: C_4  and  C_5
REMARK    2  A    between atoms: C_8  and  N_9
REMARK    3  A    between atoms: N_9  and  C_10
REMARK    4  A    between atoms: C_10  and  C_11
REMARK    5  A    between atoms: C_11  and  N_12
REMARK                            x       y       z     vdW  Elec       q    Type
REMARK                         _______ _______ _______ _____ _____    ______ ____
ROOT
ATOM      1  N   UNL     1      34.758 -36.911 -27.981  0.00  0.00    -0.326 N 
ATOM      2  H   UNL     1      34.029 -36.321 -28.282  0.00  0.00    +0.000 HD
ENDROOT
BRANCH   1   6
ATOM      3  C   UNL     1      38.498 -36.911 -29.814  0.00  0.00    +0.093 A 
ATOM      4  C   UNL     1      38.265 -37.796 -28.770  0.00  0.00    -0.031 A 
ATOM      5  C   UNL     1      37.017 -37.809 -28.145  0.00  0.00    -0.018 A 
ATOM      6  C   UNL     1      36.031 -36.940 -28.575  0.00  0.00    +0.141 A 
ATOM      7  N   UNL     1      36.266 -36.114 -29.610  0.00  0.00    -0.134 NA
ATOM      8  N   UNL     1      37.503 -36.092 -30.225  0.00  0.00    -0.147 NA
BRANCH   3  12
ATOM      9  C   UNL     1      42.258 -36.639 -31.900  0.00  0.00    -0.062 A 
ATOM     10  C   UNL     1      41.209 -35.795 -32.249  0.00  0.00    -0.061 A 
ATOM     11  C   UNL     1      39.984 -35.882 -31.577  0.00  0.00    -0.053 A 
ATOM     12  C   UNL     1      39.781 -36.809 -30.537  0.00  0.00    +0.002 A 
ATOM     13  C   UNL     1      40.860 -37.655 -30.212  0.00  0.00    -0.053 A 
ATOM     14  C   UNL     1      42.083 -37.571 -30.883  0.00  0.00    -0.061 A 
ENDBRANCH   3  12
ENDBRANCH   1   6
BRANCH   1  15
ATOM     15  C   UNL     1      34.630 -37.859 -26.856  0.00  0.00    +0.023 C 
BRANCH  15  16
ATOM     16  C   UNL     1      33.173 -38.019 -26.371  0.00  0.00    +0.015 C 
BRANCH  16  17
ATOM     17  N   UNL     1      33.030 -38.016 -24.900  0.00  0.00    -0.296 N 
ATOM     18  C   UNL     1      33.788 -36.898 -24.313  0.00  0.00    +0.003 C 
ATOM     19  C   UNL     1      33.486 -36.765 -22.814  0.00  0.00    -0.015 C 
ATOM     20  C   UNL     1      33.632 -38.074 -22.084  0.00  0.00    -0.042 A 
ATOM     21  C   UNL     1      33.743 -38.094 -20.688  0.00  0.00    -0.058 A 
ATOM     22  C   UNL     1      33.849 -39.307 -20.008  0.00  0.00    -0.061 A 
ATOM     23  C   UNL     1      33.839 -40.505 -20.717  0.00  0.00    -0.061 A 
ATOM     24  C   UNL     1      33.715 -40.494 -22.107  0.00  0.00    -0.057 A 
ATOM     25  C   UNL     1      33.596 -39.281 -22.802  0.00  0.00    -0.030 A 
ATOM     26  C   UNL     1      33.506 -39.289 -24.315  0.00  0.00    +0.024 C 
ATOM     27  H   UNL     1      32.039 -37.907 -24.687  0.00  0.00    +0.000 HD
ENDBRANCH  16  17
ENDBRANCH  15  16
ENDBRANCH   1  15
TORSDOF 5
ENDMDL
MODEL 8
REMARK VINA RESULT:    -7.675      3.277      9.956
REMARK INTER + INTRA:         -10.436
REMARK INTER:                  -9.803
REMARK INTRA:                  -0.633
REMARK UNBOUND:                -0.517
REMARK  Name = cpd265.pdb
REMARK  5 active torsions:
REMARK  status: ('A' for Active; 'I' for Inactive)
REMARK    1  A    between atoms: C_4  and  C_5
REMARK    2  A    between atoms: C_8  and  N_9
REMARK    3  A    between atoms: N_9  and  C_10
REMARK    4  A    between atoms: C_10  and  C_11
REMARK    5  A    between atoms: C_11  and  N_12
REMARK                            x       y       z     vdW  Elec       q    Type
REMARK                         _______ _______ _______ _____ _____    ______ ____
ROOT
ATOM      1  N   UNL     1      34.785 -37.964 -27.618  0.00  0.00    -0.326 N 
ATOM      2  H   UNL     1      34.475 -38.293 -26.743  0.00  0.00    +0.000 HD
ENDROOT
BRANCH   1   6
ATOM      3  C   UNL     1      33.127 -34.595 -29.421  0.00  0.00    +0.093 A 
ATOM      4  C   UNL     1      34.034 -35.362 -30.142  0.00  0.00    -0.031 A 
ATOM      5  C   UNL     1      34.598 -36.493 -29.552  0.00  0.00    -0.018 A 
ATOM      6  C   UNL     1      34.246 -36.835 -28.260  0.00  0.00    +0.141 A 
ATOM      7  N   UNL     1      33.341 -36.099 -27.591  0.00  0.00    -0.134 NA
ATOM      8  N   UNL     1      32.787 -34.972 -28.168  0.00  0.00    -0.147 NA
BRANCH   3  12
ATOM      9  C   UNL     1      31.263 -31.018 -30.938  0.00  0.00    -0.062 A 
ATOM     10  C   UNL     1      30.616 -32.244 -31.061  0.00  0.00    -0.061 A 
ATOM     11  C   UNL     1      31.219 -33.409 -30.573  0.00  0.00    -0.053 A 
ATOM     12  C   UNL     1      32.479 -33.377 -29.946  0.00  0.00    +0.002 A 
ATOM     13  C   UNL     1      33.113 -32.122 -29.843  0.00  0.00    -0.053 A 
ATOM     14  C   UNL     1      32.513 -30.957 -30.330  0.00  0.00    -0.061 A 
ENDBRANCH   3  12
ENDBRANCH   1   6
BRANCH   1  15
ATOM     15  C   UNL     1      35.866 -38.602 -28.396  0.00  0.00    +0.023 C 
BRANCH  15  16
ATOM     16  C   UNL     1      37.270 -38.278 -27.845  0.00  0.00    +0.015 C 
BRANCH  16  17
ATOM     17  N   UNL     1      38.322 -38.232 -28.882  0.00  0.00    -0.296 N 
ATOM     18  C   UNL     1      39.653 -38.124 -28.260  0.00  0.00    +0.003 C 
ATOM     19  C   UNL     1      40.759 -38.277 -29.312  0.00  0.00    -0.015 C 
ATOM     20  C   UNL     1      40.546 -37.376 -30.499  0.00  0.00    -0.042 A 
ATOM     21  C   UNL     1      41.601 -37.112 -31.383  0.00  0.00    -0.058 A 
ATOM     22  C   UNL     1      41.399 -36.301 -32.499  0.00  0.00    -0.061 A 
ATOM     23  C   UNL     1      40.141 -35.753 -32.742  0.00  0.00    -0.061 A 
ATOM     24  C   UNL     1      39.082 -36.021 -31.873  0.00  0.00    -0.057 A 
ATOM     25  C   UNL     1      39.270 -36.845 -30.753  0.00  0.00    -0.030 A 
ATOM     26  C   UNL     1      38.118 -37.089 -29.799  0.00  0.00    +0.024 C 
ATOM     27  H   UNL     1      38.266 -39.098 -29.419  0.00  0.00    +0.000 HD
ENDBRANCH  16  17
ENDBRANCH  15  16
ENDBRANCH   1  15
TORSDOF 5
ENDMDL
MODEL 9
REMARK VINA RESULT:    -7.654      3.331      5.849
REMARK INTER + INTRA:         -10.409
REMARK INTER:                  -9.899
REMARK INTRA:                  -0.509
REMARK UNBOUND:                -0.517
REMARK  Name = cpd265.pdb
REMARK  5 active torsions:
REMARK  status: ('A' for Active; 'I' for Inactive)
REMARK    1  A    between atoms: C_4  and  C_5
REMARK    2  A    between atoms: C_8  and  N_9
REMARK    3  A    between atoms: N_9  and  C_10
REMARK    4  A    between atoms: C_10  and  C_11
REMARK    5  A    between atoms: C_11  and  N_12
REMARK                            x       y       z     vdW  Elec       q    Type
REMARK                         _______ _______ _______ _____ _____    ______ ____
ROOT
ATOM      1  N   UNL     1      34.941 -35.783 -30.558  0.00  0.00    -0.326 N 
ATOM      2  H   UNL     1      34.245 -36.480 -30.524  0.00  0.00    +0.000 HD
ENDROOT
BRANCH   1   6
ATOM      3  C   UNL     1      39.033 -36.532 -30.769  0.00  0.00    +0.093 A 
ATOM      4  C   UNL     1      38.287 -37.163 -29.782  0.00  0.00    -0.031 A 
ATOM      5  C   UNL     1      36.915 -36.923 -29.697  0.00  0.00    -0.018 A 
ATOM      6  C   UNL     1      36.318 -36.061 -30.599  0.00  0.00    +0.141 A 
ATOM      7  N   UNL     1      37.051 -35.485 -31.567  0.00  0.00    -0.134 NA
ATOM      8  N   UNL     1      38.412 -35.713 -31.649  0.00  0.00    -0.147 NA
BRANCH   3  12
ATOM      9  C   UNL     1      43.279 -37.081 -31.254  0.00  0.00    -0.062 A 
ATOM     10  C   UNL     1      42.684 -35.886 -31.647  0.00  0.00    -0.061 A 
ATOM     11  C   UNL     1      41.305 -35.705 -31.495  0.00  0.00    -0.053 A 
ATOM     12  C   UNL     1      40.488 -36.709 -30.941  0.00  0.00    +0.002 A 
ATOM     13  C   UNL     1      41.118 -37.910 -30.559  0.00  0.00    -0.053 A 
ATOM     14  C   UNL     1      42.495 -38.094 -30.711  0.00  0.00    -0.061 A 
ENDBRANCH   3  12
ENDBRANCH   1   6
BRANCH   1  15
ATOM     15  C   UNL     1      34.648 -34.336 -30.572  0.00  0.00    +0.023 C 
BRANCH  15  16
ATOM     16  C   UNL     1      33.838 -33.901 -31.812  0.00  0.00    +0.015 C 
BRANCH  16  17
ATOM     17  N   UNL     1      32.840 -32.848 -31.533  0.00  0.00    -0.296 N 
ATOM     18  C   UNL     1      33.119 -32.206 -30.237  0.00  0.00    +0.003 C 
ATOM     19  C   UNL     1      32.216 -30.982 -30.030  0.00  0.00    -0.015 C 
ATOM     20  C   UNL     1      30.764 -31.298 -30.273  0.00  0.00    -0.042 A 
ATOM     21  C   UNL     1      29.766 -30.433 -29.806  0.00  0.00    -0.058 A 
ATOM     22  C   UNL     1      28.422 -30.708 -30.055  0.00  0.00    -0.061 A 
ATOM     23  C   UNL     1      28.067 -31.845 -30.777  0.00  0.00    -0.061 A 
ATOM     24  C   UNL     1      29.056 -32.705 -31.257  0.00  0.00    -0.057 A 
ATOM     25  C   UNL     1      30.412 -32.434 -31.023  0.00  0.00    -0.030 A 
ATOM     26  C   UNL     1      31.468 -33.403 -31.516  0.00  0.00    +0.024 C 
ATOM     27  H   UNL     1      32.905 -32.155 -32.278  0.00  0.00    +0.000 HD
ENDBRANCH  16  17
ENDBRANCH  15  16
ENDBRANCH   1  15
TORSDOF 5
ENDMDL
MODEL 10
REMARK VINA RESULT:    -7.647      3.602      6.073
REMARK INTER + INTRA:         -10.400
REMARK INTER:                  -9.506
REMARK INTRA:                  -0.894
REMARK UNBOUND:                -0.517
REMARK  Name = cpd265.pdb
REMARK  5 active torsions:
REMARK  status: ('A' for Active; 'I' for Inactive)
REMARK    1  A    between atoms: C_4  and  C_5
REMARK    2  A    between atoms: C_8  and  N_9
REMARK    3  A    between atoms: N_9  and  C_10
REMARK    4  A    between atoms: C_10  and  C_11
REMARK    5  A    between atoms: C_11  and  N_12
REMARK                            x       y       z     vdW  Elec       q    Type
REMARK                         _______ _______ _______ _____ _____    ______ ____
ROOT
ATOM      1  N   UNL     1      34.135 -39.019 -27.753  0.00  0.00    -0.326 N 
ATOM      2  H   UNL     1      34.113 -39.821 -27.181  0.00  0.00    +0.000 HD
ENDROOT
BRANCH   1   6
ATOM      3  C   UNL     1      37.635 -37.607 -29.515  0.00  0.00    +0.093 A 
ATOM      4  C   UNL     1      36.577 -37.980 -30.334  0.00  0.00    -0.031 A 
ATOM      5  C   UNL     1      35.398 -38.455 -29.759  0.00  0.00    -0.018 A 
ATOM      6  C   UNL     1      35.299 -38.547 -28.383  0.00  0.00    +0.141 A 
ATOM      7  N   UNL     1      36.323 -38.150 -27.607  0.00  0.00    -0.134 NA
ATOM      8  N   UNL     1      37.496 -37.687 -28.172  0.00  0.00    -0.147 NA
BRANCH   3  12
ATOM      9  C   UNL     1      41.424 -36.149 -30.959  0.00  0.00    -0.062 A 
ATOM     10  C   UNL     1      40.239 -35.620 -31.463  0.00  0.00    -0.061 A 
ATOM     11  C   UNL     1      39.006 -36.094 -31.000  0.00  0.00    -0.053 A 
ATOM     12  C   UNL     1      38.927 -37.100 -30.019  0.00  0.00    +0.002 A 
ATOM     13  C   UNL     1      40.143 -37.621 -29.534  0.00  0.00    -0.053 A 
ATOM     14  C   UNL     1      41.376 -37.151 -29.996  0.00  0.00    -0.061 A 
ENDBRANCH   3  12
ENDBRANCH   1   6
BRANCH   1  15
ATOM     15  C   UNL     1      32.950 -38.186 -28.041  0.00  0.00    +0.023 C 
BRANCH  15  16
ATOM     16  C   UNL     1      33.036 -36.784 -27.403  0.00  0.00    +0.015 C 
BRANCH  16  17
ATOM     17  N   UNL     1      32.984 -35.679 -28.382  0.00  0.00    -0.296 N 
ATOM     18  C   UNL     1      34.335 -35.144 -28.626  0.00  0.00    +0.003 C 
ATOM     19  C   UNL     1      34.320 -34.138 -29.784  0.00  0.00    -0.015 C 
ATOM     20  C   UNL     1      33.252 -33.090 -29.616  0.00  0.00    -0.042 A 
ATOM     21  C   UNL     1      33.302 -31.905 -30.362  0.00  0.00    -0.058 A 
ATOM     22  C   UNL     1      32.299 -30.946 -30.229  0.00  0.00    -0.061 A 
ATOM     23  C   UNL     1      31.238 -31.166 -29.354  0.00  0.00    -0.061 A 
ATOM     24  C   UNL     1      31.174 -32.350 -28.616  0.00  0.00    -0.057 A 
ATOM     25  C   UNL     1      32.171 -33.327 -28.750  0.00  0.00    -0.030 A 
ATOM     26  C   UNL     1      32.106 -34.586 -27.908  0.00  0.00    +0.024 C 
ATOM     27  H   UNL     1      32.603 -36.053 -29.251  0.00  0.00    +0.000 HD
ENDBRANCH  16  17
ENDBRANCH  15  16
ENDBRANCH   1  15
TORSDOF 5
ENDMDL
MODEL 11
REMARK VINA RESULT:    -7.328     16.075     19.794
REMARK INTER + INTRA:          -9.987
REMARK INTER:                  -9.410
REMARK INTRA:                  -0.576
REMARK UNBOUND:                -0.517
REMARK  Name = cpd265.pdb
REMARK  5 active torsions:
REMARK  status: ('A' for Active; 'I' for Inactive)
REMARK    1  A    between atoms: C_4  and  C_5
REMARK    2  A    between atoms: C_8  and  N_9
REMARK    3  A    between atoms: N_9  and  C_10
REMARK    4  A    between atoms: C_10  and  C_11
REMARK    5  A    between atoms: C_11  and  N_12
REMARK                            x       y       z     vdW  Elec       q    Type
REMARK                         _______ _______ _______ _____ _____    ______ ____
ROOT
ATOM      1  N   UNL     1      44.918 -19.431 -35.830  0.00  0.00    -0.326 N 
ATOM      2  H   UNL     1      45.268 -18.645 -35.351  0.00  0.00    +0.000 HD
ENDROOT
BRANCH   1   6
ATOM      3  C   UNL     1      41.296 -21.218 -34.810  0.00  0.00    +0.093 A 
ATOM      4  C   UNL     1      41.713 -21.258 -36.135  0.00  0.00    -0.031 A 
ATOM      5  C   UNL     1      42.923 -20.664 -36.493  0.00  0.00    -0.018 A 
ATOM      6  C   UNL     1      43.692 -20.045 -35.524  0.00  0.00    +0.141 A 
ATOM      7  N   UNL     1      43.287 -20.046 -34.242  0.00  0.00    -0.134 NA
ATOM      8  N   UNL     1      42.084 -20.626 -33.884  0.00  0.00    -0.147 NA
BRANCH   3  12
ATOM      9  C   UNL     1      37.619 -22.970 -33.407  0.00  0.00    -0.062 A 
ATOM     10  C   UNL     1      37.755 -21.586 -33.453  0.00  0.00    -0.061 A 
ATOM     11  C   UNL     1      38.949 -21.013 -33.905  0.00  0.00    -0.053 A 
ATOM     12  C   UNL     1      40.032 -21.807 -34.327  0.00  0.00    +0.002 A 
ATOM     13  C   UNL     1      39.867 -23.204 -34.261  0.00  0.00    -0.053 A 
ATOM     14  C   UNL     1      38.676 -23.780 -33.809  0.00  0.00    -0.061 A 
ENDBRANCH   3  12
ENDBRANCH   1   6
BRANCH   1  15
ATOM     15  C   UNL     1      45.624 -20.089 -36.948  0.00  0.00    +0.023 C 
BRANCH  15  16
ATOM     16  C   UNL     1      45.871 -19.140 -38.140  0.00  0.00    +0.015 C 
BRANCH  16  17
ATOM     17  N   UNL     1      46.050 -19.838 -39.431  0.00  0.00    -0.296 N 
ATOM     18  C   UNL     1      44.754 -20.324 -39.935  0.00  0.00    +0.003 C 
ATOM     19  C   UNL     1      44.897 -20.869 -41.362  0.00  0.00    -0.015 C 
ATOM     20  C   UNL     1      46.027 -21.856 -41.485  0.00  0.00    -0.042 A 
ATOM     21  C   UNL     1      46.099 -22.713 -42.591  0.00  0.00    -0.058 A 
ATOM     22  C   UNL     1      47.160 -23.608 -42.721  0.00  0.00    -0.061 A 
ATOM     23  C   UNL     1      48.159 -23.648 -41.752  0.00  0.00    -0.061 A 
ATOM     24  C   UNL     1      48.102 -22.788 -40.653  0.00  0.00    -0.057 A 
ATOM     25  C   UNL     1      47.045 -21.876 -40.517  0.00  0.00    -0.030 A 
ATOM     26  C   UNL     1      46.979 -20.981 -39.295  0.00  0.00    +0.024 C 
ATOM     27  H   UNL     1      46.445 -19.170 -40.091  0.00  0.00    +0.000 HD
ENDBRANCH  16  17
ENDBRANCH  15  16
ENDBRANCH   1  15
TORSDOF 5
ENDMDL
MODEL 12
REMARK VINA RESULT:    -7.302      5.144      8.940
REMARK INTER + INTRA:          -9.954
REMARK INTER:                  -9.215
REMARK INTRA:                  -0.740
REMARK UNBOUND:                -0.517
REMARK  Name = cpd265.pdb
REMARK  5 active torsions:
REMARK  status: ('A' for Active; 'I' for Inactive)
REMARK    1  A    between atoms: C_4  and  C_5
REMARK    2  A    between atoms: C_8  and  N_9
REMARK    3  A    between atoms: N_9  and  C_10
REMARK    4  A    between atoms: C_10  and  C_11
REMARK    5  A    between atoms: C_11  and  N_12
REMARK                            x       y       z     vdW  Elec       q    Type
REMARK                         _______ _______ _______ _____ _____    ______ ____
ROOT
ATOM      1  N   UNL     1      34.847 -39.488 -28.249  0.00  0.00    -0.326 N 
ATOM      2  H   UNL     1      34.724 -39.987 -27.409  0.00  0.00    +0.000 HD
ENDROOT
BRANCH   1   6
ATOM      3  C   UNL     1      33.842 -41.025 -31.988  0.00  0.00    +0.093 A 
ATOM      4  C   UNL     1      35.181 -40.974 -31.623  0.00  0.00    -0.031 A 
ATOM      5  C   UNL     1      35.535 -40.462 -30.375  0.00  0.00    -0.018 A 
ATOM      6  C   UNL     1      34.546 -40.014 -29.517  0.00  0.00    +0.141 A 
ATOM      7  N   UNL     1      33.254 -40.102 -29.875  0.00  0.00    -0.134 NA
ATOM      8  N   UNL     1      32.900 -40.600 -31.115  0.00  0.00    -0.147 NA
BRANCH   3  12
ATOM      9  C   UNL     1      32.405 -42.536 -35.758  0.00  0.00    -0.062 A 
ATOM     10  C   UNL     1      33.706 -42.055 -35.654  0.00  0.00    -0.061 A 
ATOM     11  C   UNL     1      34.176 -41.559 -34.432  0.00  0.00    -0.053 A 
ATOM     12  C   UNL     1      33.361 -41.539 -33.285  0.00  0.00    +0.002 A 
ATOM     13  C   UNL     1      32.046 -42.026 -33.424  0.00  0.00    -0.053 A 
ATOM     14  C   UNL     1      31.573 -42.520 -34.643  0.00  0.00    -0.061 A 
ENDBRANCH   3  12
ENDBRANCH   1   6
BRANCH   1  15
ATOM     15  C   UNL     1      35.368 -38.108 -28.311  0.00  0.00    +0.023 C 
BRANCH  15  16
ATOM     16  C   UNL     1      36.845 -38.006 -27.877  0.00  0.00    +0.015 C 
BRANCH  16  17
ATOM     17  N   UNL     1      37.695 -37.256 -28.825  0.00  0.00    -0.296 N 
ATOM     18  C   UNL     1      36.999 -37.081 -30.111  0.00  0.00    +0.003 C 
ATOM     19  C   UNL     1      37.784 -36.136 -31.030  0.00  0.00    -0.015 C 
ATOM     20  C   UNL     1      39.233 -36.530 -31.150  0.00  0.00    -0.042 A 
ATOM     21  C   UNL     1      40.019 -36.021 -32.192  0.00  0.00    -0.058 A 
ATOM     22  C   UNL     1      41.367 -36.363 -32.289  0.00  0.00    -0.061 A 
ATOM     23  C   UNL     1      41.940 -37.209 -31.342  0.00  0.00    -0.061 A 
ATOM     24  C   UNL     1      41.166 -37.710 -30.294  0.00  0.00    -0.057 A 
ATOM     25  C   UNL     1      39.811 -37.365 -30.179  0.00  0.00    -0.030 A 
ATOM     26  C   UNL     1      38.979 -37.953 -29.057  0.00  0.00    +0.024 C 
ATOM     27  H   UNL     1      37.887 -36.343 -28.413  0.00  0.00    +0.000 HD
ENDBRANCH  16  17
ENDBRANCH  15  16
ENDBRANCH   1  15
TORSDOF 5
ENDMDL
MODEL 13
REMARK VINA RESULT:    -7.247     31.650     33.606
REMARK INTER + INTRA:          -9.882
REMARK INTER:                  -9.371
REMARK INTRA:                  -0.511
REMARK UNBOUND:                -0.517
REMARK  Name = cpd265.pdb
REMARK  5 active torsions:
REMARK  status: ('A' for Active; 'I' for Inactive)
REMARK    1  A    between atoms: C_4  and  C_5
REMARK    2  A    between atoms: C_8  and  N_9
REMARK    3  A    between atoms: N_9  and  C_10
REMARK    4  A    between atoms: C_10  and  C_11
REMARK    5  A    between atoms: C_11  and  N_12
REMARK                            x       y       z     vdW  Elec       q    Type
REMARK                         _______ _______ _______ _____ _____    ______ ____
ROOT
ATOM      1  N   UNL     1      63.219 -18.963  -9.172  0.00  0.00    -0.326 N 
ATOM      2  H   UNL     1      63.569 -18.243  -8.598  0.00  0.00    +0.000 HD
ENDROOT
BRANCH   1   6
ATOM      3  C   UNL     1      63.470 -22.976  -8.086  0.00  0.00    +0.093 A 
ATOM      4  C   UNL     1      63.144 -22.657  -9.397  0.00  0.00    -0.031 A 
ATOM      5  C   UNL     1      63.055 -21.318  -9.778  0.00  0.00    -0.018 A 
ATOM      6  C   UNL     1      63.295 -20.327  -8.843  0.00  0.00    +0.141 A 
ATOM      7  N   UNL     1      63.642 -20.656  -7.587  0.00  0.00    -0.134 NA
ATOM      8  N   UNL     1      63.722 -21.982  -7.204  0.00  0.00    -0.147 NA
BRANCH   3  12
ATOM      9  C   UNL     1      63.758 -27.010  -6.599  0.00  0.00    -0.062 A 
ATOM     10  C   UNL     1      64.914 -26.264  -6.808  0.00  0.00    -0.061 A 
ATOM     11  C   UNL     1      64.825 -24.954  -7.295  0.00  0.00    -0.053 A 
ATOM     12  C   UNL     1      63.581 -24.357  -7.577  0.00  0.00    +0.002 A 
ATOM     13  C   UNL     1      62.430 -25.141  -7.362  0.00  0.00    -0.053 A 
ATOM     14  C   UNL     1      62.516 -26.449  -6.878  0.00  0.00    -0.061 A 
ENDBRANCH   3  12
ENDBRANCH   1   6
BRANCH   1  15
ATOM     15  C   UNL     1      62.558 -18.724 -10.471  0.00  0.00    +0.023 C 
BRANCH  15  16
ATOM     16  C   UNL     1      61.136 -18.144 -10.320  0.00  0.00    +0.015 C 
BRANCH  16  17
ATOM     17  N   UNL     1      60.291 -18.316 -11.521  0.00  0.00    -0.296 N 
ATOM     18  C   UNL     1      59.686 -17.031 -11.911  0.00  0.00    +0.003 C 
ATOM     19  C   UNL     1      58.973 -17.155 -13.264  0.00  0.00    -0.015 C 
ATOM     20  C   UNL     1      58.033 -18.330 -13.309  0.00  0.00    -0.042 A 
ATOM     21  C   UNL     1      57.049 -18.410 -14.303  0.00  0.00    -0.058 A 
ATOM     22  C   UNL     1      56.196 -19.511 -14.363  0.00  0.00    -0.061 A 
ATOM     23  C   UNL     1      56.325 -20.542 -13.436  0.00  0.00    -0.061 A 
ATOM     24  C   UNL     1      57.312 -20.476 -12.451  0.00  0.00    -0.057 A 
ATOM     25  C   UNL     1      58.183 -19.379 -12.386  0.00  0.00    -0.030 A 
ATOM     26  C   UNL     1      59.220 -19.308 -11.282  0.00  0.00    +0.024 C 
ATOM     27  H   UNL     1      60.890 -18.654 -12.274  0.00  0.00    +0.000 HD
ENDBRANCH  16  17
ENDBRANCH  15  16
ENDBRANCH   1  15
TORSDOF 5
ENDMDL
MODEL 14
REMARK VINA RESULT:    -7.071     15.991     18.438
REMARK INTER + INTRA:          -9.656
REMARK INTER:                  -9.022
REMARK INTRA:                  -0.634
REMARK UNBOUND:                -0.517
REMARK  Name = cpd265.pdb
REMARK  5 active torsions:
REMARK  status: ('A' for Active; 'I' for Inactive)
REMARK    1  A    between atoms: C_4  and  C_5
REMARK    2  A    between atoms: C_8  and  N_9
REMARK    3  A    between atoms: N_9  and  C_10
REMARK    4  A    between atoms: C_10  and  C_11
REMARK    5  A    between atoms: C_11  and  N_12
REMARK                            x       y       z     vdW  Elec       q    Type
REMARK                         _______ _______ _______ _____ _____    ______ ____
ROOT
ATOM      1  N   UNL     1      43.728 -18.976 -35.731  0.00  0.00    -0.326 N 
ATOM      2  H   UNL     1      42.999 -18.319 -35.811  0.00  0.00    +0.000 HD
ENDROOT
BRANCH   1   6
ATOM      3  C   UNL     1      45.468 -21.010 -38.923  0.00  0.00    +0.093 A 
ATOM      4  C   UNL     1      44.120 -20.682 -38.993  0.00  0.00    -0.031 A 
ATOM      5  C   UNL     1      43.522 -20.001 -37.932  0.00  0.00    -0.018 A 
ATOM      6  C   UNL     1      44.281 -19.661 -36.827  0.00  0.00    +0.141 A 
ATOM      7  N   UNL     1      45.591 -19.958 -36.792  0.00  0.00    -0.134 NA
ATOM      8  N   UNL     1      46.185 -20.642 -37.837  0.00  0.00    -0.147 NA
BRANCH   3  12
ATOM      9  C   UNL     1      47.622 -23.128 -41.995  0.00  0.00    -0.062 A 
ATOM     10  C   UNL     1      46.329 -22.675 -42.241  0.00  0.00    -0.061 A 
ATOM     11  C   UNL     1      45.624 -21.990 -41.244  0.00  0.00    -0.053 A 
ATOM     12  C   UNL     1      46.195 -21.735 -39.982  0.00  0.00    +0.002 A 
ATOM     13  C   UNL     1      47.502 -22.213 -39.762  0.00  0.00    -0.053 A 
ATOM     14  C   UNL     1      48.208 -22.899 -40.755  0.00  0.00    -0.061 A 
ENDBRANCH   3  12
ENDBRANCH   1   6
BRANCH   1  15
ATOM     15  C   UNL     1      44.360 -19.345 -34.448  0.00  0.00    +0.023 C 
BRANCH  15  16
ATOM     16  C   UNL     1      43.398 -19.211 -33.248  0.00  0.00    +0.015 C 
BRANCH  16  17
ATOM     17  N   UNL     1      42.019 -19.658 -33.535  0.00  0.00    -0.296 N 
ATOM     18  C   UNL     1      41.063 -18.978 -32.645  0.00  0.00    +0.003 C 
ATOM     19  C   UNL     1      39.619 -19.280 -33.066  0.00  0.00    -0.015 C 
ATOM     20  C   UNL     1      39.373 -20.756 -33.241  0.00  0.00    -0.042 A 
ATOM     21  C   UNL     1      38.064 -21.254 -33.276  0.00  0.00    -0.058 A 
ATOM     22  C   UNL     1      37.833 -22.616 -33.466  0.00  0.00    -0.061 A 
ATOM     23  C   UNL     1      38.908 -23.487 -33.628  0.00  0.00    -0.061 A 
ATOM     24  C   UNL     1      40.214 -22.997 -33.607  0.00  0.00    -0.057 A 
ATOM     25  C   UNL     1      40.459 -21.627 -33.428  0.00  0.00    -0.030 A 
ATOM     26  C   UNL     1      41.887 -21.122 -33.366  0.00  0.00    +0.024 C 
ATOM     27  H   UNL     1      41.813 -19.420 -34.505  0.00  0.00    +0.000 HD
ENDBRANCH  16  17
ENDBRANCH  15  16
ENDBRANCH   1  15
TORSDOF 5
ENDMDL
MODEL 15
REMARK VINA RESULT:    -7.065      4.098      7.431
REMARK INTER + INTRA:          -9.647
REMARK INTER:                  -9.163
REMARK INTRA:                  -0.485
REMARK UNBOUND:                -0.517
REMARK  Name = cpd265.pdb
REMARK  5 active torsions:
REMARK  status: ('A' for Active; 'I' for Inactive)
REMARK    1  A    between atoms: C_4  and  C_5
REMARK    2  A    between atoms: C_8  and  N_9
REMARK    3  A    between atoms: N_9  and  C_10
REMARK    4  A    between atoms: C_10  and  C_11
REMARK    5  A    between atoms: C_11  and  N_12
REMARK                            x       y       z     vdW  Elec       q    Type
REMARK                         _______ _______ _______ _____ _____    ______ ____
ROOT
ATOM      1  N   UNL     1      33.605 -35.663 -29.414  0.00  0.00    -0.326 N 
ATOM      2  H   UNL     1      33.279 -36.266 -28.707  0.00  0.00    +0.000 HD
ENDROOT
BRANCH   1   6
ATOM      3  C   UNL     1      37.463 -35.943 -30.958  0.00  0.00    +0.093 A 
ATOM      4  C   UNL     1      36.772 -34.746 -31.097  0.00  0.00    -0.031 A 
ATOM      5  C   UNL     1      35.479 -34.636 -30.586  0.00  0.00    -0.018 A 
ATOM      6  C   UNL     1      34.904 -35.720 -29.947  0.00  0.00    +0.141 A 
ATOM      7  N   UNL     1      35.602 -36.859 -29.794  0.00  0.00    -0.134 NA
ATOM      8  N   UNL     1      36.880 -36.975 -30.307  0.00  0.00    -0.147 NA
BRANCH   3  12
ATOM      9  C   UNL     1      41.461 -36.618 -32.416  0.00  0.00    -0.062 A 
ATOM     10  C   UNL     1      40.558 -35.887 -33.181  0.00  0.00    -0.061 A 
ATOM     11  C   UNL     1      39.257 -35.669 -32.713  0.00  0.00    -0.053 A 
ATOM     12  C   UNL     1      38.829 -36.169 -31.469  0.00  0.00    +0.002 A 
ATOM     13  C   UNL     1      39.764 -36.912 -30.720  0.00  0.00    -0.053 A 
ATOM     14  C   UNL     1      41.064 -37.133 -31.186  0.00  0.00    -0.061 A 
ENDBRANCH   3  12
ENDBRANCH   1   6
BRANCH   1  15
ATOM     15  C   UNL     1      32.780 -34.602 -30.028  0.00  0.00    +0.023 C 
BRANCH  15  16
ATOM     16  C   UNL     1      31.343 -34.563 -29.469  0.00  0.00    +0.015 C 
BRANCH  16  17
ATOM     17  N   UNL     1      30.584 -33.355 -29.856  0.00  0.00    -0.296 N 
ATOM     18  C   UNL     1      31.383 -32.518 -30.768  0.00  0.00    +0.003 C 
ATOM     19  C   UNL     1      30.537 -31.370 -31.333  0.00  0.00    -0.015 C 
ATOM     20  C   UNL     1      29.815 -30.608 -30.253  0.00  0.00    -0.042 A 
ATOM     21  C   UNL     1      29.285 -29.339 -30.519  0.00  0.00    -0.058 A 
ATOM     22  C   UNL     1      28.592 -28.644 -29.528  0.00  0.00    -0.061 A 
ATOM     23  C   UNL     1      28.417 -29.215 -28.270  0.00  0.00    -0.061 A 
ATOM     24  C   UNL     1      28.931 -30.485 -28.002  0.00  0.00    -0.057 A 
ATOM     25  C   UNL     1      29.621 -31.199 -28.993  0.00  0.00    -0.030 A 
ATOM     26  C   UNL     1      30.207 -32.558 -28.668  0.00  0.00    +0.024 C 
ATOM     27  H   UNL     1      29.735 -33.662 -30.330  0.00  0.00    +0.000 HD
ENDBRANCH  16  17
ENDBRANCH  15  16
ENDBRANCH   1  15
TORSDOF 5
ENDMDL
MODEL 16
REMARK VINA RESULT:    -6.998     24.606     27.085
REMARK INTER + INTRA:          -9.561
REMARK INTER:                  -8.819
REMARK INTRA:                  -0.742
REMARK UNBOUND:                -0.517
REMARK  Name = cpd265.pdb
REMARK  5 active torsions:
REMARK  status: ('A' for Active; 'I' for Inactive)
REMARK    1  A    between atoms: C_4  and  C_5
REMARK    2  A    between atoms: C_8  and  N_9
REMARK    3  A    between atoms: N_9  and  C_10
REMARK    4  A    between atoms: C_10  and  C_11
REMARK    5  A    between atoms: C_11  and  N_12
REMARK                            x       y       z     vdW  Elec       q    Type
REMARK                         _______ _______ _______ _____ _____    ______ ____
ROOT
ATOM      1  N   UNL     1      48.851 -30.835 -53.715  0.00  0.00    -0.326 N 
ATOM      2  H   UNL     1      49.820 -30.795 -53.540  0.00  0.00    +0.000 HD
ENDROOT
BRANCH   1   6
ATOM      3  C   UNL     1      46.666 -34.376 -53.898  0.00  0.00    +0.093 A 
ATOM      4  C   UNL     1      47.432 -34.005 -54.996  0.00  0.00    -0.031 A 
ATOM      5  C   UNL     1      48.169 -32.822 -54.951  0.00  0.00    -0.018 A 
ATOM      6  C   UNL     1      48.128 -32.036 -53.813  0.00  0.00    +0.141 A 
ATOM      7  N   UNL     1      47.407 -32.430 -52.749  0.00  0.00    -0.134 NA
ATOM      8  N   UNL     1      46.667 -33.597 -52.793  0.00  0.00    -0.147 NA
BRANCH   3  12
ATOM      9  C   UNL     1      44.284 -37.962 -53.712  0.00  0.00    -0.062 A 
ATOM     10  C   UNL     1      44.118 -37.073 -54.770  0.00  0.00    -0.061 A 
ATOM     11  C   UNL     1      44.887 -35.905 -54.832  0.00  0.00    -0.053 A 
ATOM     12  C   UNL     1      45.843 -35.600 -53.844  0.00  0.00    +0.002 A 
ATOM     13  C   UNL     1      45.982 -36.515 -52.782  0.00  0.00    -0.053 A 
ATOM     14  C   UNL     1      45.214 -37.682 -52.716  0.00  0.00    -0.061 A 
ENDBRANCH   3  12
ENDBRANCH   1   6
BRANCH   1  15
ATOM     15  C   UNL     1      48.003 -29.640 -53.900  0.00  0.00    +0.023 C 
BRANCH  15  16
ATOM     16  C   UNL     1      47.926 -29.185 -55.373  0.00  0.00    +0.015 C 
BRANCH  16  17
ATOM     17  N   UNL     1      46.580 -29.317 -55.968  0.00  0.00    -0.296 N 
ATOM     18  C   UNL     1      46.595 -30.313 -57.054  0.00  0.00    +0.003 C 
ATOM     19  C   UNL     1      45.171 -30.605 -57.543  0.00  0.00    -0.015 C 
ATOM     20  C   UNL     1      44.406 -29.346 -57.857  0.00  0.00    -0.042 A 
ATOM     21  C   UNL     1      43.241 -29.403 -58.633  0.00  0.00    -0.058 A 
ATOM     22  C   UNL     1      42.515 -28.243 -58.900  0.00  0.00    -0.061 A 
ATOM     23  C   UNL     1      42.945 -27.020 -58.390  0.00  0.00    -0.061 A 
ATOM     24  C   UNL     1      44.098 -26.957 -57.605  0.00  0.00    -0.057 A 
ATOM     25  C   UNL     1      44.830 -28.119 -57.319  0.00  0.00    -0.030 A 
ATOM     26  C   UNL     1      46.102 -28.022 -56.501  0.00  0.00    +0.024 C 
ATOM     27  H   UNL     1      45.945 -29.625 -55.232  0.00  0.00    +0.000 HD
ENDBRANCH  16  17
ENDBRANCH  15  16
ENDBRANCH   1  15
TORSDOF 5
ENDMDL
MODEL 17
REMARK VINA RESULT:    -6.967     16.167     18.355
REMARK INTER + INTRA:          -9.521
REMARK INTER:                  -9.024
REMARK INTRA:                  -0.497
REMARK UNBOUND:                -0.517
REMARK  Name = cpd265.pdb
REMARK  5 active torsions:
REMARK  status: ('A' for Active; 'I' for Inactive)
REMARK    1  A    between atoms: C_4  and  C_5
REMARK    2  A    between atoms: C_8  and  N_9
REMARK    3  A    between atoms: N_9  and  C_10
REMARK    4  A    between atoms: C_10  and  C_11
REMARK    5  A    between atoms: C_11  and  N_12
REMARK                            x       y       z     vdW  Elec       q    Type
REMARK                         _______ _______ _______ _____ _____    ______ ____
ROOT
ATOM      1  N   UNL     1      43.318 -18.920 -36.610  0.00  0.00    -0.326 N 
ATOM      2  H   UNL     1      42.979 -18.021 -36.823  0.00  0.00    +0.000 HD
ENDROOT
BRANCH   1   6
ATOM      3  C   UNL     1      45.639 -21.148 -39.256  0.00  0.00    +0.093 A 
ATOM      4  C   UNL     1      46.194 -20.757 -38.044  0.00  0.00    -0.031 A 
ATOM      5  C   UNL     1      45.430 -20.011 -37.146  0.00  0.00    -0.018 A 
ATOM      6  C   UNL     1      44.131 -19.671 -37.476  0.00  0.00    +0.141 A 
ATOM      7  N   UNL     1      43.601 -20.087 -38.639  0.00  0.00    -0.134 NA
ATOM      8  N   UNL     1      44.357 -20.819 -39.535  0.00  0.00    -0.147 NA
BRANCH   3  12
ATOM      9  C   UNL     1      47.716 -23.431 -42.262  0.00  0.00    -0.062 A 
ATOM     10  C   UNL     1      48.300 -23.233 -41.015  0.00  0.00    -0.061 A 
ATOM     11  C   UNL     1      47.630 -22.489 -40.036  0.00  0.00    -0.053 A 
ATOM     12  C   UNL     1      46.361 -21.930 -40.278  0.00  0.00    +0.002 A 
ATOM     13  C   UNL     1      45.799 -22.141 -41.553  0.00  0.00    -0.053 A 
ATOM     14  C   UNL     1      46.466 -22.883 -42.532  0.00  0.00    -0.061 A 
ENDBRANCH   3  12
ENDBRANCH   1   6
BRANCH   1  15
ATOM     15  C   UNL     1      43.027 -19.624 -35.344  0.00  0.00    +0.023 C 
BRANCH  15  16
ATOM     16  C   UNL     1      42.346 -20.992 -35.564  0.00  0.00    +0.015 C 
BRANCH  16  17
ATOM     17  N   UNL     1      41.180 -21.225 -34.687  0.00  0.00    -0.296 N 
ATOM     18  C   UNL     1      40.381 -22.359 -35.186  0.00  0.00    +0.003 C 
ATOM     19  C   UNL     1      39.287 -22.737 -34.179  0.00  0.00    -0.015 C 
ATOM     20  C   UNL     1      38.478 -21.544 -33.741  0.00  0.00    -0.042 A 
ATOM     21  C   UNL     1      37.238 -21.724 -33.115  0.00  0.00    -0.058 A 
ATOM     22  C   UNL     1      36.501 -20.623 -32.683  0.00  0.00    -0.061 A 
ATOM     23  C   UNL     1      37.000 -19.336 -32.868  0.00  0.00    -0.061 A 
ATOM     24  C   UNL     1      38.241 -19.149 -33.479  0.00  0.00    -0.057 A 
ATOM     25  C   UNL     1      38.997 -20.249 -33.908  0.00  0.00    -0.030 A 
ATOM     26  C   UNL     1      40.322 -20.022 -34.608  0.00  0.00    +0.024 C 
ATOM     27  H   UNL     1      41.532 -21.440 -33.755  0.00  0.00    +0.000 HD
ENDBRANCH  16  17
ENDBRANCH  15  16
ENDBRANCH   1  15
TORSDOF 5
ENDMDL
MODEL 18
REMARK VINA RESULT:    -6.958      3.883      6.656
REMARK INTER + INTRA:          -9.509
REMARK INTER:                  -8.737
REMARK INTRA:                  -0.773
REMARK UNBOUND:                -0.517
REMARK  Name = cpd265.pdb
REMARK  5 active torsions:
REMARK  status: ('A' for Active; 'I' for Inactive)
REMARK    1  A    between atoms: C_4  and  C_5
REMARK    2  A    between atoms: C_8  and  N_9
REMARK    3  A    between atoms: N_9  and  C_10
REMARK    4  A    between atoms: C_10  and  C_11
REMARK    5  A    between atoms: C_11  and  N_12
REMARK                            x       y       z     vdW  Elec       q    Type
REMARK                         _______ _______ _______ _____ _____    ______ ____
ROOT
ATOM      1  N   UNL     1      34.036 -35.911 -29.525  0.00  0.00    -0.326 N 
ATOM      2  H   UNL     1      33.693 -35.080 -29.124  0.00  0.00    +0.000 HD
ENDROOT
BRANCH   1   6
ATOM      3  C   UNL     1      38.034 -36.443 -30.567  0.00  0.00    +0.093 A 
ATOM      4  C   UNL     1      37.522 -37.157 -29.491  0.00  0.00    -0.031 A 
ATOM      5  C   UNL     1      36.185 -36.990 -29.129  0.00  0.00    -0.018 A 
ATOM      6  C   UNL     1      35.389 -36.117 -29.848  0.00  0.00    +0.141 A 
ATOM      7  N   UNL     1      35.894 -35.460 -30.906  0.00  0.00    -0.134 NA
ATOM      8  N   UNL     1      37.221 -35.615 -31.262  0.00  0.00    -0.147 NA
BRANCH   3  12
ATOM      9  C   UNL     1      42.108 -36.705 -31.943  0.00  0.00    -0.062 A 
ATOM     10  C   UNL     1      41.741 -37.309 -30.745  0.00  0.00    -0.061 A 
ATOM     11  C   UNL     1      40.419 -37.223 -30.292  0.00  0.00    -0.053 A 
ATOM     12  C   UNL     1      39.433 -36.538 -31.027  0.00  0.00    +0.002 A 
ATOM     13  C   UNL     1      39.838 -35.931 -32.232  0.00  0.00    -0.053 A 
ATOM     14  C   UNL     1      41.157 -36.014 -32.687  0.00  0.00    -0.061 A 
ENDBRANCH   3  12
ENDBRANCH   1   6
BRANCH   1  15
ATOM     15  C   UNL     1      33.187 -37.074 -29.851  0.00  0.00    +0.023 C 
BRANCH  15  16
ATOM     16  C   UNL     1      32.633 -37.780 -28.596  0.00  0.00    +0.015 C 
BRANCH  16  17
ATOM     17  N   UNL     1      33.383 -38.995 -28.215  0.00  0.00    -0.296 N 
ATOM     18  C   UNL     1      33.867 -39.697 -29.416  0.00  0.00    +0.003 C 
ATOM     19  C   UNL     1      34.813 -40.843 -29.031  0.00  0.00    -0.015 C 
ATOM     20  C   UNL     1      34.224 -41.739 -27.975  0.00  0.00    -0.042 A 
ATOM     21  C   UNL     1      34.764 -43.011 -27.747  0.00  0.00    -0.058 A 
ATOM     22  C   UNL     1      34.238 -43.832 -26.750  0.00  0.00    -0.061 A 
ATOM     23  C   UNL     1      33.173 -43.385 -25.971  0.00  0.00    -0.061 A 
ATOM     24  C   UNL     1      32.638 -42.114 -26.183  0.00  0.00    -0.057 A 
ATOM     25  C   UNL     1      33.165 -41.274 -27.176  0.00  0.00    -0.030 A 
ATOM     26  C   UNL     1      32.541 -39.914 -27.418  0.00  0.00    +0.024 C 
ATOM     27  H   UNL     1      34.178 -38.702 -27.647  0.00  0.00    +0.000 HD
ENDBRANCH  16  17
ENDBRANCH  15  16
ENDBRANCH   1  15
TORSDOF 5
ENDMDL
MODEL 19
REMARK VINA RESULT:    -6.900     16.511     19.052
REMARK INTER + INTRA:          -9.435
REMARK INTER:                  -8.480
REMARK INTRA:                  -0.954
REMARK UNBOUND:                -0.517
REMARK  Name = cpd265.pdb
REMARK  5 active torsions:
REMARK  status: ('A' for Active; 'I' for Inactive)
REMARK    1  A    between atoms: C_4  and  C_5
REMARK    2  A    between atoms: C_8  and  N_9
REMARK    3  A    between atoms: N_9  and  C_10
REMARK    4  A    between atoms: C_10  and  C_11
REMARK    5  A    between atoms: C_11  and  N_12
REMARK                            x       y       z     vdW  Elec       q    Type
REMARK                         _______ _______ _______ _____ _____    ______ ____
ROOT
ATOM      1  N   UNL     1      45.779 -18.640 -35.355  0.00  0.00    -0.326 N 
ATOM      2  H   UNL     1      46.263 -18.863 -34.527  0.00  0.00    +0.000 HD
ENDROOT
BRANCH   1   6
ATOM      3  C   UNL     1      46.211 -20.707 -38.946  0.00  0.00    +0.093 A 
ATOM      4  C   UNL     1      47.252 -19.898 -38.509  0.00  0.00    -0.031 A 
ATOM      5  C   UNL     1      47.124 -19.199 -37.309  0.00  0.00    -0.018 A 
ATOM      6  C   UNL     1      45.961 -19.322 -36.570  0.00  0.00    +0.141 A 
ATOM      7  N   UNL     1      44.977 -20.135 -36.993  0.00  0.00    -0.134 NA
ATOM      8  N   UNL     1      45.097 -20.823 -38.186  0.00  0.00    -0.147 NA
BRANCH   3  12
ATOM      9  C   UNL     1      46.329 -22.981 -42.603  0.00  0.00    -0.062 A 
ATOM     10  C   UNL     1      45.300 -22.071 -42.385  0.00  0.00    -0.061 A 
ATOM     11  C   UNL     1      45.255 -21.332 -41.197  0.00  0.00    -0.053 A 
ATOM     12  C   UNL     1      46.240 -21.481 -40.202  0.00  0.00    +0.002 A 
ATOM     13  C   UNL     1      47.265 -22.416 -40.448  0.00  0.00    -0.053 A 
ATOM     14  C   UNL     1      47.311 -23.156 -41.633  0.00  0.00    -0.061 A 
ENDBRANCH   3  12
ENDBRANCH   1   6
BRANCH   1  15
ATOM     15  C   UNL     1      44.784 -17.553 -35.453  0.00  0.00    +0.023 C 
BRANCH  15  16
ATOM     16  C   UNL     1      43.543 -17.796 -34.567  0.00  0.00    +0.015 C 
BRANCH  16  17
ATOM     17  N   UNL     1      42.979 -19.157 -34.692  0.00  0.00    -0.296 N 
ATOM     18  C   UNL     1      41.856 -19.161 -35.645  0.00  0.00    +0.003 C 
ATOM     19  C   UNL     1      41.394 -20.596 -35.934  0.00  0.00    -0.015 C 
ATOM     20  C   UNL     1      41.149 -21.381 -34.673  0.00  0.00    -0.042 A 
ATOM     21  C   UNL     1      40.403 -22.566 -34.713  0.00  0.00    -0.058 A 
ATOM     22  C   UNL     1      40.199 -23.310 -33.551  0.00  0.00    -0.061 A 
ATOM     23  C   UNL     1      40.744 -22.878 -32.344  0.00  0.00    -0.061 A 
ATOM     24  C   UNL     1      41.500 -21.705 -32.299  0.00  0.00    -0.057 A 
ATOM     25  C   UNL     1      41.722 -20.954 -33.463  0.00  0.00    -0.030 A 
ATOM     26  C   UNL     1      42.509 -19.661 -33.383  0.00  0.00    +0.024 C 
ATOM     27  H   UNL     1      43.720 -19.769 -35.033  0.00  0.00    +0.000 HD
ENDBRANCH  16  17
ENDBRANCH  15  16
ENDBRANCH   1  15
TORSDOF 5
ENDMDL
MODEL 20
REMARK VINA RESULT:    -6.765     16.992     20.434
REMARK INTER + INTRA:          -9.260
REMARK INTER:                  -8.556
REMARK INTRA:                  -0.704
REMARK UNBOUND:                -0.517
REMARK  Name = cpd265.pdb
REMARK  5 active torsions:
REMARK  status: ('A' for Active; 'I' for Inactive)
REMARK    1  A    between atoms: C_4  and  C_5
REMARK    2  A    between atoms: C_8  and  N_9
REMARK    3  A    between atoms: N_9  and  C_10
REMARK    4  A    between atoms: C_10  and  C_11
REMARK    5  A    between atoms: C_11  and  N_12
REMARK                            x       y       z     vdW  Elec       q    Type
REMARK                         _______ _______ _______ _____ _____    ______ ____
ROOT
ATOM      1  N   UNL     1      46.721 -18.871 -35.178  0.00  0.00    -0.326 N 
ATOM      2  H   UNL     1      47.294 -18.294 -34.621  0.00  0.00    +0.000 HD
ENDROOT
BRANCH   1   6
ATOM      3  C   UNL     1      42.880 -20.126 -34.170  0.00  0.00    +0.093 A 
ATOM      4  C   UNL     1      43.501 -19.171 -33.377  0.00  0.00    -0.031 A 
ATOM      5  C   UNL     1      44.788 -18.739 -33.700  0.00  0.00    -0.018 A 
ATOM      6  C   UNL     1      45.425 -19.269 -34.807  0.00  0.00    +0.141 A 
ATOM      7  N   UNL     1      44.794 -20.169 -35.581  0.00  0.00    -0.134 NA
ATOM      8  N   UNL     1      43.523 -20.606 -35.259  0.00  0.00    -0.147 NA
BRANCH   3  12
ATOM      9  C   UNL     1      38.934 -21.667 -33.383  0.00  0.00    -0.062 A 
ATOM     10  C   UNL     1      39.489 -21.797 -34.653  0.00  0.00    -0.061 A 
ATOM     11  C   UNL     1      40.769 -21.295 -34.914  0.00  0.00    -0.053 A 
ATOM     12  C   UNL     1      41.527 -20.657 -33.913  0.00  0.00    +0.002 A 
ATOM     13  C   UNL     1      40.935 -20.534 -32.641  0.00  0.00    -0.053 A 
ATOM     14  C   UNL     1      39.655 -21.034 -32.377  0.00  0.00    -0.061 A 
ENDBRANCH   3  12
ENDBRANCH   1   6
BRANCH   1  15
ATOM     15  C   UNL     1      47.132 -19.409 -36.490  0.00  0.00    +0.023 C 
BRANCH  15  16
ATOM     16  C   UNL     1      47.117 -18.342 -37.605  0.00  0.00    +0.015 C 
BRANCH  16  17
ATOM     17  N   UNL     1      46.790 -18.881 -38.942  0.00  0.00    -0.296 N 
ATOM     18  C   UNL     1      45.366 -18.662 -39.248  0.00  0.00    +0.003 C 
ATOM     19  C   UNL     1      45.060 -19.034 -40.706  0.00  0.00    -0.015 C 
ATOM     20  C   UNL     1      45.577 -20.402 -41.066  0.00  0.00    -0.042 A 
ATOM     21  C   UNL     1      45.105 -21.055 -42.211  0.00  0.00    -0.058 A 
ATOM     22  C   UNL     1      45.602 -22.309 -42.562  0.00  0.00    -0.061 A 
ATOM     23  C   UNL     1      46.579 -22.915 -41.776  0.00  0.00    -0.061 A 
ATOM     24  C   UNL     1      47.064 -22.264 -40.640  0.00  0.00    -0.057 A 
ATOM     25  C   UNL     1      46.580 -20.998 -40.283  0.00  0.00    -0.030 A 
ATOM     26  C   UNL     1      47.090 -20.327 -39.022  0.00  0.00    +0.024 C 
ATOM     27  H   UNL     1      47.366 -18.387 -39.624  0.00  0.00    +0.000 HD
ENDBRANCH  16  17
ENDBRANCH  15  16
ENDBRANCH   1  15
TORSDOF 5
ENDMDL
