@<TRIPOS>MOLECULE
*****
 41 44 0 0 0
SMALL
GASTEIGER

@<TRIPOS>ATOM
      1 C          -1.7321   -2.0000    0.0000 C.3     1  UNL1        0.2526
      2 O          -0.8660   -1.5000    0.0000 O.3     1  UNL1       -0.4683
      3 C          -0.8660   -0.5000    0.0000 C.ar    1  UNL1        0.1756
      4 C          -1.7321   -0.0000    0.0000 C.ar    1  UNL1        0.0448
      5 C          -1.7321    1.0000    0.0000 C.ar    1  UNL1        0.0613
      6 C          -2.5981    1.5000    0.0000 C.2     1  UNL1        0.2650
      7 O          -2.5981    2.5000    0.0000 O.2     1  UNL1       -0.2684
      8 N          -3.4641    1.0000    0.0000 N.am    1  UNL1       -0.2017
      9 C          -4.3301    1.5000    0.0000 C.3     1  UNL1        0.1155
     10 C          -4.3301    2.5000    0.0000 C.3     1  UNL1        0.0234
     11 C          -5.1962    3.0000    0.0000 C.3     1  UNL1        0.0018
     12 C          -5.1962    4.0000    0.0000 C.3     1  UNL1        0.0001
     13 C          -6.0622    4.5000    0.0000 C.3     1  UNL1        0.0000
     14 C          -6.0622    5.5000    0.0000 C.3     1  UNL1        0.0005
     15 C          -6.9282    6.0000    0.0000 C.3     1  UNL1        0.0097
     16 C          -6.9282    7.0000    0.0000 C.3     1  UNL1        0.0885
     17 C          -7.7942    7.5000    0.0000 C.2     1  UNL1        0.2606
     18 O          -7.7942    8.5000    0.0000 O.2     1  UNL1       -0.2717
     19 N          -8.6603    7.0000    0.0000 N.am    1  UNL1       -0.0905
     20 N          -9.5263    7.5000    0.0000 N.pl3   1  UNL1       -0.1257
     21 C         -10.3923    7.0000    0.0000 C.ar    1  UNL1        0.0849
     22 C         -11.2583    7.5000    0.0000 C.ar    1  UNL1       -0.0094
     23 C         -12.1244    7.0000    0.0000 C.ar    1  UNL1       -0.0248
     24 C         -12.1244    6.0000    0.0000 C.ar    1  UNL1       -0.0045
     25 C         -11.2583    5.5000    0.0000 C.ar    1  UNL1        0.0010
     26 C         -11.2583    4.5000    0.0000 C.ar    1  UNL1        0.0000
     27 C         -10.3923    4.0000    0.0000 C.ar    1  UNL1        0.0000
     28 C          -9.5263    4.5000    0.0000 C.ar    1  UNL1        0.0000
     29 C          -9.5263    5.5000    0.0000 C.ar    1  UNL1        0.0013
     30 C         -10.3923    6.0000    0.0000 C.ar    1  UNL1        0.0164
     31 C         -12.9904    7.5000    0.0000 C.3     1  UNL1        0.0261
     32 C         -12.9904    8.5000    0.0000 C.3     1  UNL1        0.0050
     33 C         -12.1244    9.0000    0.0000 C.3     1  UNL1        0.0051
     34 C         -11.2583    8.5000    0.0000 C.3     1  UNL1        0.0274
     35 C          -0.8660    1.5000    0.0000 C.ar    1  UNL1        0.0448
     36 C          -0.0000    1.0000    0.0000 C.ar    1  UNL1        0.1756
     37 O           0.8660    1.5000    0.0000 O.3     1  UNL1       -0.4683
     38 C           0.8660    2.5000    0.0000 C.3     1  UNL1        0.2526
     39 C           0.0000    0.0000    0.0000 C.ar    1  UNL1        0.2061
     40 O           0.8660   -0.5000    0.0000 O.3     1  UNL1       -0.4654
     41 C           1.7321    0.0000    0.0000 C.3     1  UNL1        0.2528
@<TRIPOS>BOND
     1     1     2    1
     2     2     3    1
     3     3     4   ar
     4     4     5   ar
     5     5     6    1
     6     6     7    2
     7     6     8   am
     8     8     9    1
     9     9    10    1
    10    10    11    1
    11    11    12    1
    12    12    13    1
    13    13    14    1
    14    14    15    1
    15    15    16    1
    16    16    17    1
    17    17    18    2
    18    17    19   am
    19    19    20    1
    20    20    21    1
    21    21    22   ar
    22    22    23   ar
    23    23    24   ar
    24    24    25   ar
    25    25    26   ar
    26    26    27   ar
    27    27    28   ar
    28    28    29   ar
    29    29    30   ar
    30    21    30   ar
    31    25    30   ar
    32    23    31    1
    33    31    32    1
    34    32    33    1
    35    33    34    1
    36    22    34    1
    37     5    35   ar
    38    35    36   ar
    39    36    37    1
    40    37    38    1
    41    36    39   ar
    42     3    39   ar
    43    39    40    1
    44    40    41    1
