MODEL 1
REMARK VINA RESULT:    -8.368      0.000      0.000
REMARK INTER + INTRA:         -18.834
REMARK INTER:                 -15.705
REMARK INTRA:                  -3.129
REMARK UNBOUND:                -3.129
REMARK  Name = cpd94.pdb
REMARK  18 active torsions:
REMARK  status: ('A' for Active; 'I' for Inactive)
REMARK    1  A    between atoms: C_1  and  O_2
REMARK    2  A    between atoms: O_2  and  C_3
REMARK    3  A    between atoms: C_5  and  C_6
REMARK    4  A    between atoms: N_8  and  C_9
REMARK    5  A    between atoms: C_9  and  C_10
REMARK    6  A    between atoms: C_10  and  C_11
REMARK    7  A    between atoms: C_11  and  C_12
REMARK    8  A    between atoms: C_12  and  C_13
REMARK    9  A    between atoms: C_13  and  C_14
REMARK   10  A    between atoms: C_14  and  C_15
REMARK   11  A    between atoms: C_15  and  C_16
REMARK   12  A    between atoms: C_16  and  C_17
REMARK   13  A    between atoms: N_19  and  N_20
REMARK   14  A    between atoms: N_20  and  C_21
REMARK   15  A    between atoms: C_36  and  O_37
REMARK   16  A    between atoms: O_37  and  C_38
REMARK   17  A    between atoms: C_39  and  O_40
REMARK   18  A    between atoms: O_40  and  C_41
REMARK                            x       y       z     vdW  Elec       q    Type
REMARK                         _______ _______ _______ _____ _____    ______ ____
ROOT
ATOM      1  C   UNL A   1      32.929 -37.918 -31.587  0.00  0.00    -0.053 C 
ENDROOT
BRANCH   1   2
ATOM      2  C   UNL A   1      33.681 -39.061 -30.904  0.00  0.00    -0.053 C 
BRANCH   2   3
ATOM      3  C   UNL A   1      34.730 -39.680 -31.830  0.00  0.00    -0.053 C 
BRANCH   3   4
ATOM      4  C   UNL A   1      35.522 -40.771 -31.107  0.00  0.00    -0.052 C 
BRANCH   4   5
ATOM      5  C   UNL A   1      36.005 -40.303 -29.734  0.00  0.00    -0.037 C 
BRANCH   5   6
ATOM      6  C   UNL A   1      35.513 -41.239 -28.632  0.00  0.00    +0.012 C 
BRANCH   6   9
ATOM      7  C   UNL A   1      33.649 -40.308 -27.314  0.00  0.00    +0.244 C 
ATOM      8  O   UNL A   1      32.795 -40.738 -28.078  0.00  0.00    -0.270 OA
ATOM      9  N   UNL A   1      35.003 -40.504 -27.492  0.00  0.00    -0.311 N 
ATOM     10  H   UNL A   1      35.635 -40.138 -26.832  0.00  0.00    +0.000 HD
BRANCH   7  13
ATOM     11  C   UNL A   1      33.169 -39.104 -23.745  0.00  0.00    +0.166 A 
ATOM     12  C   UNL A   1      33.567 -39.890 -24.828  0.00  0.00    -0.004 A 
ATOM     13  C   UNL A   1      33.249 -39.493 -26.135  0.00  0.00    +0.044 A 
ATOM     14  C   UNL A   1      32.510 -38.323 -26.365  0.00  0.00    -0.004 A 
ATOM     15  C   UNL A   1      32.102 -37.528 -25.295  0.00  0.00    +0.166 A 
ATOM     16  C   UNL A   1      32.428 -37.933 -23.989  0.00  0.00    +0.204 A 
BRANCH  11  18
ATOM     17  C   UNL A   1      32.845 -40.567 -21.882  0.00  0.00    +0.079 C 
ATOM     18  O   UNL A   1      33.428 -39.393 -22.430  0.00  0.00    -0.491 OA
ENDBRANCH  11  18
BRANCH  15  19
ATOM     19  O   UNL A   1      31.389 -36.363 -25.411  0.00  0.00    -0.491 OA
ATOM     20  C   UNL A   1      31.856 -35.399 -26.346  0.00  0.00    +0.079 C 
ENDBRANCH  15  19
BRANCH  16  21
ATOM     21  O   UNL A   1      32.074 -37.132 -22.925  0.00  0.00    -0.488 OA
ATOM     22  C   UNL A   1      30.757 -37.462 -22.487  0.00  0.00    +0.079 C 
ENDBRANCH  16  21
ENDBRANCH   7  13
ENDBRANCH   6   9
ENDBRANCH   5   6
ENDBRANCH   4   5
ENDBRANCH   3   4
ENDBRANCH   2   3
ENDBRANCH   1   2
BRANCH   1  23
ATOM     23  C   UNL A   1      33.547 -37.593 -32.948  0.00  0.00    -0.045 C 
BRANCH  23  24
ATOM     24  C   UNL A   1      33.546 -36.091 -33.224  0.00  0.00    +0.025 C 
BRANCH  24  25
ATOM     25  C   UNL A   1      34.536 -35.355 -32.347  0.00  0.00    +0.229 C 
ATOM     26  O   UNL A   1      34.223 -34.378 -31.668  0.00  0.00    -0.274 OA
ATOM     27  N   UNL A   1      35.805 -35.900 -32.346  0.00  0.00    -0.236 N 
ATOM     28  H   UNL A   1      35.988 -36.774 -32.760  0.00  0.00    +0.000 HD
BRANCH  27  29
ATOM     29  N   UNL A   1      36.831 -35.149 -31.725  0.00  0.00    -0.264 N 
ATOM     30  H   UNL A   1      36.941 -34.174 -31.800  0.00  0.00    +0.000 HD
BRANCH  29  31
ATOM     31  C   UNL A   1      37.686 -36.017 -30.973  0.00  0.00    +0.056 A 
ATOM     32  C   UNL A   1      39.016 -36.266 -31.401  0.00  0.00    -0.021 A 
ATOM     33  C   UNL A   1      39.845 -37.095 -30.619  0.00  0.00    -0.042 A 
ATOM     34  C   UNL A   1      39.373 -37.597 -29.397  0.00  0.00    -0.050 A 
ATOM     35  C   UNL A   1      38.075 -37.333 -28.944  0.00  0.00    -0.016 A 
ATOM     36  C   UNL A   1      37.630 -37.855 -27.717  0.00  0.00    -0.054 A 
ATOM     37  C   UNL A   1      36.334 -37.615 -27.262  0.00  0.00    -0.061 A 
ATOM     38  C   UNL A   1      35.463 -36.856 -28.032  0.00  0.00    -0.061 A 
ATOM     39  C   UNL A   1      35.896 -36.332 -29.252  0.00  0.00    -0.052 A 
ATOM     40  C   UNL A   1      37.210 -36.543 -29.733  0.00  0.00    +0.005 A 
ATOM     41  C   UNL A   1      41.266 -37.419 -31.018  0.00  0.00    -0.027 C 
ATOM     42  C   UNL A   1      41.545 -37.173 -32.496  0.00  0.00    -0.049 C 
ATOM     43  C   UNL A   1      41.044 -35.795 -32.892  0.00  0.00    -0.049 C 
ATOM     44  C   UNL A   1      39.529 -35.704 -32.712  0.00  0.00    -0.026 C 
ENDBRANCH  29  31
ENDBRANCH  27  29
ENDBRANCH  24  25
ENDBRANCH  23  24
ENDBRANCH   1  23
TORSDOF 15
ENDMDL
MODEL 2
REMARK VINA RESULT:    -7.445      1.486      2.467
REMARK INTER + INTRA:         -17.104
REMARK INTER:                 -14.707
REMARK INTRA:                  -2.396
REMARK UNBOUND:                -3.129
REMARK  Name = cpd94.pdb
REMARK  18 active torsions:
REMARK  status: ('A' for Active; 'I' for Inactive)
REMARK    1  A    between atoms: C_1  and  O_2
REMARK    2  A    between atoms: O_2  and  C_3
REMARK    3  A    between atoms: C_5  and  C_6
REMARK    4  A    between atoms: N_8  and  C_9
REMARK    5  A    between atoms: C_9  and  C_10
REMARK    6  A    between atoms: C_10  and  C_11
REMARK    7  A    between atoms: C_11  and  C_12
REMARK    8  A    between atoms: C_12  and  C_13
REMARK    9  A    between atoms: C_13  and  C_14
REMARK   10  A    between atoms: C_14  and  C_15
REMARK   11  A    between atoms: C_15  and  C_16
REMARK   12  A    between atoms: C_16  and  C_17
REMARK   13  A    between atoms: N_19  and  N_20
REMARK   14  A    between atoms: N_20  and  C_21
REMARK   15  A    between atoms: C_36  and  O_37
REMARK   16  A    between atoms: O_37  and  C_38
REMARK   17  A    between atoms: C_39  and  O_40
REMARK   18  A    between atoms: O_40  and  C_41
REMARK                            x       y       z     vdW  Elec       q    Type
REMARK                         _______ _______ _______ _____ _____    ______ ____
ROOT
ATOM      1  C   UNL A   1      32.735 -38.038 -31.884  0.00  0.00    -0.053 C 
ENDROOT
BRANCH   1   2
ATOM      2  C   UNL A   1      33.709 -38.974 -31.167  0.00  0.00    -0.053 C 
BRANCH   2   3
ATOM      3  C   UNL A   1      34.555 -39.776 -32.157  0.00  0.00    -0.053 C 
BRANCH   3   4
ATOM      4  C   UNL A   1      35.588 -40.635 -31.425  0.00  0.00    -0.052 C 
BRANCH   4   5
ATOM      5  C   UNL A   1      35.515 -40.439 -29.911  0.00  0.00    -0.037 C 
BRANCH   5   6
ATOM      6  C   UNL A   1      34.935 -41.674 -29.226  0.00  0.00    +0.012 C 
BRANCH   6   9
ATOM      7  C   UNL A   1      34.490 -41.747 -26.802  0.00  0.00    +0.244 C 
ATOM      8  O   UNL A   1      35.481 -42.426 -26.565  0.00  0.00    -0.270 OA
ATOM      9  N   UNL A   1      34.139 -41.322 -28.067  0.00  0.00    -0.311 N 
ATOM     10  H   UNL A   1      33.334 -40.768 -28.185  0.00  0.00    +0.000 HD
BRANCH   7  13
ATOM     11  C   UNL A   1      32.573 -39.714 -24.230  0.00  0.00    +0.166 A 
ATOM     12  C   UNL A   1      33.442 -40.034 -25.275  0.00  0.00    -0.004 A 
ATOM     13  C   UNL A   1      33.568 -41.366 -25.697  0.00  0.00    +0.044 A 
ATOM     14  C   UNL A   1      32.845 -42.387 -25.064  0.00  0.00    -0.004 A 
ATOM     15  C   UNL A   1      31.974 -42.086 -24.018  0.00  0.00    +0.166 A 
ATOM     16  C   UNL A   1      31.853 -40.748 -23.602  0.00  0.00    +0.204 A 
BRANCH  11  18
ATOM     17  C   UNL A   1      33.454 -37.814 -23.080  0.00  0.00    +0.079 C 
ATOM     18  O   UNL A   1      32.369 -38.451 -23.739  0.00  0.00    -0.491 OA
ENDBRANCH  11  18
BRANCH  15  19
ATOM     19  O   UNL A   1      31.213 -43.004 -23.342  0.00  0.00    -0.491 OA
ATOM     20  C   UNL A   1      31.870 -44.167 -22.853  0.00  0.00    +0.079 C 
ENDBRANCH  15  19
BRANCH  16  21
ATOM     21  O   UNL A   1      30.960 -40.429 -22.603  0.00  0.00    -0.488 OA
ATOM     22  C   UNL A   1      31.595 -40.544 -21.330  0.00  0.00    +0.079 C 
ENDBRANCH  16  21
ENDBRANCH   7  13
ENDBRANCH   6   9
ENDBRANCH   5   6
ENDBRANCH   4   5
ENDBRANCH   3   4
ENDBRANCH   2   3
ENDBRANCH   1   2
BRANCH   1  23
ATOM     23  C   UNL A   1      33.411 -37.351 -33.072  0.00  0.00    -0.045 C 
BRANCH  23  24
ATOM     24  C   UNL A   1      33.199 -35.839 -33.043  0.00  0.00    +0.025 C 
BRANCH  24  25
ATOM     25  C   UNL A   1      34.221 -35.142 -32.171  0.00  0.00    +0.229 C 
ATOM     26  O   UNL A   1      33.937 -34.188 -31.449  0.00  0.00    -0.274 OA
ATOM     27  N   UNL A   1      35.486 -35.696 -32.227  0.00  0.00    -0.236 N 
ATOM     28  H   UNL A   1      35.649 -36.556 -32.677  0.00  0.00    +0.000 HD
BRANCH  27  29
ATOM     29  N   UNL A   1      36.536 -34.975 -31.612  0.00  0.00    -0.264 N 
ATOM     30  H   UNL A   1      36.642 -33.997 -31.640  0.00  0.00    +0.000 HD
BRANCH  29  31
ATOM     31  C   UNL A   1      37.422 -35.878 -30.941  0.00  0.00    +0.056 A 
ATOM     32  C   UNL A   1      38.736 -36.096 -31.432  0.00  0.00    -0.021 A 
ATOM     33  C   UNL A   1      39.597 -36.962 -30.729  0.00  0.00    -0.042 A 
ATOM     34  C   UNL A   1      39.173 -37.534 -29.519  0.00  0.00    -0.050 A 
ATOM     35  C   UNL A   1      37.892 -37.302 -29.004  0.00  0.00    -0.016 A 
ATOM     36  C   UNL A   1      37.496 -37.893 -27.791  0.00  0.00    -0.054 A 
ATOM     37  C   UNL A   1      36.218 -37.686 -27.275  0.00  0.00    -0.061 A 
ATOM     38  C   UNL A   1      35.316 -36.891 -27.969  0.00  0.00    -0.061 A 
ATOM     39  C   UNL A   1      35.699 -36.298 -29.173  0.00  0.00    -0.052 A 
ATOM     40  C   UNL A   1      36.995 -36.474 -29.715  0.00  0.00    +0.005 A 
ATOM     41  C   UNL A   1      41.002 -37.255 -31.199  0.00  0.00    -0.027 C 
ATOM     42  C   UNL A   1      41.224 -36.927 -32.671  0.00  0.00    -0.049 C 
ATOM     43  C   UNL A   1      40.703 -35.532 -32.971  0.00  0.00    -0.049 C 
ATOM     44  C   UNL A   1      39.196 -35.460 -32.729  0.00  0.00    -0.026 C 
ENDBRANCH  29  31
ENDBRANCH  27  29
ENDBRANCH  24  25
ENDBRANCH  23  24
ENDBRANCH   1  23
TORSDOF 15
ENDMDL
MODEL 3
REMARK VINA RESULT:    -7.204      3.469      6.608
REMARK INTER + INTRA:         -16.650
REMARK INTER:                 -13.163
REMARK INTRA:                  -3.487
REMARK UNBOUND:                -3.129
REMARK  Name = cpd94.pdb
REMARK  18 active torsions:
REMARK  status: ('A' for Active; 'I' for Inactive)
REMARK    1  A    between atoms: C_1  and  O_2
REMARK    2  A    between atoms: O_2  and  C_3
REMARK    3  A    between atoms: C_5  and  C_6
REMARK    4  A    between atoms: N_8  and  C_9
REMARK    5  A    between atoms: C_9  and  C_10
REMARK    6  A    between atoms: C_10  and  C_11
REMARK    7  A    between atoms: C_11  and  C_12
REMARK    8  A    between atoms: C_12  and  C_13
REMARK    9  A    between atoms: C_13  and  C_14
REMARK   10  A    between atoms: C_14  and  C_15
REMARK   11  A    between atoms: C_15  and  C_16
REMARK   12  A    between atoms: C_16  and  C_17
REMARK   13  A    between atoms: N_19  and  N_20
REMARK   14  A    between atoms: N_20  and  C_21
REMARK   15  A    between atoms: C_36  and  O_37
REMARK   16  A    between atoms: O_37  and  C_38
REMARK   17  A    between atoms: C_39  and  O_40
REMARK   18  A    between atoms: O_40  and  C_41
REMARK                            x       y       z     vdW  Elec       q    Type
REMARK                         _______ _______ _______ _____ _____    ______ ____
ROOT
ATOM      1  C   UNL A   1      33.249 -40.204 -30.033  0.00  0.00    -0.053 C 
ENDROOT
BRANCH   1   2
ATOM      2  C   UNL A   1      32.943 -38.813 -30.591  0.00  0.00    -0.053 C 
BRANCH   2   3
ATOM      3  C   UNL A   1      34.127 -38.246 -31.376  0.00  0.00    -0.053 C 
BRANCH   3   4
ATOM      4  C   UNL A   1      33.695 -37.055 -32.233  0.00  0.00    -0.052 C 
BRANCH   4   5
ATOM      5  C   UNL A   1      32.330 -37.288 -32.879  0.00  0.00    -0.037 C 
BRANCH   5   6
ATOM      6  C   UNL A   1      31.846 -36.035 -33.605  0.00  0.00    +0.012 C 
BRANCH   6   9
ATOM      7  C   UNL A   1      31.772 -33.906 -32.365  0.00  0.00    +0.244 C 
ATOM      8  O   UNL A   1      32.852 -33.528 -32.800  0.00  0.00    -0.270 OA
ATOM      9  N   UNL A   1      31.190 -35.111 -32.703  0.00  0.00    -0.311 N 
ATOM     10  H   UNL A   1      30.313 -35.346 -32.323  0.00  0.00    +0.000 HD
BRANCH   7  13
ATOM     11  C   UNL A   1      30.184 -30.921 -30.636  0.00  0.00    +0.166 A 
ATOM     12  C   UNL A   1      30.882 -31.681 -31.576  0.00  0.00    -0.004 A 
ATOM     13  C   UNL A   1      31.028 -33.063 -31.389  0.00  0.00    +0.044 A 
ATOM     14  C   UNL A   1      30.500 -33.689 -30.250  0.00  0.00    -0.004 A 
ATOM     15  C   UNL A   1      29.802 -32.945 -29.300  0.00  0.00    +0.166 A 
ATOM     16  C   UNL A   1      29.659 -31.560 -29.498  0.00  0.00    +0.204 A 
BRANCH  11  18
ATOM     17  C   UNL A   1      29.156 -29.088 -31.775  0.00  0.00    +0.079 C 
ATOM     18  O   UNL A   1      29.977 -29.568 -30.720  0.00  0.00    -0.491 OA
ENDBRANCH  11  18
BRANCH  15  19
ATOM     19  O   UNL A   1      29.237 -33.459 -28.162  0.00  0.00    -0.491 OA
ATOM     20  C   UNL A   1      29.143 -34.873 -28.058  0.00  0.00    +0.079 C 
ENDBRANCH  15  19
BRANCH  16  21
ATOM     21  O   UNL A   1      28.929 -30.820 -28.592  0.00  0.00    -0.488 OA
ATOM     22  C   UNL A   1      27.548 -30.843 -28.949  0.00  0.00    +0.079 C 
ENDBRANCH  16  21
ENDBRANCH   7  13
ENDBRANCH   6   9
ENDBRANCH   5   6
ENDBRANCH   4   5
ENDBRANCH   3   4
ENDBRANCH   2   3
ENDBRANCH   1   2
BRANCH   1  23
ATOM     23  C   UNL A   1      34.598 -40.714 -30.543  0.00  0.00    -0.045 C 
BRANCH  23  24
ATOM     24  C   UNL A   1      35.487 -41.198 -29.400  0.00  0.00    +0.025 C 
BRANCH  24  25
ATOM     25  C   UNL A   1      35.823 -40.082 -28.434  0.00  0.00    +0.229 C 
ATOM     26  O   UNL A   1      35.224 -39.921 -27.371  0.00  0.00    -0.274 OA
ATOM     27  N   UNL A   1      36.882 -39.289 -28.830  0.00  0.00    -0.236 N 
ATOM     28  H   UNL A   1      37.450 -39.538 -29.595  0.00  0.00    +0.000 HD
BRANCH  27  29
ATOM     29  N   UNL A   1      37.115 -38.104 -28.093  0.00  0.00    -0.264 N 
ATOM     30  H   UNL A   1      37.395 -38.072 -27.150  0.00  0.00    +0.000 HD
BRANCH  29  31
ATOM     31  C   UNL A   1      36.883 -36.959 -28.920  0.00  0.00    +0.056 A 
ATOM     32  C   UNL A   1      37.836 -36.570 -29.897  0.00  0.00    -0.021 A 
ATOM     33  C   UNL A   1      37.562 -35.461 -30.722  0.00  0.00    -0.042 A 
ATOM     34  C   UNL A   1      36.325 -34.807 -30.618  0.00  0.00    -0.050 A 
ATOM     35  C   UNL A   1      35.359 -35.199 -29.683  0.00  0.00    -0.016 A 
ATOM     36  C   UNL A   1      34.131 -34.519 -29.601  0.00  0.00    -0.054 A 
ATOM     37  C   UNL A   1      33.168 -34.887 -28.663  0.00  0.00    -0.061 A 
ATOM     38  C   UNL A   1      33.424 -35.934 -27.788  0.00  0.00    -0.061 A 
ATOM     39  C   UNL A   1      34.640 -36.616 -27.862  0.00  0.00    -0.052 A 
ATOM     40  C   UNL A   1      35.631 -36.279 -28.814  0.00  0.00    +0.005 A 
ATOM     41  C   UNL A   1      38.534 -34.979 -31.772  0.00  0.00    -0.027 C 
ATOM     42  C   UNL A   1      39.958 -35.475 -31.544  0.00  0.00    -0.049 C 
ATOM     43  C   UNL A   1      39.946 -36.973 -31.290  0.00  0.00    -0.049 C 
ATOM     44  C   UNL A   1      39.163 -37.294 -30.018  0.00  0.00    -0.026 C 
ENDBRANCH  29  31
ENDBRANCH  27  29
ENDBRANCH  24  25
ENDBRANCH  23  24
ENDBRANCH   1  23
TORSDOF 15
ENDMDL
MODEL 4
REMARK VINA RESULT:    -7.139     16.865     21.212
REMARK INTER + INTRA:         -16.528
REMARK INTER:                 -13.573
REMARK INTRA:                  -2.954
REMARK UNBOUND:                -3.129
REMARK  Name = cpd94.pdb
REMARK  18 active torsions:
REMARK  status: ('A' for Active; 'I' for Inactive)
REMARK    1  A    between atoms: C_1  and  O_2
REMARK    2  A    between atoms: O_2  and  C_3
REMARK    3  A    between atoms: C_5  and  C_6
REMARK    4  A    between atoms: N_8  and  C_9
REMARK    5  A    between atoms: C_9  and  C_10
REMARK    6  A    between atoms: C_10  and  C_11
REMARK    7  A    between atoms: C_11  and  C_12
REMARK    8  A    between atoms: C_12  and  C_13
REMARK    9  A    between atoms: C_13  and  C_14
REMARK   10  A    between atoms: C_14  and  C_15
REMARK   11  A    between atoms: C_15  and  C_16
REMARK   12  A    between atoms: C_16  and  C_17
REMARK   13  A    between atoms: N_19  and  N_20
REMARK   14  A    between atoms: N_20  and  C_21
REMARK   15  A    between atoms: C_36  and  O_37
REMARK   16  A    between atoms: O_37  and  C_38
REMARK   17  A    between atoms: C_39  and  O_40
REMARK   18  A    between atoms: O_40  and  C_41
REMARK                            x       y       z     vdW  Elec       q    Type
REMARK                         _______ _______ _______ _____ _____    ______ ____
ROOT
ATOM      1  C   UNL A   1      46.261 -22.678 -42.785  0.00  0.00    -0.053 C 
ENDROOT
BRANCH   1   2
ATOM      2  C   UNL A   1      44.836 -22.127 -42.722  0.00  0.00    -0.053 C 
BRANCH   2   3
ATOM      3  C   UNL A   1      44.508 -21.568 -41.337  0.00  0.00    -0.053 C 
BRANCH   3   4
ATOM      4  C   UNL A   1      43.034 -21.166 -41.245  0.00  0.00    -0.052 C 
BRANCH   4   5
ATOM      5  C   UNL A   1      42.447 -21.483 -39.870  0.00  0.00    -0.037 C 
BRANCH   5   6
ATOM      6  C   UNL A   1      40.951 -21.175 -39.829  0.00  0.00    +0.012 C 
BRANCH   6   9
ATOM      7  C   UNL A   1      40.490 -22.142 -37.609  0.00  0.00    +0.244 C 
ATOM      8  O   UNL A   1      40.928 -23.244 -37.915  0.00  0.00    -0.270 OA
ATOM      9  N   UNL A   1      40.464 -21.063 -38.469  0.00  0.00    -0.311 N 
ATOM     10  H   UNL A   1      40.107 -20.202 -38.153  0.00  0.00    +0.000 HD
BRANCH   7  13
ATOM     11  C   UNL A   1      39.042 -22.750 -34.151  0.00  0.00    +0.166 A 
ATOM     12  C   UNL A   1      39.587 -22.995 -35.413  0.00  0.00    -0.004 A 
ATOM     13  C   UNL A   1      39.914 -21.921 -36.254  0.00  0.00    +0.044 A 
ATOM     14  C   UNL A   1      39.676 -20.600 -35.849  0.00  0.00    -0.004 A 
ATOM     15  C   UNL A   1      39.130 -20.337 -34.594  0.00  0.00    +0.166 A 
ATOM     16  C   UNL A   1      38.807 -21.421 -33.757  0.00  0.00    +0.204 A 
BRANCH  11  18
ATOM     17  C   UNL A   1      37.693 -24.656 -33.638  0.00  0.00    +0.079 C 
ATOM     18  O   UNL A   1      38.689 -23.720 -33.249  0.00  0.00    -0.491 OA
ENDBRANCH  11  18
BRANCH  15  19
ATOM     19  O   UNL A   1      38.871 -19.086 -34.097  0.00  0.00    -0.491 OA
ATOM     20  C   UNL A   1      39.985 -18.261 -33.783  0.00  0.00    +0.079 C 
ENDBRANCH  15  19
BRANCH  16  21
ATOM     21  O   UNL A   1      38.313 -21.174 -32.494  0.00  0.00    -0.488 OA
ATOM     22  C   UNL A   1      36.908 -20.937 -32.562  0.00  0.00    +0.079 C 
ENDBRANCH  16  21
ENDBRANCH   7  13
ENDBRANCH   6   9
ENDBRANCH   5   6
ENDBRANCH   4   5
ENDBRANCH   3   4
ENDBRANCH   2   3
ENDBRANCH   1   2
BRANCH   1  23
ATOM     23  C   UNL A   1      46.766 -23.051 -41.390  0.00  0.00    -0.045 C 
BRANCH  23  24
ATOM     24  C   UNL A   1      48.052 -22.307 -41.038  0.00  0.00    +0.025 C 
BRANCH  24  25
ATOM     25  C   UNL A   1      47.789 -20.857 -40.693  0.00  0.00    +0.229 C 
ATOM     26  O   UNL A   1      47.970 -19.941 -41.494  0.00  0.00    -0.274 OA
ATOM     27  N   UNL A   1      47.292 -20.659 -39.420  0.00  0.00    -0.236 N 
ATOM     28  H   UNL A   1      46.997 -21.415 -38.861  0.00  0.00    +0.000 HD
BRANCH  27  29
ATOM     29  N   UNL A   1      47.225 -19.326 -38.951  0.00  0.00    -0.264 N 
ATOM     30  H   UNL A   1      47.972 -18.685 -38.962  0.00  0.00    +0.000 HD
BRANCH  29  31
ATOM     31  C   UNL A   1      45.910 -19.046 -38.458  0.00  0.00    +0.056 A 
ATOM     32  C   UNL A   1      44.940 -18.436 -39.296  0.00  0.00    -0.021 A 
ATOM     33  C   UNL A   1      43.644 -18.209 -38.794  0.00  0.00    -0.042 A 
ATOM     34  C   UNL A   1      43.308 -18.654 -37.506  0.00  0.00    -0.050 A 
ATOM     35  C   UNL A   1      44.243 -19.287 -36.679  0.00  0.00    -0.016 A 
ATOM     36  C   UNL A   1      43.878 -19.718 -35.391  0.00  0.00    -0.054 A 
ATOM     37  C   UNL A   1      44.803 -20.334 -34.550  0.00  0.00    -0.061 A 
ATOM     38  C   UNL A   1      46.109 -20.521 -34.982  0.00  0.00    -0.061 A 
ATOM     39  C   UNL A   1      46.482 -20.098 -36.259  0.00  0.00    -0.052 A 
ATOM     40  C   UNL A   1      45.562 -19.485 -37.144  0.00  0.00    +0.005 A 
ATOM     41  C   UNL A   1      42.564 -17.550 -39.621  0.00  0.00    -0.027 C 
ATOM     42  C   UNL A   1      43.112 -16.767 -40.808  0.00  0.00    -0.049 C 
ATOM     43  C   UNL A   1      44.104 -17.624 -41.576  0.00  0.00    -0.049 C 
ATOM     44  C   UNL A   1      45.302 -17.975 -40.694  0.00  0.00    -0.026 C 
ENDBRANCH  29  31
ENDBRANCH  27  29
ENDBRANCH  24  25
ENDBRANCH  23  24
ENDBRANCH   1  23
TORSDOF 15
ENDMDL
MODEL 5
REMARK VINA RESULT:    -7.133      3.264      6.213
REMARK INTER + INTRA:         -16.516
REMARK INTER:                 -13.940
REMARK INTRA:                  -2.577
REMARK UNBOUND:                -3.129
REMARK  Name = cpd94.pdb
REMARK  18 active torsions:
REMARK  status: ('A' for Active; 'I' for Inactive)
REMARK    1  A    between atoms: C_1  and  O_2
REMARK    2  A    between atoms: O_2  and  C_3
REMARK    3  A    between atoms: C_5  and  C_6
REMARK    4  A    between atoms: N_8  and  C_9
REMARK    5  A    between atoms: C_9  and  C_10
REMARK    6  A    between atoms: C_10  and  C_11
REMARK    7  A    between atoms: C_11  and  C_12
REMARK    8  A    between atoms: C_12  and  C_13
REMARK    9  A    between atoms: C_13  and  C_14
REMARK   10  A    between atoms: C_14  and  C_15
REMARK   11  A    between atoms: C_15  and  C_16
REMARK   12  A    between atoms: C_16  and  C_17
REMARK   13  A    between atoms: N_19  and  N_20
REMARK   14  A    between atoms: N_20  and  C_21
REMARK   15  A    between atoms: C_36  and  O_37
REMARK   16  A    between atoms: O_37  and  C_38
REMARK   17  A    between atoms: C_39  and  O_40
REMARK   18  A    between atoms: O_40  and  C_41
REMARK                            x       y       z     vdW  Elec       q    Type
REMARK                         _______ _______ _______ _____ _____    ______ ____
ROOT
ATOM      1  C   UNL A   1      33.959 -40.407 -30.822  0.00  0.00    -0.053 C 
ENDROOT
BRANCH   1   2
ATOM      2  C   UNL A   1      33.770 -38.991 -31.368  0.00  0.00    -0.053 C 
BRANCH   2   3
ATOM      3  C   UNL A   1      32.630 -38.258 -30.658  0.00  0.00    -0.053 C 
BRANCH   3   4
ATOM      4  C   UNL A   1      32.136 -39.056 -29.450  0.00  0.00    -0.052 C 
BRANCH   4   5
ATOM      5  C   UNL A   1      32.333 -38.285 -28.145  0.00  0.00    -0.037 C 
BRANCH   5   6
ATOM      6  C   UNL A   1      31.058 -37.543 -27.749  0.00  0.00    +0.012 C 
BRANCH   6   9
ATOM      7  C   UNL A   1      31.389 -35.172 -28.335  0.00  0.00    +0.244 C 
ATOM      8  O   UNL A   1      32.136 -34.963 -27.387  0.00  0.00    -0.270 OA
ATOM      9  N   UNL A   1      30.817 -36.398 -28.604  0.00  0.00    -0.311 N 
ATOM     10  H   UNL A   1      30.234 -36.497 -29.391  0.00  0.00    +0.000 HD
BRANCH   7  13
ATOM     11  C   UNL A   1      29.404 -32.814 -30.555  0.00  0.00    +0.166 A 
ATOM     12  C   UNL A   1      29.706 -33.866 -29.687  0.00  0.00    -0.004 A 
ATOM     13  C   UNL A   1      31.026 -34.058 -29.254  0.00  0.00    +0.044 A 
ATOM     14  C   UNL A   1      32.054 -33.217 -29.704  0.00  0.00    -0.004 A 
ATOM     15  C   UNL A   1      31.772 -32.163 -30.572  0.00  0.00    +0.166 A 
ATOM     16  C   UNL A   1      30.444 -31.978 -30.999  0.00  0.00    +0.204 A 
BRANCH  11  18
ATOM     17  C   UNL A   1      27.456 -33.566 -31.719  0.00  0.00    +0.079 C 
ATOM     18  O   UNL A   1      28.152 -32.532 -31.037  0.00  0.00    -0.491 OA
ENDBRANCH  11  18
BRANCH  15  19
ATOM     19  O   UNL A   1      32.697 -31.278 -31.060  0.00  0.00    -0.491 OA
ATOM     20  C   UNL A   1      34.028 -31.748 -31.228  0.00  0.00    +0.079 C 
ENDBRANCH  15  19
BRANCH  16  21
ATOM     21  O   UNL A   1      30.141 -30.911 -31.818  0.00  0.00    -0.488 OA
ATOM     22  C   UNL A   1      30.009 -29.724 -31.038  0.00  0.00    +0.079 C 
ENDBRANCH  16  21
ENDBRANCH   7  13
ENDBRANCH   6   9
ENDBRANCH   5   6
ENDBRANCH   4   5
ENDBRANCH   3   4
ENDBRANCH   2   3
ENDBRANCH   1   2
BRANCH   1  23
ATOM     23  C   UNL A   1      35.441 -40.780 -30.771  0.00  0.00    -0.045 C 
BRANCH  23  24
ATOM     24  C   UNL A   1      35.854 -41.259 -29.380  0.00  0.00    +0.025 C 
BRANCH  24  25
ATOM     25  C   UNL A   1      36.340 -40.118 -28.512  0.00  0.00    +0.229 C 
ATOM     26  O   UNL A   1      35.674 -39.660 -27.584  0.00  0.00    -0.274 OA
ATOM     27  N   UNL A   1      37.607 -39.667 -28.826  0.00  0.00    -0.236 N 
ATOM     28  H   UNL A   1      38.184 -40.156 -29.456  0.00  0.00    +0.000 HD
BRANCH  27  29
ATOM     29  N   UNL A   1      38.040 -38.471 -28.205  0.00  0.00    -0.264 N 
ATOM     30  H   UNL A   1      38.167 -38.352 -27.236  0.00  0.00    +0.000 HD
BRANCH  29  31
ATOM     31  C   UNL A   1      38.265 -37.460 -29.194  0.00  0.00    +0.056 A 
ATOM     32  C   UNL A   1      39.514 -37.371 -29.863  0.00  0.00    -0.021 A 
ATOM     33  C   UNL A   1      39.692 -36.390 -30.858  0.00  0.00    -0.042 A 
ATOM     34  C   UNL A   1      38.615 -35.568 -31.225  0.00  0.00    -0.050 A 
ATOM     35  C   UNL A   1      37.367 -35.666 -30.599  0.00  0.00    -0.016 A 
ATOM     36  C   UNL A   1      36.309 -34.824 -30.987  0.00  0.00    -0.054 A 
ATOM     37  C   UNL A   1      35.066 -34.898 -30.360  0.00  0.00    -0.061 A 
ATOM     38  C   UNL A   1      34.867 -35.808 -29.331  0.00  0.00    -0.061 A 
ATOM     39  C   UNL A   1      35.910 -36.649 -28.938  0.00  0.00    -0.052 A 
ATOM     40  C   UNL A   1      37.178 -36.611 -29.567  0.00  0.00    +0.005 A 
ATOM     41  C   UNL A   1      40.997 -36.224 -31.601  0.00  0.00    -0.027 C 
ATOM     42  C   UNL A   1      42.181 -36.860 -30.882  0.00  0.00    -0.049 C 
ATOM     43  C   UNL A   1      41.830 -38.280 -30.468  0.00  0.00    -0.049 C 
ATOM     44  C   UNL A   1      40.668 -38.275 -29.476  0.00  0.00    -0.026 C 
ENDBRANCH  29  31
ENDBRANCH  27  29
ENDBRANCH  24  25
ENDBRANCH  23  24
ENDBRANCH   1  23
TORSDOF 15
ENDMDL
MODEL 6
REMARK VINA RESULT:    -7.065      5.395      8.403
REMARK INTER + INTRA:         -16.390
REMARK INTER:                 -14.785
REMARK INTRA:                  -1.605
REMARK UNBOUND:                -3.129
REMARK  Name = cpd94.pdb
REMARK  18 active torsions:
REMARK  status: ('A' for Active; 'I' for Inactive)
REMARK    1  A    between atoms: C_1  and  O_2
REMARK    2  A    between atoms: O_2  and  C_3
REMARK    3  A    between atoms: C_5  and  C_6
REMARK    4  A    between atoms: N_8  and  C_9
REMARK    5  A    between atoms: C_9  and  C_10
REMARK    6  A    between atoms: C_10  and  C_11
REMARK    7  A    between atoms: C_11  and  C_12
REMARK    8  A    between atoms: C_12  and  C_13
REMARK    9  A    between atoms: C_13  and  C_14
REMARK   10  A    between atoms: C_14  and  C_15
REMARK   11  A    between atoms: C_15  and  C_16
REMARK   12  A    between atoms: C_16  and  C_17
REMARK   13  A    between atoms: N_19  and  N_20
REMARK   14  A    between atoms: N_20  and  C_21
REMARK   15  A    between atoms: C_36  and  O_37
REMARK   16  A    between atoms: O_37  and  C_38
REMARK   17  A    between atoms: C_39  and  O_40
REMARK   18  A    between atoms: O_40  and  C_41
REMARK                            x       y       z     vdW  Elec       q    Type
REMARK                         _______ _______ _______ _____ _____    ______ ____
ROOT
ATOM      1  C   UNL A   1      32.162 -37.768 -32.113  0.00  0.00    -0.053 C 
ENDROOT
BRANCH   1   2
ATOM      2  C   UNL A   1      32.758 -38.694 -31.052  0.00  0.00    -0.053 C 
BRANCH   2   3
ATOM      3  C   UNL A   1      34.033 -39.377 -31.549  0.00  0.00    -0.053 C 
BRANCH   3   4
ATOM      4  C   UNL A   1      33.745 -40.808 -32.008  0.00  0.00    -0.052 C 
BRANCH   4   5
ATOM      5  C   UNL A   1      34.519 -41.160 -33.278  0.00  0.00    -0.037 C 
BRANCH   5   6
ATOM      6  C   UNL A   1      33.580 -41.678 -34.366  0.00  0.00    +0.012 C 
BRANCH   6   9
ATOM      7  C   UNL A   1      33.744 -43.853 -35.514  0.00  0.00    +0.244 C 
ATOM      8  O   UNL A   1      34.042 -43.348 -36.589  0.00  0.00    -0.270 OA
ATOM      9  N   UNL A   1      33.506 -43.125 -34.366  0.00  0.00    -0.311 N 
ATOM     10  H   UNL A   1      33.281 -43.597 -33.533  0.00  0.00    +0.000 HD
BRANCH   7  13
ATOM     11  C   UNL A   1      33.319 -47.350 -34.094  0.00  0.00    +0.166 A 
ATOM     12  C   UNL A   1      33.457 -45.962 -34.160  0.00  0.00    -0.004 A 
ATOM     13  C   UNL A   1      33.588 -45.330 -35.404  0.00  0.00    +0.044 A 
ATOM     14  C   UNL A   1      33.606 -46.081 -36.588  0.00  0.00    -0.004 A 
ATOM     15  C   UNL A   1      33.472 -47.468 -36.542  0.00  0.00    +0.166 A 
ATOM     16  C   UNL A   1      33.339 -48.093 -35.289  0.00  0.00    +0.204 A 
BRANCH  11  18
ATOM     17  C   UNL A   1      34.196 -47.939 -31.950  0.00  0.00    +0.079 C 
ATOM     18  O   UNL A   1      33.181 -48.070 -32.936  0.00  0.00    -0.491 OA
ENDBRANCH  11  18
BRANCH  15  19
ATOM     19  O   UNL A   1      33.464 -48.292 -37.637  0.00  0.00    -0.491 OA
ATOM     20  C   UNL A   1      32.306 -48.277 -38.461  0.00  0.00    +0.079 C 
ENDBRANCH  15  19
BRANCH  16  21
ATOM     21  O   UNL A   1      33.157 -49.458 -35.231  0.00  0.00    -0.488 OA
ATOM     22  C   UNL A   1      31.766 -49.755 -35.116  0.00  0.00    +0.079 C 
ENDBRANCH  16  21
ENDBRANCH   7  13
ENDBRANCH   6   9
ENDBRANCH   5   6
ENDBRANCH   4   5
ENDBRANCH   3   4
ENDBRANCH   2   3
ENDBRANCH   1   2
BRANCH   1  23
ATOM     23  C   UNL A   1      33.215 -37.377 -33.152  0.00  0.00    -0.045 C 
BRANCH  23  24
ATOM     24  C   UNL A   1      33.229 -35.870 -33.401  0.00  0.00    +0.025 C 
BRANCH  24  25
ATOM     25  C   UNL A   1      34.135 -35.146 -32.429  0.00  0.00    +0.229 C 
ATOM     26  O   UNL A   1      33.773 -34.154 -31.797  0.00  0.00    -0.274 OA
ATOM     27  N   UNL A   1      35.385 -35.716 -32.286  0.00  0.00    -0.236 N 
ATOM     28  H   UNL A   1      35.592 -36.599 -32.670  0.00  0.00    +0.000 HD
BRANCH  27  29
ATOM     29  N   UNL A   1      36.354 -34.980 -31.565  0.00  0.00    -0.264 N 
ATOM     30  H   UNL A   1      36.456 -34.001 -31.593  0.00  0.00    +0.000 HD
BRANCH  29  31
ATOM     31  C   UNL A   1      37.166 -35.868 -30.789  0.00  0.00    +0.056 A 
ATOM     32  C   UNL A   1      38.520 -36.102 -31.144  0.00  0.00    -0.021 A 
ATOM     33  C   UNL A   1      39.304 -36.952 -30.338  0.00  0.00    -0.042 A 
ATOM     34  C   UNL A   1      38.762 -37.491 -29.162  0.00  0.00    -0.050 A 
ATOM     35  C   UNL A   1      37.438 -37.242 -28.779  0.00  0.00    -0.016 A 
ATOM     36  C   UNL A   1      36.923 -37.801 -27.596  0.00  0.00    -0.054 A 
ATOM     37  C   UNL A   1      35.601 -37.576 -27.212  0.00  0.00    -0.061 A 
ATOM     38  C   UNL A   1      34.775 -36.797 -28.011  0.00  0.00    -0.061 A 
ATOM     39  C   UNL A   1      35.277 -36.236 -29.187  0.00  0.00    -0.052 A 
ATOM     40  C   UNL A   1      36.619 -36.431 -29.595  0.00  0.00    +0.005 A 
ATOM     41  C   UNL A   1      40.747 -37.261 -30.661  0.00  0.00    -0.027 C 
ATOM     42  C   UNL A   1      41.112 -36.972 -32.113  0.00  0.00    -0.049 C 
ATOM     43  C   UNL A   1      40.631 -35.584 -32.498  0.00  0.00    -0.049 C 
ATOM     44  C   UNL A   1      39.107 -35.501 -32.406  0.00  0.00    -0.026 C 
ENDBRANCH  29  31
ENDBRANCH  27  29
ENDBRANCH  24  25
ENDBRANCH  23  24
ENDBRANCH   1  23
TORSDOF 15
ENDMDL
MODEL 7
REMARK VINA RESULT:    -6.822      3.545      6.942
REMARK INTER + INTRA:         -15.933
REMARK INTER:                 -13.328
REMARK INTRA:                  -2.605
REMARK UNBOUND:                -3.129
REMARK  Name = cpd94.pdb
REMARK  18 active torsions:
REMARK  status: ('A' for Active; 'I' for Inactive)
REMARK    1  A    between atoms: C_1  and  O_2
REMARK    2  A    between atoms: O_2  and  C_3
REMARK    3  A    between atoms: C_5  and  C_6
REMARK    4  A    between atoms: N_8  and  C_9
REMARK    5  A    between atoms: C_9  and  C_10
REMARK    6  A    between atoms: C_10  and  C_11
REMARK    7  A    between atoms: C_11  and  C_12
REMARK    8  A    between atoms: C_12  and  C_13
REMARK    9  A    between atoms: C_13  and  C_14
REMARK   10  A    between atoms: C_14  and  C_15
REMARK   11  A    between atoms: C_15  and  C_16
REMARK   12  A    between atoms: C_16  and  C_17
REMARK   13  A    between atoms: N_19  and  N_20
REMARK   14  A    between atoms: N_20  and  C_21
REMARK   15  A    between atoms: C_36  and  O_37
REMARK   16  A    between atoms: O_37  and  C_38
REMARK   17  A    between atoms: C_39  and  O_40
REMARK   18  A    between atoms: O_40  and  C_41
REMARK                            x       y       z     vdW  Elec       q    Type
REMARK                         _______ _______ _______ _____ _____    ______ ____
ROOT
ATOM      1  C   UNL A   1      33.361 -40.280 -30.122  0.00  0.00    -0.053 C 
ENDROOT
BRANCH   1   2
ATOM      2  C   UNL A   1      33.197 -38.886 -30.728  0.00  0.00    -0.053 C 
BRANCH   2   3
ATOM      3  C   UNL A   1      32.110 -38.082 -30.013  0.00  0.00    -0.053 C 
BRANCH   3   4
ATOM      4  C   UNL A   1      31.854 -38.636 -28.610  0.00  0.00    -0.052 C 
BRANCH   4   5
ATOM      5  C   UNL A   1      32.278 -37.645 -27.526  0.00  0.00    -0.037 C 
BRANCH   5   6
ATOM      6  C   UNL A   1      31.127 -36.712 -27.156  0.00  0.00    +0.012 C 
BRANCH   6   9
ATOM      7  C   UNL A   1      29.967 -34.739 -28.072  0.00  0.00    +0.244 C 
ATOM      8  O   UNL A   1      28.954 -34.934 -27.412  0.00  0.00    -0.270 OA
ATOM      9  N   UNL A   1      31.086 -35.544 -28.014  0.00  0.00    -0.311 N 
ATOM     10  H   UNL A   1      31.870 -35.322 -28.565  0.00  0.00    +0.000 HD
BRANCH   7  13
ATOM     11  C   UNL A   1      29.050 -32.248 -30.788  0.00  0.00    +0.166 A 
ATOM     12  C   UNL A   1      28.960 -33.321 -29.899  0.00  0.00    -0.004 A 
ATOM     13  C   UNL A   1      30.023 -33.599 -29.028  0.00  0.00    +0.044 A 
ATOM     14  C   UNL A   1      31.190 -32.822 -29.056  0.00  0.00    -0.004 A 
ATOM     15  C   UNL A   1      31.299 -31.747 -29.938  0.00  0.00    +0.166 A 
ATOM     16  C   UNL A   1      30.226 -31.476 -30.806  0.00  0.00    +0.204 A 
BRANCH  11  18
ATOM     17  C   UNL A   1      26.728 -31.883 -31.223  0.00  0.00    +0.079 C 
ATOM     18  O   UNL A   1      28.074 -31.884 -31.679  0.00  0.00    -0.491 OA
ENDBRANCH  11  18
BRANCH  15  19
ATOM     19  O   UNL A   1      32.386 -30.920 -30.036  0.00  0.00    -0.491 OA
ATOM     20  C   UNL A   1      33.613 -31.497 -30.462  0.00  0.00    +0.079 C 
ENDBRANCH  15  19
BRANCH  16  21
ATOM     21  O   UNL A   1      30.299 -30.388 -31.649  0.00  0.00    -0.488 OA
ATOM     22  C   UNL A   1      29.691 -29.255 -31.030  0.00  0.00    +0.079 C 
ENDBRANCH  16  21
ENDBRANCH   7  13
ENDBRANCH   6   9
ENDBRANCH   5   6
ENDBRANCH   4   5
ENDBRANCH   3   4
ENDBRANCH   2   3
ENDBRANCH   1   2
BRANCH   1  23
ATOM     23  C   UNL A   1      34.802 -40.773 -30.265  0.00  0.00    -0.045 C 
BRANCH  23  24
ATOM     24  C   UNL A   1      35.411 -41.136 -28.912  0.00  0.00    +0.025 C 
BRANCH  24  25
ATOM     25  C   UNL A   1      35.914 -39.914 -28.174  0.00  0.00    +0.229 C 
ATOM     26  O   UNL A   1      35.283 -39.383 -27.261  0.00  0.00    -0.274 OA
ATOM     27  N   UNL A   1      37.157 -39.475 -28.587  0.00  0.00    -0.236 N 
ATOM     28  H   UNL A   1      37.714 -40.012 -29.196  0.00  0.00    +0.000 HD
BRANCH  27  29
ATOM     29  N   UNL A   1      37.596 -38.222 -28.098  0.00  0.00    -0.264 N 
ATOM     30  H   UNL A   1      37.741 -38.005 -27.149  0.00  0.00    +0.000 HD
BRANCH  29  31
ATOM     31  C   UNL A   1      37.798 -37.315 -29.188  0.00  0.00    +0.056 A 
ATOM     32  C   UNL A   1      36.773 -36.414 -29.575  0.00  0.00    -0.021 A 
ATOM     33  C   UNL A   1      37.016 -35.508 -30.626  0.00  0.00    -0.042 A 
ATOM     34  C   UNL A   1      38.286 -35.458 -31.222  0.00  0.00    -0.050 A 
ATOM     35  C   UNL A   1      39.319 -36.317 -30.829  0.00  0.00    -0.016 A 
ATOM     36  C   UNL A   1      40.579 -36.245 -31.448  0.00  0.00    -0.054 A 
ATOM     37  C   UNL A   1      41.611 -37.106 -31.080  0.00  0.00    -0.061 A 
ATOM     38  C   UNL A   1      41.394 -38.057 -30.092  0.00  0.00    -0.061 A 
ATOM     39  C   UNL A   1      40.147 -38.137 -29.469  0.00  0.00    -0.052 A 
ATOM     40  C   UNL A   1      39.084 -37.265 -29.808  0.00  0.00    +0.005 A 
ATOM     41  C   UNL A   1      35.969 -34.530 -31.104  0.00  0.00    -0.027 C 
ATOM     42  C   UNL A   1      34.553 -34.918 -30.693  0.00  0.00    -0.049 C 
ATOM     43  C   UNL A   1      34.521 -35.250 -29.211  0.00  0.00    -0.049 C 
ATOM     44  C   UNL A   1      35.409 -36.458 -28.914  0.00  0.00    -0.026 C 
ENDBRANCH  29  31
ENDBRANCH  27  29
ENDBRANCH  24  25
ENDBRANCH  23  24
ENDBRANCH   1  23
TORSDOF 15
ENDMDL
MODEL 8
REMARK VINA RESULT:    -6.700      2.224      4.071
REMARK INTER + INTRA:         -15.704
REMARK INTER:                 -13.918
REMARK INTRA:                  -1.786
REMARK UNBOUND:                -3.129
REMARK  Name = cpd94.pdb
REMARK  18 active torsions:
REMARK  status: ('A' for Active; 'I' for Inactive)
REMARK    1  A    between atoms: C_1  and  O_2
REMARK    2  A    between atoms: O_2  and  C_3
REMARK    3  A    between atoms: C_5  and  C_6
REMARK    4  A    between atoms: N_8  and  C_9
REMARK    5  A    between atoms: C_9  and  C_10
REMARK    6  A    between atoms: C_10  and  C_11
REMARK    7  A    between atoms: C_11  and  C_12
REMARK    8  A    between atoms: C_12  and  C_13
REMARK    9  A    between atoms: C_13  and  C_14
REMARK   10  A    between atoms: C_14  and  C_15
REMARK   11  A    between atoms: C_15  and  C_16
REMARK   12  A    between atoms: C_16  and  C_17
REMARK   13  A    between atoms: N_19  and  N_20
REMARK   14  A    between atoms: N_20  and  C_21
REMARK   15  A    between atoms: C_36  and  O_37
REMARK   16  A    between atoms: O_37  and  C_38
REMARK   17  A    between atoms: C_39  and  O_40
REMARK   18  A    between atoms: O_40  and  C_41
REMARK                            x       y       z     vdW  Elec       q    Type
REMARK                         _______ _______ _______ _____ _____    ______ ____
ROOT
ATOM      1  C   UNL A   1      32.177 -33.113 -28.594  0.00  0.00    -0.053 C 
ENDROOT
BRANCH   1   2
ATOM      2  C   UNL A   1      31.514 -34.469 -28.844  0.00  0.00    -0.053 C 
BRANCH   2   3
ATOM      3  C   UNL A   1      32.525 -35.614 -28.775  0.00  0.00    -0.053 C 
BRANCH   3   4
ATOM      4  C   UNL A   1      32.056 -36.700 -27.805  0.00  0.00    -0.052 C 
BRANCH   4   5
ATOM      5  C   UNL A   1      32.445 -36.376 -26.362  0.00  0.00    -0.037 C 
BRANCH   5   6
ATOM      6  C   UNL A   1      33.744 -37.079 -25.974  0.00  0.00    +0.012 C 
BRANCH   6   9
ATOM      7  C   UNL A   1      33.474 -38.864 -24.295  0.00  0.00    +0.244 C 
ATOM      8  O   UNL A   1      33.284 -39.732 -25.139  0.00  0.00    -0.270 OA
ATOM      9  N   UNL A   1      33.715 -37.540 -24.601  0.00  0.00    -0.311 N 
ATOM     10  H   UNL A   1      33.870 -36.897 -23.872  0.00  0.00    +0.000 HD
BRANCH   7  13
ATOM     11  C   UNL A   1      32.662 -38.779 -20.587  0.00  0.00    +0.166 A 
ATOM     12  C   UNL A   1      32.688 -38.429 -21.938  0.00  0.00    -0.004 A 
ATOM     13  C   UNL A   1      33.416 -39.209 -22.848  0.00  0.00    +0.044 A 
ATOM     14  C   UNL A   1      34.142 -40.326 -22.410  0.00  0.00    -0.004 A 
ATOM     15  C   UNL A   1      34.129 -40.689 -21.064  0.00  0.00    +0.166 A 
ATOM     16  C   UNL A   1      33.394 -39.901 -20.159  0.00  0.00    +0.204 A 
BRANCH  11  18
ATOM     17  C   UNL A   1      30.579 -37.932 -19.773  0.00  0.00    +0.079 C 
ATOM     18  O   UNL A   1      31.982 -38.093 -19.613  0.00  0.00    -0.491 OA
ENDBRANCH  11  18
BRANCH  15  19
ATOM     19  O   UNL A   1      34.791 -41.766 -20.536  0.00  0.00    -0.491 OA
ATOM     20  C   UNL A   1      36.212 -41.736 -20.555  0.00  0.00    +0.079 C 
ENDBRANCH  15  19
BRANCH  16  21
ATOM     21  O   UNL A   1      33.332 -40.276 -18.834  0.00  0.00    -0.488 OA
ATOM     22  C   UNL A   1      32.245 -41.179 -18.637  0.00  0.00    +0.079 C 
ENDBRANCH  16  21
ENDBRANCH   7  13
ENDBRANCH   6   9
ENDBRANCH   5   6
ENDBRANCH   4   5
ENDBRANCH   3   4
ENDBRANCH   2   3
ENDBRANCH   1   2
BRANCH   1  23
ATOM     23  C   UNL A   1      32.832 -32.581 -29.870  0.00  0.00    -0.045 C 
BRANCH  23  24
ATOM     24  C   UNL A   1      34.342 -32.810 -29.867  0.00  0.00    +0.025 C 
BRANCH  24  25
ATOM     25  C   UNL A   1      34.771 -33.770 -30.955  0.00  0.00    +0.229 C 
ATOM     26  O   UNL A   1      34.003 -34.164 -31.832  0.00  0.00    -0.274 OA
ATOM     27  N   UNL A   1      36.102 -34.132 -30.900  0.00  0.00    -0.236 N 
ATOM     28  H   UNL A   1      36.733 -33.676 -30.297  0.00  0.00    +0.000 HD
BRANCH  27  29
ATOM     29  N   UNL A   1      36.523 -35.184 -31.747  0.00  0.00    -0.264 N 
ATOM     30  H   UNL A   1      36.223 -35.317 -32.675  0.00  0.00    +0.000 HD
BRANCH  29  31
ATOM     31  C   UNL A   1      37.449 -36.029 -31.055  0.00  0.00    +0.056 A 
ATOM     32  C   UNL A   1      38.846 -35.797 -31.149  0.00  0.00    -0.021 A 
ATOM     33  C   UNL A   1      39.730 -36.621 -30.426  0.00  0.00    -0.042 A 
ATOM     34  C   UNL A   1      39.218 -37.607 -29.568  0.00  0.00    -0.050 A 
ATOM     35  C   UNL A   1      37.841 -37.827 -29.437  0.00  0.00    -0.016 A 
ATOM     36  C   UNL A   1      37.359 -38.825 -28.573  0.00  0.00    -0.054 A 
ATOM     37  C   UNL A   1      35.992 -39.068 -28.446  0.00  0.00    -0.061 A 
ATOM     38  C   UNL A   1      35.089 -38.320 -29.189  0.00  0.00    -0.061 A 
ATOM     39  C   UNL A   1      35.557 -37.325 -30.050  0.00  0.00    -0.052 A 
ATOM     40  C   UNL A   1      36.937 -37.043 -30.188  0.00  0.00    +0.005 A 
ATOM     41  C   UNL A   1      41.229 -36.445 -30.489  0.00  0.00    -0.027 C 
ATOM     42  C   UNL A   1      41.689 -35.652 -31.707  0.00  0.00    -0.049 C 
ATOM     43  C   UNL A   1      40.867 -34.381 -31.834  0.00  0.00    -0.049 C 
ATOM     44  C   UNL A   1      39.394 -34.717 -32.062  0.00  0.00    -0.026 C 
ENDBRANCH  29  31
ENDBRANCH  27  29
ENDBRANCH  24  25
ENDBRANCH  23  24
ENDBRANCH   1  23
TORSDOF 15
ENDMDL
MODEL 9
REMARK VINA RESULT:    -6.627     17.298     21.702
REMARK INTER + INTRA:         -15.568
REMARK INTER:                 -13.178
REMARK INTRA:                  -2.390
REMARK UNBOUND:                -3.129
REMARK  Name = cpd94.pdb
REMARK  18 active torsions:
REMARK  status: ('A' for Active; 'I' for Inactive)
REMARK    1  A    between atoms: C_1  and  O_2
REMARK    2  A    between atoms: O_2  and  C_3
REMARK    3  A    between atoms: C_5  and  C_6
REMARK    4  A    between atoms: N_8  and  C_9
REMARK    5  A    between atoms: C_9  and  C_10
REMARK    6  A    between atoms: C_10  and  C_11
REMARK    7  A    between atoms: C_11  and  C_12
REMARK    8  A    between atoms: C_12  and  C_13
REMARK    9  A    between atoms: C_13  and  C_14
REMARK   10  A    between atoms: C_14  and  C_15
REMARK   11  A    between atoms: C_15  and  C_16
REMARK   12  A    between atoms: C_16  and  C_17
REMARK   13  A    between atoms: N_19  and  N_20
REMARK   14  A    between atoms: N_20  and  C_21
REMARK   15  A    between atoms: C_36  and  O_37
REMARK   16  A    between atoms: O_37  and  C_38
REMARK   17  A    between atoms: C_39  and  O_40
REMARK   18  A    between atoms: O_40  and  C_41
REMARK                            x       y       z     vdW  Elec       q    Type
REMARK                         _______ _______ _______ _____ _____    ______ ____
ROOT
ATOM      1  C   UNL A   1      43.646 -19.482 -36.307  0.00  0.00    -0.053 C 
ENDROOT
BRANCH   1   2
ATOM      2  C   UNL A   1      44.962 -19.104 -36.988  0.00  0.00    -0.053 C 
BRANCH   2   3
ATOM      3  C   UNL A   1      45.905 -18.374 -36.029  0.00  0.00    -0.053 C 
BRANCH   3   4
ATOM      4  C   UNL A   1      45.626 -18.771 -34.579  0.00  0.00    -0.052 C 
BRANCH   4   5
ATOM      5  C   UNL A   1      45.275 -17.557 -33.718  0.00  0.00    -0.037 C 
BRANCH   5   6
ATOM      6  C   UNL A   1      44.518 -17.978 -32.460  0.00  0.00    +0.012 C 
BRANCH   6   9
ATOM      7  C   UNL A   1      42.253 -18.755 -33.046  0.00  0.00    +0.244 C 
ATOM      8  O   UNL A   1      41.802 -17.619 -33.125  0.00  0.00    -0.270 OA
ATOM      9  N   UNL A   1      43.568 -19.036 -32.735  0.00  0.00    -0.311 N 
ATOM     10  H   UNL A   1      43.865 -19.974 -32.700  0.00  0.00    +0.000 HD
BRANCH   7  13
ATOM     11  C   UNL A   1      40.519 -22.106 -32.616  0.00  0.00    +0.166 A 
ATOM     12  C   UNL A   1      41.367 -21.022 -32.382  0.00  0.00    -0.004 A 
ATOM     13  C   UNL A   1      41.358 -19.926 -33.257  0.00  0.00    +0.044 A 
ATOM     14  C   UNL A   1      40.521 -19.917 -34.382  0.00  0.00    -0.004 A 
ATOM     15  C   UNL A   1      39.669 -20.992 -34.632  0.00  0.00    +0.166 A 
ATOM     16  C   UNL A   1      39.684 -22.086 -33.747  0.00  0.00    +0.204 A 
BRANCH  11  18
ATOM     17  C   UNL A   1      41.605 -24.034 -31.710  0.00  0.00    +0.079 C 
ATOM     18  O   UNL A   1      40.443 -23.225 -31.827  0.00  0.00    -0.491 OA
ENDBRANCH  11  18
BRANCH  15  19
ATOM     19  O   UNL A   1      38.804 -21.078 -35.692  0.00  0.00    -0.491 OA
ATOM     20  C   UNL A   1      38.446 -19.868 -36.345  0.00  0.00    +0.079 C 
ENDBRANCH  15  19
BRANCH  16  21
ATOM     21  O   UNL A   1      38.813 -23.134 -33.954  0.00  0.00    -0.488 OA
ATOM     22  C   UNL A   1      37.536 -22.818 -33.399  0.00  0.00    +0.079 C 
ENDBRANCH  16  21
ENDBRANCH   7  13
ENDBRANCH   6   9
ENDBRANCH   5   6
ENDBRANCH   4   5
ENDBRANCH   3   4
ENDBRANCH   2   3
ENDBRANCH   1   2
BRANCH   1  23
ATOM     23  C   UNL A   1      42.490 -19.477 -37.309  0.00  0.00    -0.045 C 
BRANCH  23  24
ATOM     24  C   UNL A   1      42.160 -20.887 -37.795  0.00  0.00    +0.025 C 
BRANCH  24  25
ATOM     25  C   UNL A   1      42.528 -21.083 -39.250  0.00  0.00    +0.229 C 
ATOM     26  O   UNL A   1      42.474 -22.179 -39.806  0.00  0.00    -0.274 OA
ATOM     27  N   UNL A   1      42.888 -19.922 -39.905  0.00  0.00    -0.236 N 
ATOM     28  H   UNL A   1      42.762 -19.038 -39.489  0.00  0.00    +0.000 HD
BRANCH  27  29
ATOM     29  N   UNL A   1      43.448 -20.055 -41.198  0.00  0.00    -0.264 N 
ATOM     30  H   UNL A   1      42.951 -20.324 -42.004  0.00  0.00    +0.000 HD
BRANCH  29  31
ATOM     31  C   UNL A   1      44.845 -19.740 -41.161  0.00  0.00    +0.056 A 
ATOM     32  C   UNL A   1      45.810 -20.701 -41.560  0.00  0.00    -0.021 A 
ATOM     33  C   UNL A   1      47.174 -20.348 -41.550  0.00  0.00    -0.042 A 
ATOM     34  C   UNL A   1      47.552 -19.038 -41.219  0.00  0.00    -0.050 A 
ATOM     35  C   UNL A   1      46.609 -18.069 -40.855  0.00  0.00    -0.016 A 
ATOM     36  C   UNL A   1      47.020 -16.766 -40.524  0.00  0.00    -0.054 A 
ATOM     37  C   UNL A   1      46.095 -15.796 -40.143  0.00  0.00    -0.061 A 
ATOM     38  C   UNL A   1      44.746 -16.119 -40.079  0.00  0.00    -0.061 A 
ATOM     39  C   UNL A   1      44.327 -17.410 -40.406  0.00  0.00    -0.052 A 
ATOM     40  C   UNL A   1      45.240 -18.412 -40.814  0.00  0.00    +0.005 A 
ATOM     41  C   UNL A   1      48.260 -21.321 -41.946  0.00  0.00    -0.027 C 
ATOM     42  C   UNL A   1      47.808 -22.777 -41.898  0.00  0.00    -0.049 C 
ATOM     43  C   UNL A   1      46.484 -22.928 -42.628  0.00  0.00    -0.049 C 
ATOM     44  C   UNL A   1      45.395 -22.109 -41.937  0.00  0.00    -0.026 C 
ENDBRANCH  29  31
ENDBRANCH  27  29
ENDBRANCH  24  25
ENDBRANCH  23  24
ENDBRANCH   1  23
TORSDOF 15
ENDMDL
MODEL 10
REMARK VINA RESULT:    -6.560     17.187     21.562
REMARK INTER + INTRA:         -15.442
REMARK INTER:                 -12.110
REMARK INTRA:                  -3.332
REMARK UNBOUND:                -3.129
REMARK  Name = cpd94.pdb
REMARK  18 active torsions:
REMARK  status: ('A' for Active; 'I' for Inactive)
REMARK    1  A    between atoms: C_1  and  O_2
REMARK    2  A    between atoms: O_2  and  C_3
REMARK    3  A    between atoms: C_5  and  C_6
REMARK    4  A    between atoms: N_8  and  C_9
REMARK    5  A    between atoms: C_9  and  C_10
REMARK    6  A    between atoms: C_10  and  C_11
REMARK    7  A    between atoms: C_11  and  C_12
REMARK    8  A    between atoms: C_12  and  C_13
REMARK    9  A    between atoms: C_13  and  C_14
REMARK   10  A    between atoms: C_14  and  C_15
REMARK   11  A    between atoms: C_15  and  C_16
REMARK   12  A    between atoms: C_16  and  C_17
REMARK   13  A    between atoms: N_19  and  N_20
REMARK   14  A    between atoms: N_20  and  C_21
REMARK   15  A    between atoms: C_36  and  O_37
REMARK   16  A    between atoms: O_37  and  C_38
REMARK   17  A    between atoms: C_39  and  O_40
REMARK   18  A    between atoms: O_40  and  C_41
REMARK                            x       y       z     vdW  Elec       q    Type
REMARK                         _______ _______ _______ _____ _____    ______ ____
ROOT
ATOM      1  C   UNL A   1      46.380 -16.152 -36.018  0.00  0.00    -0.053 C 
ENDROOT
BRANCH   1   2
ATOM      2  C   UNL A   1      47.273 -17.374 -35.799  0.00  0.00    -0.053 C 
BRANCH   2   3
ATOM      3  C   UNL A   1      47.049 -18.438 -36.874  0.00  0.00    -0.053 C 
BRANCH   3   4
ATOM      4  C   UNL A   1      46.391 -19.685 -36.281  0.00  0.00    -0.052 C 
BRANCH   4   5
ATOM      5  C   UNL A   1      44.995 -19.917 -36.860  0.00  0.00    -0.037 C 
BRANCH   5   6
ATOM      6  C   UNL A   1      43.979 -18.961 -36.239  0.00  0.00    +0.012 C 
BRANCH   6   9
ATOM      7  C   UNL A   1      42.746 -20.109 -34.439  0.00  0.00    +0.244 C 
ATOM      8  O   UNL A   1      43.636 -19.936 -33.616  0.00  0.00    -0.270 OA
ATOM      9  N   UNL A   1      42.813 -19.665 -35.744  0.00  0.00    -0.311 N 
ATOM     10  H   UNL A   1      42.055 -19.830 -36.349  0.00  0.00    +0.000 HD
BRANCH   7  13
ATOM     11  C   UNL A   1      39.157 -21.342 -34.294  0.00  0.00    +0.166 A 
ATOM     12  C   UNL A   1      40.287 -20.618 -34.680  0.00  0.00    -0.004 A 
ATOM     13  C   UNL A   1      41.520 -20.865 -34.060  0.00  0.00    +0.044 A 
ATOM     14  C   UNL A   1      41.627 -21.817 -33.036  0.00  0.00    -0.004 A 
ATOM     15  C   UNL A   1      40.509 -22.548 -32.636  0.00  0.00    +0.166 A 
ATOM     16  C   UNL A   1      39.276 -22.294 -33.265  0.00  0.00    +0.204 A 
BRANCH  11  18
ATOM     17  C   UNL A   1      37.292 -19.909 -34.725  0.00  0.00    +0.079 C 
ATOM     18  O   UNL A   1      37.905 -21.186 -34.832  0.00  0.00    -0.491 OA
ENDBRANCH  11  18
BRANCH  15  19
ATOM     19  O   UNL A   1      40.507 -23.507 -31.658  0.00  0.00    -0.491 OA
ATOM     20  C   UNL A   1      41.644 -24.356 -31.570  0.00  0.00    +0.079 C 
ENDBRANCH  15  19
BRANCH  16  21
ATOM     21  O   UNL A   1      38.173 -23.043 -32.915  0.00  0.00    -0.488 OA
ATOM     22  C   UNL A   1      38.152 -24.255 -33.667  0.00  0.00    +0.079 C 
ENDBRANCH  16  21
ENDBRANCH   7  13
ENDBRANCH   6   9
ENDBRANCH   5   6
ENDBRANCH   4   5
ENDBRANCH   3   4
ENDBRANCH   2   3
ENDBRANCH   1   2
BRANCH   1  23
ATOM     23  C   UNL A   1      46.465 -15.664 -37.465  0.00  0.00    -0.045 C 
BRANCH  23  24
ATOM     24  C   UNL A   1      45.120 -15.140 -37.963  0.00  0.00    +0.025 C 
BRANCH  24  25
ATOM     25  C   UNL A   1      44.678 -15.835 -39.233  0.00  0.00    +0.229 C 
ATOM     26  O   UNL A   1      45.005 -15.442 -40.352  0.00  0.00    -0.274 OA
ATOM     27  N   UNL A   1      43.913 -16.965 -39.023  0.00  0.00    -0.236 N 
ATOM     28  H   UNL A   1      43.807 -17.354 -38.125  0.00  0.00    +0.000 HD
BRANCH  27  29
ATOM     29  N   UNL A   1      43.288 -17.542 -40.154  0.00  0.00    -0.264 N 
ATOM     30  H   UNL A   1      42.858 -17.037 -40.881  0.00  0.00    +0.000 HD
BRANCH  29  31
ATOM     31  C   UNL A   1      43.372 -18.970 -40.084  0.00  0.00    +0.056 A 
ATOM     32  C   UNL A   1      44.548 -19.644 -40.505  0.00  0.00    -0.021 A 
ATOM     33  C   UNL A   1      44.615 -21.046 -40.389  0.00  0.00    -0.042 A 
ATOM     34  C   UNL A   1      43.555 -21.747 -39.792  0.00  0.00    -0.050 A 
ATOM     35  C   UNL A   1      42.402 -21.093 -39.341  0.00  0.00    -0.016 A 
ATOM     36  C   UNL A   1      41.356 -21.824 -38.751  0.00  0.00    -0.054 A 
ATOM     37  C   UNL A   1      40.194 -21.189 -38.313  0.00  0.00    -0.061 A 
ATOM     38  C   UNL A   1      40.061 -19.815 -38.467  0.00  0.00    -0.061 A 
ATOM     39  C   UNL A   1      41.095 -19.080 -39.050  0.00  0.00    -0.052 A 
ATOM     40  C   UNL A   1      42.293 -19.693 -39.489  0.00  0.00    +0.005 A 
ATOM     41  C   UNL A   1      45.826 -21.834 -40.831  0.00  0.00    -0.027 C 
ATOM     42  C   UNL A   1      46.720 -21.067 -41.799  0.00  0.00    -0.049 C 
ATOM     43  C   UNL A   1      46.998 -19.677 -41.251  0.00  0.00    -0.049 C 
ATOM     44  C   UNL A   1      45.699 -18.881 -41.131  0.00  0.00    -0.026 C 
ENDBRANCH  29  31
ENDBRANCH  27  29
ENDBRANCH  24  25
ENDBRANCH  23  24
ENDBRANCH   1  23
TORSDOF 15
ENDMDL
MODEL 11
REMARK VINA RESULT:    -6.504      2.221      4.143
REMARK INTER + INTRA:         -15.337
REMARK INTER:                 -13.690
REMARK INTRA:                  -1.647
REMARK UNBOUND:                -3.129
REMARK  Name = cpd94.pdb
REMARK  18 active torsions:
REMARK  status: ('A' for Active; 'I' for Inactive)
REMARK    1  A    between atoms: C_1  and  O_2
REMARK    2  A    between atoms: O_2  and  C_3
REMARK    3  A    between atoms: C_5  and  C_6
REMARK    4  A    between atoms: N_8  and  C_9
REMARK    5  A    between atoms: C_9  and  C_10
REMARK    6  A    between atoms: C_10  and  C_11
REMARK    7  A    between atoms: C_11  and  C_12
REMARK    8  A    between atoms: C_12  and  C_13
REMARK    9  A    between atoms: C_13  and  C_14
REMARK   10  A    between atoms: C_14  and  C_15
REMARK   11  A    between atoms: C_15  and  C_16
REMARK   12  A    between atoms: C_16  and  C_17
REMARK   13  A    between atoms: N_19  and  N_20
REMARK   14  A    between atoms: N_20  and  C_21
REMARK   15  A    between atoms: C_36  and  O_37
REMARK   16  A    between atoms: O_37  and  C_38
REMARK   17  A    between atoms: C_39  and  O_40
REMARK   18  A    between atoms: O_40  and  C_41
REMARK                            x       y       z     vdW  Elec       q    Type
REMARK                         _______ _______ _______ _____ _____    ______ ____
ROOT
ATOM      1  C   UNL A   1      32.943 -34.803 -29.366  0.00  0.00    -0.053 C 
ENDROOT
BRANCH   1   2
ATOM      2  C   UNL A   1      31.965 -35.047 -28.217  0.00  0.00    -0.053 C 
BRANCH   2   3
ATOM      3  C   UNL A   1      32.601 -35.876 -27.100  0.00  0.00    -0.053 C 
BRANCH   3   4
ATOM      4  C   UNL A   1      31.565 -36.781 -26.431  0.00  0.00    -0.052 C 
BRANCH   4   5
ATOM      5  C   UNL A   1      32.097 -38.200 -26.232  0.00  0.00    -0.037 C 
BRANCH   5   6
ATOM      6  C   UNL A   1      33.459 -38.182 -25.541  0.00  0.00    +0.012 C 
BRANCH   6   9
ATOM      7  C   UNL A   1      33.388 -38.046 -23.081  0.00  0.00    +0.244 C 
ATOM      8  O   UNL A   1      33.403 -36.822 -23.073  0.00  0.00    -0.270 OA
ATOM      9  N   UNL A   1      33.406 -38.804 -24.234  0.00  0.00    -0.311 N 
ATOM     10  H   UNL A   1      33.382 -39.786 -24.167  0.00  0.00    +0.000 HD
BRANCH   7  13
ATOM     11  C   UNL A   1      34.310 -40.470 -20.307  0.00  0.00    +0.166 A 
ATOM     12  C   UNL A   1      34.348 -39.780 -21.520  0.00  0.00    -0.004 A 
ATOM     13  C   UNL A   1      33.386 -38.798 -21.796  0.00  0.00    +0.044 A 
ATOM     14  C   UNL A   1      32.368 -38.517 -20.873  0.00  0.00    -0.004 A 
ATOM     15  C   UNL A   1      32.313 -39.198 -19.658  0.00  0.00    +0.166 A 
ATOM     16  C   UNL A   1      33.284 -40.180 -19.390  0.00  0.00    +0.204 A 
BRANCH  11  18
ATOM     17  C   UNL A   1      36.037 -41.999 -20.937  0.00  0.00    +0.079 C 
ATOM     18  O   UNL A   1      35.199 -41.444 -19.932  0.00  0.00    -0.491 OA
ENDBRANCH  11  18
BRANCH  15  19
ATOM     19  O   UNL A   1      31.371 -38.991 -18.684  0.00  0.00    -0.491 OA
ATOM     20  C   UNL A   1      30.024 -38.815 -19.103  0.00  0.00    +0.079 C 
ENDBRANCH  15  19
BRANCH  16  21
ATOM     21  O   UNL A   1      33.272 -40.826 -18.172  0.00  0.00    -0.488 OA
ATOM     22  C   UNL A   1      32.487 -42.014 -18.262  0.00  0.00    +0.079 C 
ENDBRANCH  16  21
ENDBRANCH   7  13
ENDBRANCH   6   9
ENDBRANCH   5   6
ENDBRANCH   4   5
ENDBRANCH   3   4
ENDBRANCH   2   3
ENDBRANCH   1   2
BRANCH   1  23
ATOM     23  C   UNL A   1      33.893 -33.648 -29.041  0.00  0.00    -0.045 C 
BRANCH  23  24
ATOM     24  C   UNL A   1      34.352 -32.923 -30.304  0.00  0.00    +0.025 C 
BRANCH  24  25
ATOM     25  C   UNL A   1      34.943 -33.876 -31.319  0.00  0.00    +0.229 C 
ATOM     26  O   UNL A   1      34.317 -34.271 -32.302  0.00  0.00    -0.274 OA
ATOM     27  N   UNL A   1      36.254 -34.231 -31.068  0.00  0.00    -0.236 N 
ATOM     28  H   UNL A   1      36.785 -33.774 -30.376  0.00  0.00    +0.000 HD
BRANCH  27  29
ATOM     29  N   UNL A   1      36.802 -35.278 -31.846  0.00  0.00    -0.264 N 
ATOM     30  H   UNL A   1      36.623 -35.424 -32.802  0.00  0.00    +0.000 HD
BRANCH  29  31
ATOM     31  C   UNL A   1      37.655 -36.094 -31.035  0.00  0.00    +0.056 A 
ATOM     32  C   UNL A   1      39.067 -35.996 -31.148  0.00  0.00    -0.021 A 
ATOM     33  C   UNL A   1      39.879 -36.784 -30.310  0.00  0.00    -0.042 A 
ATOM     34  C   UNL A   1      39.287 -37.596 -29.330  0.00  0.00    -0.050 A 
ATOM     35  C   UNL A   1      37.898 -37.679 -29.183  0.00  0.00    -0.016 A 
ATOM     36  C   UNL A   1      37.335 -38.505 -28.194  0.00  0.00    -0.054 A 
ATOM     37  C   UNL A   1      35.953 -38.611 -28.048  0.00  0.00    -0.061 A 
ATOM     38  C   UNL A   1      35.114 -37.899 -28.895  0.00  0.00    -0.061 A 
ATOM     39  C   UNL A   1      35.663 -37.075 -29.880  0.00  0.00    -0.052 A 
ATOM     40  C   UNL A   1      37.062 -36.932 -30.042  0.00  0.00    +0.005 A 
ATOM     41  C   UNL A   1      41.388 -36.746 -30.383  0.00  0.00    -0.027 C 
ATOM     42  C   UNL A   1      41.911 -36.169 -31.694  0.00  0.00    -0.049 C 
ATOM     43  C   UNL A   1      41.198 -34.863 -32.002  0.00  0.00    -0.049 C 
ATOM     44  C   UNL A   1      39.702 -35.102 -32.195  0.00  0.00    -0.026 C 
ENDBRANCH  29  31
ENDBRANCH  27  29
ENDBRANCH  24  25
ENDBRANCH  23  24
ENDBRANCH   1  23
TORSDOF 15
ENDMDL
MODEL 12
REMARK VINA RESULT:    -6.416     17.147     21.484
REMARK INTER + INTRA:         -15.171
REMARK INTER:                 -12.006
REMARK INTRA:                  -3.165
REMARK UNBOUND:                -3.129
REMARK  Name = cpd94.pdb
REMARK  18 active torsions:
REMARK  status: ('A' for Active; 'I' for Inactive)
REMARK    1  A    between atoms: C_1  and  O_2
REMARK    2  A    between atoms: O_2  and  C_3
REMARK    3  A    between atoms: C_5  and  C_6
REMARK    4  A    between atoms: N_8  and  C_9
REMARK    5  A    between atoms: C_9  and  C_10
REMARK    6  A    between atoms: C_10  and  C_11
REMARK    7  A    between atoms: C_11  and  C_12
REMARK    8  A    between atoms: C_12  and  C_13
REMARK    9  A    between atoms: C_13  and  C_14
REMARK   10  A    between atoms: C_14  and  C_15
REMARK   11  A    between atoms: C_15  and  C_16
REMARK   12  A    between atoms: C_16  and  C_17
REMARK   13  A    between atoms: N_19  and  N_20
REMARK   14  A    between atoms: N_20  and  C_21
REMARK   15  A    between atoms: C_36  and  O_37
REMARK   16  A    between atoms: O_37  and  C_38
REMARK   17  A    between atoms: C_39  and  O_40
REMARK   18  A    between atoms: O_40  and  C_41
REMARK                            x       y       z     vdW  Elec       q    Type
REMARK                         _______ _______ _______ _____ _____    ______ ____
ROOT
ATOM      1  C   UNL A   1      45.844 -16.263 -38.191  0.00  0.00    -0.053 C 
ENDROOT
BRANCH   1   2
ATOM      2  C   UNL A   1      46.202 -15.841 -36.765  0.00  0.00    -0.053 C 
BRANCH   2   3
ATOM      3  C   UNL A   1      45.130 -16.271 -35.762  0.00  0.00    -0.053 C 
BRANCH   3   4
ATOM      4  C   UNL A   1      43.743 -15.811 -36.212  0.00  0.00    -0.052 C 
BRANCH   4   5
ATOM      5  C   UNL A   1      42.688 -16.895 -35.989  0.00  0.00    -0.037 C 
BRANCH   5   6
ATOM      6  C   UNL A   1      42.423 -17.102 -34.499  0.00  0.00    +0.012 C 
BRANCH   6   9
ATOM      7  C   UNL A   1      41.852 -19.234 -33.401  0.00  0.00    +0.244 C 
ATOM      8  O   UNL A   1      42.903 -19.279 -32.774  0.00  0.00    -0.270 OA
ATOM      9  N   UNL A   1      41.519 -18.210 -34.264  0.00  0.00    -0.311 N 
ATOM     10  H   UNL A   1      40.652 -18.233 -34.728  0.00  0.00    +0.000 HD
BRANCH   7  13
ATOM     11  C   UNL A   1      38.601 -21.197 -33.370  0.00  0.00    +0.166 A 
ATOM     12  C   UNL A   1      39.498 -20.134 -33.500  0.00  0.00    -0.004 A 
ATOM     13  C   UNL A   1      40.867 -20.344 -33.280  0.00  0.00    +0.044 A 
ATOM     14  C   UNL A   1      41.345 -21.608 -32.907  0.00  0.00    -0.004 A 
ATOM     15  C   UNL A   1      40.464 -22.680 -32.771  0.00  0.00    +0.166 A 
ATOM     16  C   UNL A   1      39.093 -22.460 -32.995  0.00  0.00    +0.204 A 
BRANCH  11  18
ATOM     17  C   UNL A   1      36.565 -20.009 -32.975  0.00  0.00    +0.079 C 
ATOM     18  O   UNL A   1      37.247 -21.107 -33.565  0.00  0.00    -0.491 OA
ENDBRANCH  11  18
BRANCH  15  19
ATOM     19  O   UNL A   1      40.828 -23.955 -32.424  0.00  0.00    -0.491 OA
ATOM     20  C   UNL A   1      41.838 -24.102 -31.435  0.00  0.00    +0.079 C 
ENDBRANCH  15  19
BRANCH  16  21
ATOM     21  O   UNL A   1      38.217 -23.521 -32.912  0.00  0.00    -0.488 OA
ATOM     22  C   UNL A   1      38.209 -24.240 -34.145  0.00  0.00    +0.079 C 
ENDBRANCH  16  21
ENDBRANCH   7  13
ENDBRANCH   6   9
ENDBRANCH   5   6
ENDBRANCH   4   5
ENDBRANCH   3   4
ENDBRANCH   2   3
ENDBRANCH   1   2
BRANCH   1  23
ATOM     23  C   UNL A   1      47.097 -16.364 -39.063  0.00  0.00    -0.045 C 
BRANCH  23  24
ATOM     24  C   UNL A   1      46.746 -16.647 -40.522  0.00  0.00    +0.025 C 
BRANCH  24  25
ATOM     25  C   UNL A   1      46.052 -17.981 -40.688  0.00  0.00    +0.229 C 
ATOM     26  O   UNL A   1      45.016 -18.113 -41.338  0.00  0.00    -0.274 OA
ATOM     27  N   UNL A   1      46.702 -19.037 -40.081  0.00  0.00    -0.236 N 
ATOM     28  H   UNL A   1      47.610 -18.938 -39.713  0.00  0.00    +0.000 HD
BRANCH  27  29
ATOM     29  N   UNL A   1      46.009 -20.269 -40.009  0.00  0.00    -0.264 N 
ATOM     30  H   UNL A   1      46.035 -20.973 -40.696  0.00  0.00    +0.000 HD
BRANCH  29  31
ATOM     31  C   UNL A   1      45.263 -20.340 -38.788  0.00  0.00    +0.056 A 
ATOM     32  C   UNL A   1      45.875 -20.016 -37.549  0.00  0.00    -0.021 A 
ATOM     33  C   UNL A   1      45.105 -20.059 -36.371  0.00  0.00    -0.042 A 
ATOM     34  C   UNL A   1      43.733 -20.345 -36.446  0.00  0.00    -0.050 A 
ATOM     35  C   UNL A   1      43.106 -20.633 -37.664  0.00  0.00    -0.016 A 
ATOM     36  C   UNL A   1      41.731 -20.921 -37.705  0.00  0.00    -0.054 A 
ATOM     37  C   UNL A   1      41.097 -21.227 -38.908  0.00  0.00    -0.061 A 
ATOM     38  C   UNL A   1      41.832 -21.258 -40.086  0.00  0.00    -0.061 A 
ATOM     39  C   UNL A   1      43.199 -20.973 -40.056  0.00  0.00    -0.052 A 
ATOM     40  C   UNL A   1      43.868 -20.642 -38.853  0.00  0.00    +0.005 A 
ATOM     41  C   UNL A   1      45.691 -19.743 -35.014  0.00  0.00    -0.027 C 
ATOM     42  C   UNL A   1      47.212 -19.838 -34.981  0.00  0.00    -0.049 C 
ATOM     43  C   UNL A   1      47.802 -19.070 -36.152  0.00  0.00    -0.049 C 
ATOM     44  C   UNL A   1      47.354 -19.688 -37.476  0.00  0.00    -0.026 C 
ENDBRANCH  29  31
ENDBRANCH  27  29
ENDBRANCH  24  25
ENDBRANCH  23  24
ENDBRANCH   1  23
TORSDOF 15
ENDMDL
MODEL 13
REMARK VINA RESULT:    -6.410     16.707     21.013
REMARK INTER + INTRA:         -15.160
REMARK INTER:                 -12.135
REMARK INTRA:                  -3.025
REMARK UNBOUND:                -3.129
REMARK  Name = cpd94.pdb
REMARK  18 active torsions:
REMARK  status: ('A' for Active; 'I' for Inactive)
REMARK    1  A    between atoms: C_1  and  O_2
REMARK    2  A    between atoms: O_2  and  C_3
REMARK    3  A    between atoms: C_5  and  C_6
REMARK    4  A    between atoms: N_8  and  C_9
REMARK    5  A    between atoms: C_9  and  C_10
REMARK    6  A    between atoms: C_10  and  C_11
REMARK    7  A    between atoms: C_11  and  C_12
REMARK    8  A    between atoms: C_12  and  C_13
REMARK    9  A    between atoms: C_13  and  C_14
REMARK   10  A    between atoms: C_14  and  C_15
REMARK   11  A    between atoms: C_15  and  C_16
REMARK   12  A    between atoms: C_16  and  C_17
REMARK   13  A    between atoms: N_19  and  N_20
REMARK   14  A    between atoms: N_20  and  C_21
REMARK   15  A    between atoms: C_36  and  O_37
REMARK   16  A    between atoms: O_37  and  C_38
REMARK   17  A    between atoms: C_39  and  O_40
REMARK   18  A    between atoms: O_40  and  C_41
REMARK                            x       y       z     vdW  Elec       q    Type
REMARK                         _______ _______ _______ _____ _____    ______ ____
ROOT
ATOM      1  C   UNL A   1      46.620 -17.458 -37.328  0.00  0.00    -0.053 C 
ENDROOT
BRANCH   1   2
ATOM      2  C   UNL A   1      46.071 -16.045 -37.126  0.00  0.00    -0.053 C 
BRANCH   2   3
ATOM      3  C   UNL A   1      44.547 -16.044 -36.999  0.00  0.00    -0.053 C 
BRANCH   3   4
ATOM      4  C   UNL A   1      44.119 -15.815 -35.548  0.00  0.00    -0.052 C 
BRANCH   4   5
ATOM      5  C   UNL A   1      42.653 -16.186 -35.325  0.00  0.00    -0.037 C 
BRANCH   5   6
ATOM      6  C   UNL A   1      42.366 -16.416 -33.842  0.00  0.00    +0.012 C 
BRANCH   6   9
ATOM      7  C   UNL A   1      42.145 -18.775 -33.164  0.00  0.00    +0.244 C 
ATOM      8  O   UNL A   1      43.334 -18.887 -32.892  0.00  0.00    -0.270 OA
ATOM      9  N   UNL A   1      41.572 -17.609 -33.628  0.00  0.00    -0.311 N 
ATOM     10  H   UNL A   1      40.607 -17.587 -33.818  0.00  0.00    +0.000 HD
BRANCH   7  13
ATOM     11  C   UNL A   1      40.864 -22.330 -32.780  0.00  0.00    +0.166 A 
ATOM     12  C   UNL A   1      41.743 -21.251 -32.893  0.00  0.00    -0.004 A 
ATOM     13  C   UNL A   1      41.239 -19.950 -33.033  0.00  0.00    +0.044 A 
ATOM     14  C   UNL A   1      39.857 -19.722 -33.087  0.00  0.00    -0.004 A 
ATOM     15  C   UNL A   1      38.964 -20.787 -32.978  0.00  0.00    +0.166 A 
ATOM     16  C   UNL A   1      39.479 -22.088 -32.835  0.00  0.00    +0.204 A 
BRANCH  11  18
ATOM     17  C   UNL A   1      41.603 -24.085 -31.335  0.00  0.00    +0.079 C 
ATOM     18  O   UNL A   1      41.245 -23.639 -32.636  0.00  0.00    -0.491 OA
ENDBRANCH  11  18
BRANCH  15  19
ATOM     19  O   UNL A   1      37.599 -20.673 -33.004  0.00  0.00    -0.491 OA
ATOM     20  C   UNL A   1      37.044 -19.385 -32.773  0.00  0.00    +0.079 C 
ENDBRANCH  15  19
BRANCH  16  21
ATOM     21  O   UNL A   1      38.609 -23.145 -32.677  0.00  0.00    -0.488 OA
ATOM     22  C   UNL A   1      38.331 -23.738 -33.945  0.00  0.00    +0.079 C 
ENDBRANCH  16  21
ENDBRANCH   7  13
ENDBRANCH   6   9
ENDBRANCH   5   6
ENDBRANCH   4   5
ENDBRANCH   3   4
ENDBRANCH   2   3
ENDBRANCH   1   2
BRANCH   1  23
ATOM     23  C   UNL A   1      47.330 -17.955 -36.067  0.00  0.00    -0.045 C 
BRANCH  23  24
ATOM     24  C   UNL A   1      46.341 -18.243 -34.940  0.00  0.00    +0.025 C 
BRANCH  24  25
ATOM     25  C   UNL A   1      45.702 -19.607 -35.084  0.00  0.00    +0.229 C 
ATOM     26  O   UNL A   1      46.176 -20.620 -34.570  0.00  0.00    -0.274 OA
ATOM     27  N   UNL A   1      44.525 -19.609 -35.807  0.00  0.00    -0.236 N 
ATOM     28  H   UNL A   1      44.080 -18.769 -36.062  0.00  0.00    +0.000 HD
BRANCH  27  29
ATOM     29  N   UNL A   1      43.987 -20.867 -36.165  0.00  0.00    -0.264 N 
ATOM     30  H   UNL A   1      44.000 -21.670 -35.596  0.00  0.00    +0.000 HD
BRANCH  29  31
ATOM     31  C   UNL A   1      43.422 -20.801 -37.479  0.00  0.00    +0.056 A 
ATOM     32  C   UNL A   1      44.258 -20.826 -38.626  0.00  0.00    -0.021 A 
ATOM     33  C   UNL A   1      43.670 -20.799 -39.906  0.00  0.00    -0.042 A 
ATOM     34  C   UNL A   1      42.272 -20.822 -40.030  0.00  0.00    -0.050 A 
ATOM     35  C   UNL A   1      41.433 -20.832 -38.909  0.00  0.00    -0.016 A 
ATOM     36  C   UNL A   1      40.036 -20.851 -39.067  0.00  0.00    -0.054 A 
ATOM     37  C   UNL A   1      39.188 -20.842 -37.960  0.00  0.00    -0.061 A 
ATOM     38  C   UNL A   1      39.726 -20.806 -36.681  0.00  0.00    -0.061 A 
ATOM     39  C   UNL A   1      41.112 -20.788 -36.513  0.00  0.00    -0.052 A 
ATOM     40  C   UNL A   1      42.000 -20.813 -37.616  0.00  0.00    +0.005 A 
ATOM     41  C   UNL A   1      44.495 -20.806 -41.171  0.00  0.00    -0.027 C 
ATOM     42  C   UNL A   1      45.943 -20.387 -40.946  0.00  0.00    -0.049 C 
ATOM     43  C   UNL A   1      46.524 -21.155 -39.772  0.00  0.00    -0.049 C 
ATOM     44  C   UNL A   1      45.768 -20.821 -38.487  0.00  0.00    -0.026 C 
ENDBRANCH  29  31
ENDBRANCH  27  29
ENDBRANCH  24  25
ENDBRANCH  23  24
ENDBRANCH   1  23
TORSDOF 15
ENDMDL
MODEL 14
REMARK VINA RESULT:    -6.392     17.483     21.623
REMARK INTER + INTRA:         -15.127
REMARK INTER:                 -12.082
REMARK INTRA:                  -3.045
REMARK UNBOUND:                -3.129
REMARK  Name = cpd94.pdb
REMARK  18 active torsions:
REMARK  status: ('A' for Active; 'I' for Inactive)
REMARK    1  A    between atoms: C_1  and  O_2
REMARK    2  A    between atoms: O_2  and  C_3
REMARK    3  A    between atoms: C_5  and  C_6
REMARK    4  A    between atoms: N_8  and  C_9
REMARK    5  A    between atoms: C_9  and  C_10
REMARK    6  A    between atoms: C_10  and  C_11
REMARK    7  A    between atoms: C_11  and  C_12
REMARK    8  A    between atoms: C_12  and  C_13
REMARK    9  A    between atoms: C_13  and  C_14
REMARK   10  A    between atoms: C_14  and  C_15
REMARK   11  A    between atoms: C_15  and  C_16
REMARK   12  A    between atoms: C_16  and  C_17
REMARK   13  A    between atoms: N_19  and  N_20
REMARK   14  A    between atoms: N_20  and  C_21
REMARK   15  A    between atoms: C_36  and  O_37
REMARK   16  A    between atoms: O_37  and  C_38
REMARK   17  A    between atoms: C_39  and  O_40
REMARK   18  A    between atoms: O_40  and  C_41
REMARK                            x       y       z     vdW  Elec       q    Type
REMARK                         _______ _______ _______ _____ _____    ______ ____
ROOT
ATOM      1  C   UNL A   1      46.922 -16.178 -36.785  0.00  0.00    -0.053 C 
ENDROOT
BRANCH   1   2
ATOM      2  C   UNL A   1      46.804 -17.682 -37.030  0.00  0.00    -0.053 C 
BRANCH   2   3
ATOM      3  C   UNL A   1      45.681 -18.304 -36.199  0.00  0.00    -0.053 C 
BRANCH   3   4
ATOM      4  C   UNL A   1      45.886 -18.029 -34.708  0.00  0.00    -0.052 C 
BRANCH   4   5
ATOM      5  C   UNL A   1      44.581 -17.619 -34.024  0.00  0.00    -0.037 C 
BRANCH   5   6
ATOM      6  C   UNL A   1      44.378 -18.394 -32.724  0.00  0.00    +0.012 C 
BRANCH   6   9
ATOM      7  C   UNL A   1      42.003 -19.051 -32.702  0.00  0.00    +0.244 C 
ATOM      8  O   UNL A   1      41.612 -17.913 -32.472  0.00  0.00    -0.270 OA
ATOM      9  N   UNL A   1      43.332 -19.389 -32.849  0.00  0.00    -0.311 N 
ATOM     10  H   UNL A   1      43.574 -20.323 -33.044  0.00  0.00    +0.000 HD
BRANCH   7  13
ATOM     11  C   UNL A   1      40.461 -22.522 -32.702  0.00  0.00    +0.166 A 
ATOM     12  C   UNL A   1      41.406 -21.500 -32.593  0.00  0.00    -0.004 A 
ATOM     13  C   UNL A   1      41.022 -20.167 -32.801  0.00  0.00    +0.044 A 
ATOM     14  C   UNL A   1      39.699 -19.850 -33.142  0.00  0.00    -0.004 A 
ATOM     15  C   UNL A   1      38.743 -20.858 -33.257  0.00  0.00    +0.166 A 
ATOM     16  C   UNL A   1      39.137 -22.192 -33.044  0.00  0.00    +0.204 A 
BRANCH  11  18
ATOM     17  C   UNL A   1      41.509 -24.225 -31.391  0.00  0.00    +0.079 C 
ATOM     18  O   UNL A   1      40.724 -23.855 -32.516  0.00  0.00    -0.491 OA
ENDBRANCH  11  18
BRANCH  15  19
ATOM     19  O   UNL A   1      37.424 -20.656 -33.571  0.00  0.00    -0.491 OA
ATOM     20  C   UNL A   1      36.711 -19.686 -32.816  0.00  0.00    +0.079 C 
ENDBRANCH  15  19
BRANCH  16  21
ATOM     21  O   UNL A   1      38.192 -23.193 -33.106  0.00  0.00    -0.488 OA
ATOM     22  C   UNL A   1      38.374 -23.958 -34.297  0.00  0.00    +0.079 C 
ENDBRANCH  16  21
ENDBRANCH   7  13
ENDBRANCH   6   9
ENDBRANCH   5   6
ENDBRANCH   4   5
ENDBRANCH   3   4
ENDBRANCH   2   3
ENDBRANCH   1   2
BRANCH   1  23
ATOM     23  C   UNL A   1      46.608 -15.390 -38.059  0.00  0.00    -0.045 C 
BRANCH  23  24
ATOM     24  C   UNL A   1      45.285 -14.637 -37.944  0.00  0.00    +0.025 C 
BRANCH  24  25
ATOM     25  C   UNL A   1      44.183 -15.308 -38.735  0.00  0.00    +0.229 C 
ATOM     26  O   UNL A   1      43.016 -14.918 -38.709  0.00  0.00    -0.274 OA
ATOM     27  N   UNL A   1      44.608 -16.365 -39.515  0.00  0.00    -0.236 N 
ATOM     28  H   UNL A   1      45.566 -16.550 -39.650  0.00  0.00    +0.000 HD
BRANCH  27  29
ATOM     29  N   UNL A   1      43.610 -17.172 -40.111  0.00  0.00    -0.264 N 
ATOM     30  H   UNL A   1      42.918 -16.849 -40.732  0.00  0.00    +0.000 HD
BRANCH  29  31
ATOM     31  C   UNL A   1      43.755 -18.529 -39.676  0.00  0.00    +0.056 A 
ATOM     32  C   UNL A   1      44.687 -19.393 -40.308  0.00  0.00    -0.021 A 
ATOM     33  C   UNL A   1      44.833 -20.711 -39.833  0.00  0.00    -0.042 A 
ATOM     34  C   UNL A   1      44.114 -21.127 -38.702  0.00  0.00    -0.050 A 
ATOM     35  C   UNL A   1      43.215 -20.277 -38.047  0.00  0.00    -0.016 A 
ATOM     36  C   UNL A   1      42.506 -20.725 -36.918  0.00  0.00    -0.054 A 
ATOM     37  C   UNL A   1      41.594 -19.896 -36.267  0.00  0.00    -0.061 A 
ATOM     38  C   UNL A   1      41.373 -18.610 -36.741  0.00  0.00    -0.061 A 
ATOM     39  C   UNL A   1      42.073 -18.154 -37.860  0.00  0.00    -0.052 A 
ATOM     40  C   UNL A   1      43.018 -18.966 -38.533  0.00  0.00    +0.005 A 
ATOM     41  C   UNL A   1      45.794 -21.692 -40.464  0.00  0.00    -0.027 C 
ATOM     42  C   UNL A   1      46.213 -21.299 -41.876  0.00  0.00    -0.049 C 
ATOM     43  C   UNL A   1      46.645 -19.842 -41.897  0.00  0.00    -0.049 C 
ATOM     44  C   UNL A   1      45.477 -18.932 -41.517  0.00  0.00    -0.026 C 
ENDBRANCH  29  31
ENDBRANCH  27  29
ENDBRANCH  24  25
ENDBRANCH  23  24
ENDBRANCH   1  23
TORSDOF 15
ENDMDL
MODEL 15
REMARK VINA RESULT:    -6.294     18.056     22.290
REMARK INTER + INTRA:         -14.943
REMARK INTER:                 -10.495
REMARK INTRA:                  -4.448
REMARK UNBOUND:                -3.129
REMARK  Name = cpd94.pdb
REMARK  18 active torsions:
REMARK  status: ('A' for Active; 'I' for Inactive)
REMARK    1  A    between atoms: C_1  and  O_2
REMARK    2  A    between atoms: O_2  and  C_3
REMARK    3  A    between atoms: C_5  and  C_6
REMARK    4  A    between atoms: N_8  and  C_9
REMARK    5  A    between atoms: C_9  and  C_10
REMARK    6  A    between atoms: C_10  and  C_11
REMARK    7  A    between atoms: C_11  and  C_12
REMARK    8  A    between atoms: C_12  and  C_13
REMARK    9  A    between atoms: C_13  and  C_14
REMARK   10  A    between atoms: C_14  and  C_15
REMARK   11  A    between atoms: C_15  and  C_16
REMARK   12  A    between atoms: C_16  and  C_17
REMARK   13  A    between atoms: N_19  and  N_20
REMARK   14  A    between atoms: N_20  and  C_21
REMARK   15  A    between atoms: C_36  and  O_37
REMARK   16  A    between atoms: O_37  and  C_38
REMARK   17  A    between atoms: C_39  and  O_40
REMARK   18  A    between atoms: O_40  and  C_41
REMARK                            x       y       z     vdW  Elec       q    Type
REMARK                         _______ _______ _______ _____ _____    ______ ____
ROOT
ATOM      1  C   UNL A   1      40.680 -16.222 -35.461  0.00  0.00    -0.053 C 
ENDROOT
BRANCH   1   2
ATOM      2  C   UNL A   1      41.598 -17.288 -34.860  0.00  0.00    -0.053 C 
BRANCH   2   3
ATOM      3  C   UNL A   1      40.808 -18.502 -34.370  0.00  0.00    -0.053 C 
BRANCH   3   4
ATOM      4  C   UNL A   1      41.591 -19.270 -33.303  0.00  0.00    -0.052 C 
BRANCH   4   5
ATOM      5  C   UNL A   1      43.094 -19.249 -33.581  0.00  0.00    -0.037 C 
BRANCH   5   6
ATOM      6  C   UNL A   1      43.536 -20.524 -34.297  0.00  0.00    +0.012 C 
BRANCH   6   9
ATOM      7  C   UNL A   1      44.976 -20.315 -36.287  0.00  0.00    +0.244 C 
ATOM      8  O   UNL A   1      46.006 -20.516 -35.657  0.00  0.00    -0.270 OA
ATOM      9  N   UNL A   1      43.719 -20.305 -35.718  0.00  0.00    -0.311 N 
ATOM     10  H   UNL A   1      42.932 -20.147 -36.287  0.00  0.00    +0.000 HD
BRANCH   7  13
ATOM     11  C   UNL A   1      45.825 -20.534 -39.983  0.00  0.00    +0.166 A 
ATOM     12  C   UNL A   1      45.779 -20.839 -38.621  0.00  0.00    -0.004 A 
ATOM     13  C   UNL A   1      45.042 -20.026 -37.747  0.00  0.00    +0.044 A 
ATOM     14  C   UNL A   1      44.369 -18.893 -38.223  0.00  0.00    -0.004 A 
ATOM     15  C   UNL A   1      44.405 -18.572 -39.579  0.00  0.00    +0.166 A 
ATOM     16  C   UNL A   1      45.145 -19.394 -40.448  0.00  0.00    +0.204 A 
BRANCH  11  18
ATOM     17  C   UNL A   1      46.505 -22.674 -40.803  0.00  0.00    +0.079 C 
ATOM     18  O   UNL A   1      46.508 -21.258 -40.925  0.00  0.00    -0.491 OA
ENDBRANCH  11  18
BRANCH  15  19
ATOM     19  O   UNL A   1      43.773 -17.497 -40.149  0.00  0.00    -0.491 OA
ATOM     20  C   UNL A   1      42.445 -17.219 -39.727  0.00  0.00    +0.079 C 
ENDBRANCH  15  19
BRANCH  16  21
ATOM     21  O   UNL A   1      45.150 -19.117 -41.799  0.00  0.00    -0.488 OA
ATOM     22  C   UNL A   1      44.148 -19.893 -42.455  0.00  0.00    +0.079 C 
ENDBRANCH  16  21
ENDBRANCH   7  13
ENDBRANCH   6   9
ENDBRANCH   5   6
ENDBRANCH   4   5
ENDBRANCH   3   4
ENDBRANCH   2   3
ENDBRANCH   1   2
BRANCH   1  23
ATOM     23  C   UNL A   1      39.250 -16.375 -34.940  0.00  0.00    -0.045 C 
BRANCH  23  24
ATOM     24  C   UNL A   1      38.223 -16.219 -36.059  0.00  0.00    +0.025 C 
BRANCH  24  25
ATOM     25  C   UNL A   1      37.613 -17.546 -36.454  0.00  0.00    +0.229 C 
ATOM     26  O   UNL A   1      36.465 -17.867 -36.146  0.00  0.00    -0.274 OA
ATOM     27  N   UNL A   1      38.439 -18.343 -37.222  0.00  0.00    -0.236 N 
ATOM     28  H   UNL A   1      39.282 -17.998 -37.596  0.00  0.00    +0.000 HD
BRANCH  27  29
ATOM     29  N   UNL A   1      38.024 -19.677 -37.447  0.00  0.00    -0.264 N 
ATOM     30  H   UNL A   1      37.165 -19.942 -37.847  0.00  0.00    +0.000 HD
BRANCH  29  31
ATOM     31  C   UNL A   1      39.039 -20.586 -37.007  0.00  0.00    +0.056 A 
ATOM     32  C   UNL A   1      38.964 -21.183 -35.721  0.00  0.00    -0.021 A 
ATOM     33  C   UNL A   1      39.958 -22.102 -35.332  0.00  0.00    -0.042 A 
ATOM     34  C   UNL A   1      40.961 -22.471 -36.242  0.00  0.00    -0.050 A 
ATOM     35  C   UNL A   1      41.030 -21.917 -37.525  0.00  0.00    -0.016 A 
ATOM     36  C   UNL A   1      42.050 -22.303 -38.413  0.00  0.00    -0.054 A 
ATOM     37  C   UNL A   1      42.142 -21.747 -39.688  0.00  0.00    -0.061 A 
ATOM     38  C   UNL A   1      41.219 -20.790 -40.089  0.00  0.00    -0.061 A 
ATOM     39  C   UNL A   1      40.202 -20.400 -39.216  0.00  0.00    -0.052 A 
ATOM     40  C   UNL A   1      40.071 -20.959 -37.922  0.00  0.00    +0.005 A 
ATOM     41  C   UNL A   1      39.954 -22.765 -33.974  0.00  0.00    -0.027 C 
ATOM     42  C   UNL A   1      39.097 -22.029 -32.949  0.00  0.00    -0.049 C 
ATOM     43  C   UNL A   1      37.732 -21.726 -33.543  0.00  0.00    -0.049 C 
ATOM     44  C   UNL A   1      37.867 -20.797 -34.749  0.00  0.00    -0.026 C 
ENDBRANCH  29  31
ENDBRANCH  27  29
ENDBRANCH  24  25
ENDBRANCH  23  24
ENDBRANCH   1  23
TORSDOF 15
ENDMDL
MODEL 16
REMARK VINA RESULT:    -6.224     16.961     21.147
REMARK INTER + INTRA:         -14.811
REMARK INTER:                 -11.421
REMARK INTRA:                  -3.390
REMARK UNBOUND:                -3.129
REMARK  Name = cpd94.pdb
REMARK  18 active torsions:
REMARK  status: ('A' for Active; 'I' for Inactive)
REMARK    1  A    between atoms: C_1  and  O_2
REMARK    2  A    between atoms: O_2  and  C_3
REMARK    3  A    between atoms: C_5  and  C_6
REMARK    4  A    between atoms: N_8  and  C_9
REMARK    5  A    between atoms: C_9  and  C_10
REMARK    6  A    between atoms: C_10  and  C_11
REMARK    7  A    between atoms: C_11  and  C_12
REMARK    8  A    between atoms: C_12  and  C_13
REMARK    9  A    between atoms: C_13  and  C_14
REMARK   10  A    between atoms: C_14  and  C_15
REMARK   11  A    between atoms: C_15  and  C_16
REMARK   12  A    between atoms: C_16  and  C_17
REMARK   13  A    between atoms: N_19  and  N_20
REMARK   14  A    between atoms: N_20  and  C_21
REMARK   15  A    between atoms: C_36  and  O_37
REMARK   16  A    between atoms: O_37  and  C_38
REMARK   17  A    between atoms: C_39  and  O_40
REMARK   18  A    between atoms: O_40  and  C_41
REMARK                            x       y       z     vdW  Elec       q    Type
REMARK                         _______ _______ _______ _____ _____    ______ ____
ROOT
ATOM      1  C   UNL A   1      40.253 -16.976 -39.402  0.00  0.00    -0.053 C 
ENDROOT
BRANCH   1   2
ATOM      2  C   UNL A   1      41.551 -16.231 -39.084  0.00  0.00    -0.053 C 
BRANCH   2   3
ATOM      3  C   UNL A   1      42.732 -17.192 -38.939  0.00  0.00    -0.053 C 
BRANCH   3   4
ATOM      4  C   UNL A   1      43.500 -16.924 -37.644  0.00  0.00    -0.052 C 
BRANCH   4   5
ATOM      5  C   UNL A   1      42.603 -16.303 -36.573  0.00  0.00    -0.037 C 
BRANCH   5   6
ATOM      6  C   UNL A   1      42.922 -16.875 -35.193  0.00  0.00    +0.012 C 
BRANCH   6   9
ATOM      7  C   UNL A   1      41.898 -18.367 -33.519  0.00  0.00    +0.244 C 
ATOM      8  O   UNL A   1      42.548 -17.899 -32.593  0.00  0.00    -0.270 OA
ATOM      9  N   UNL A   1      42.002 -17.931 -34.824  0.00  0.00    -0.311 N 
ATOM     10  H   UNL A   1      41.440 -18.347 -35.518  0.00  0.00    +0.000 HD
BRANCH   7  13
ATOM     11  C   UNL A   1      38.731 -20.355 -32.856  0.00  0.00    +0.166 A 
ATOM     12  C   UNL A   1      39.583 -19.275 -33.094  0.00  0.00    -0.004 A 
ATOM     13  C   UNL A   1      40.957 -19.494 -33.271  0.00  0.00    +0.044 A 
ATOM     14  C   UNL A   1      41.490 -20.788 -33.187  0.00  0.00    -0.004 A 
ATOM     15  C   UNL A   1      40.655 -21.878 -32.948  0.00  0.00    +0.166 A 
ATOM     16  C   UNL A   1      39.278 -21.649 -32.773  0.00  0.00    +0.204 A 
BRANCH  11  18
ATOM     17  C   UNL A   1      36.683 -19.237 -33.377  0.00  0.00    +0.079 C 
ATOM     18  O   UNL A   1      37.376 -20.258 -32.672  0.00  0.00    -0.491 OA
ENDBRANCH  11  18
BRANCH  15  19
ATOM     19  O   UNL A   1      41.071 -23.181 -32.860  0.00  0.00    -0.491 OA
ATOM     20  C   UNL A   1      41.459 -23.661 -31.580  0.00  0.00    +0.079 C 
ENDBRANCH  15  19
BRANCH  16  21
ATOM     21  O   UNL A   1      38.433 -22.721 -32.585  0.00  0.00    -0.488 OA
ATOM     22  C   UNL A   1      38.209 -23.385 -33.829  0.00  0.00    +0.079 C 
ENDBRANCH  16  21
ENDBRANCH   7  13
ENDBRANCH   6   9
ENDBRANCH   5   6
ENDBRANCH   4   5
ENDBRANCH   3   4
ENDBRANCH   2   3
ENDBRANCH   1   2
BRANCH   1  23
ATOM     23  C   UNL A   1      39.922 -17.991 -38.307  0.00  0.00    -0.045 C 
BRANCH  23  24
ATOM     24  C   UNL A   1      39.308 -19.264 -38.885  0.00  0.00    +0.025 C 
BRANCH  24  25
ATOM     25  C   UNL A   1      40.337 -20.361 -39.052  0.00  0.00    +0.229 C 
ATOM     26  O   UNL A   1      40.153 -21.338 -39.778  0.00  0.00    -0.274 OA
ATOM     27  N   UNL A   1      41.509 -20.150 -38.354  0.00  0.00    -0.236 N 
ATOM     28  H   UNL A   1      41.699 -19.287 -37.919  0.00  0.00    +0.000 HD
BRANCH  27  29
ATOM     29  N   UNL A   1      42.426 -21.225 -38.288  0.00  0.00    -0.264 N 
ATOM     30  H   UNL A   1      42.184 -22.165 -38.122  0.00  0.00    +0.000 HD
BRANCH  29  31
ATOM     31  C   UNL A   1      43.759 -20.745 -38.498  0.00  0.00    +0.056 A 
ATOM     32  C   UNL A   1      44.263 -20.568 -39.813  0.00  0.00    -0.021 A 
ATOM     33  C   UNL A   1      45.564 -20.058 -39.987  0.00  0.00    -0.042 A 
ATOM     34  C   UNL A   1      46.313 -19.664 -38.868  0.00  0.00    -0.050 A 
ATOM     35  C   UNL A   1      45.818 -19.800 -37.565  0.00  0.00    -0.016 A 
ATOM     36  C   UNL A   1      46.594 -19.400 -36.464  0.00  0.00    -0.054 A 
ATOM     37  C   UNL A   1      46.122 -19.547 -35.160  0.00  0.00    -0.061 A 
ATOM     38  C   UNL A   1      44.869 -20.104 -34.941  0.00  0.00    -0.061 A 
ATOM     39  C   UNL A   1      44.089 -20.504 -36.028  0.00  0.00    -0.052 A 
ATOM     40  C   UNL A   1      44.533 -20.352 -37.364  0.00  0.00    +0.005 A 
ATOM     41  C   UNL A   1      46.174 -19.858 -41.355  0.00  0.00    -0.027 C 
ATOM     42  C   UNL A   1      45.475 -20.660 -42.447  0.00  0.00    -0.049 C 
ATOM     43  C   UNL A   1      43.973 -20.454 -42.355  0.00  0.00    -0.049 C 
ATOM     44  C   UNL A   1      43.442 -20.977 -41.021  0.00  0.00    -0.026 C 
ENDBRANCH  29  31
ENDBRANCH  27  29
ENDBRANCH  24  25
ENDBRANCH  23  24
ENDBRANCH   1  23
TORSDOF 15
ENDMDL
MODEL 17
REMARK VINA RESULT:    -6.211     17.684     22.291
REMARK INTER + INTRA:         -14.786
REMARK INTER:                 -10.721
REMARK INTRA:                  -4.065
REMARK UNBOUND:                -3.129
REMARK  Name = cpd94.pdb
REMARK  18 active torsions:
REMARK  status: ('A' for Active; 'I' for Inactive)
REMARK    1  A    between atoms: C_1  and  O_2
REMARK    2  A    between atoms: O_2  and  C_3
REMARK    3  A    between atoms: C_5  and  C_6
REMARK    4  A    between atoms: N_8  and  C_9
REMARK    5  A    between atoms: C_9  and  C_10
REMARK    6  A    between atoms: C_10  and  C_11
REMARK    7  A    between atoms: C_11  and  C_12
REMARK    8  A    between atoms: C_12  and  C_13
REMARK    9  A    between atoms: C_13  and  C_14
REMARK   10  A    between atoms: C_14  and  C_15
REMARK   11  A    between atoms: C_15  and  C_16
REMARK   12  A    between atoms: C_16  and  C_17
REMARK   13  A    between atoms: N_19  and  N_20
REMARK   14  A    between atoms: N_20  and  C_21
REMARK   15  A    between atoms: C_36  and  O_37
REMARK   16  A    between atoms: O_37  and  C_38
REMARK   17  A    between atoms: C_39  and  O_40
REMARK   18  A    between atoms: O_40  and  C_41
REMARK                            x       y       z     vdW  Elec       q    Type
REMARK                         _______ _______ _______ _____ _____    ______ ____
ROOT
ATOM      1  C   UNL A   1      46.835 -16.990 -35.736  0.00  0.00    -0.053 C 
ENDROOT
BRANCH   1   2
ATOM      2  C   UNL A   1      47.651 -18.212 -36.157  0.00  0.00    -0.053 C 
BRANCH   2   3
ATOM      3  C   UNL A   1      47.104 -18.844 -37.438  0.00  0.00    -0.053 C 
BRANCH   3   4
ATOM      4  C   UNL A   1      46.608 -20.267 -37.178  0.00  0.00    -0.052 C 
BRANCH   4   5
ATOM      5  C   UNL A   1      45.093 -20.309 -36.974  0.00  0.00    -0.037 C 
BRANCH   5   6
ATOM      6  C   UNL A   1      44.738 -20.229 -35.490  0.00  0.00    +0.012 C 
BRANCH   6   9
ATOM      7  C   UNL A   1      42.410 -19.419 -35.462  0.00  0.00    +0.244 C 
ATOM      8  O   UNL A   1      42.717 -18.297 -35.843  0.00  0.00    -0.270 OA
ATOM      9  N   UNL A   1      43.322 -20.436 -35.266  0.00  0.00    -0.311 N 
ATOM     10  H   UNL A   1      43.004 -21.319 -34.968  0.00  0.00    +0.000 HD
BRANCH   7  13
ATOM     11  C   UNL A   1      38.646 -19.130 -35.051  0.00  0.00    +0.166 A 
ATOM     12  C   UNL A   1      39.967 -18.801 -35.363  0.00  0.00    -0.004 A 
ATOM     13  C   UNL A   1      40.989 -19.736 -35.149  0.00  0.00    +0.044 A 
ATOM     14  C   UNL A   1      40.703 -20.994 -34.600  0.00  0.00    -0.004 A 
ATOM     15  C   UNL A   1      39.390 -21.339 -34.280  0.00  0.00    +0.166 A 
ATOM     16  C   UNL A   1      38.371 -20.395 -34.501  0.00  0.00    +0.204 A 
BRANCH  11  18
ATOM     17  C   UNL A   1      37.605 -17.029 -34.582  0.00  0.00    +0.079 C 
ATOM     18  O   UNL A   1      37.570 -18.297 -35.222  0.00  0.00    -0.491 OA
ENDBRANCH  11  18
BRANCH  15  19
ATOM     19  O   UNL A   1      39.002 -22.543 -33.753  0.00  0.00    -0.491 OA
ATOM     20  C   UNL A   1      38.874 -23.639 -34.647  0.00  0.00    +0.079 C 
ENDBRANCH  15  19
BRANCH  16  21
ATOM     21  O   UNL A   1      37.063 -20.739 -34.236  0.00  0.00    -0.488 OA
ATOM     22  C   UNL A   1      36.740 -20.409 -32.886  0.00  0.00    +0.079 C 
ENDBRANCH  16  21
ENDBRANCH   7  13
ENDBRANCH   6   9
ENDBRANCH   5   6
ENDBRANCH   4   5
ENDBRANCH   3   4
ENDBRANCH   2   3
ENDBRANCH   1   2
BRANCH   1  23
ATOM     23  C   UNL A   1      46.855 -15.916 -36.826  0.00  0.00    -0.045 C 
BRANCH  23  24
ATOM     24  C   UNL A   1      45.451 -15.405 -37.140  0.00  0.00    +0.025 C 
BRANCH  24  25
ATOM     25  C   UNL A   1      44.980 -15.851 -38.507  0.00  0.00    +0.229 C 
ATOM     26  O   UNL A   1      45.313 -15.278 -39.543  0.00  0.00    -0.274 OA
ATOM     27  N   UNL A   1      44.180 -16.977 -38.491  0.00  0.00    -0.236 N 
ATOM     28  H   UNL A   1      44.067 -17.514 -37.673  0.00  0.00    +0.000 HD
BRANCH  27  29
ATOM     29  N   UNL A   1      43.530 -17.326 -39.698  0.00  0.00    -0.264 N 
ATOM     30  H   UNL A   1      43.093 -16.690 -40.309  0.00  0.00    +0.000 HD
BRANCH  29  31
ATOM     31  C   UNL A   1      43.600 -18.742 -39.899  0.00  0.00    +0.056 A 
ATOM     32  C   UNL A   1      42.484 -19.568 -39.604  0.00  0.00    -0.021 A 
ATOM     33  C   UNL A   1      42.571 -20.953 -39.849  0.00  0.00    -0.042 A 
ATOM     34  C   UNL A   1      43.723 -21.483 -40.448  0.00  0.00    -0.050 A 
ATOM     35  C   UNL A   1      44.819 -20.677 -40.778  0.00  0.00    -0.016 A 
ATOM     36  C   UNL A   1      45.962 -21.239 -41.374  0.00  0.00    -0.054 A 
ATOM     37  C   UNL A   1      47.068 -20.451 -41.690  0.00  0.00    -0.061 A 
ATOM     38  C   UNL A   1      47.049 -19.092 -41.408  0.00  0.00    -0.061 A 
ATOM     39  C   UNL A   1      45.919 -18.524 -40.817  0.00  0.00    -0.052 A 
ATOM     40  C   UNL A   1      44.774 -19.293 -40.499  0.00  0.00    +0.005 A 
ATOM     41  C   UNL A   1      41.431 -21.897 -39.544  0.00  0.00    -0.027 C 
ATOM     42  C   UNL A   1      40.420 -21.319 -38.560  0.00  0.00    -0.049 C 
ATOM     43  C   UNL A   1      40.022 -19.919 -38.995  0.00  0.00    -0.049 C 
ATOM     44  C   UNL A   1      41.233 -18.988 -38.974  0.00  0.00    -0.026 C 
ENDBRANCH  29  31
ENDBRANCH  27  29
ENDBRANCH  24  25
ENDBRANCH  23  24
ENDBRANCH   1  23
TORSDOF 15
ENDMDL
MODEL 18
REMARK VINA RESULT:    -6.179     17.644     22.234
REMARK INTER + INTRA:         -14.727
REMARK INTER:                  -9.940
REMARK INTRA:                  -4.787
REMARK UNBOUND:                -3.129
REMARK  Name = cpd94.pdb
REMARK  18 active torsions:
REMARK  status: ('A' for Active; 'I' for Inactive)
REMARK    1  A    between atoms: C_1  and  O_2
REMARK    2  A    between atoms: O_2  and  C_3
REMARK    3  A    between atoms: C_5  and  C_6
REMARK    4  A    between atoms: N_8  and  C_9
REMARK    5  A    between atoms: C_9  and  C_10
REMARK    6  A    between atoms: C_10  and  C_11
REMARK    7  A    between atoms: C_11  and  C_12
REMARK    8  A    between atoms: C_12  and  C_13
REMARK    9  A    between atoms: C_13  and  C_14
REMARK   10  A    between atoms: C_14  and  C_15
REMARK   11  A    between atoms: C_15  and  C_16
REMARK   12  A    between atoms: C_16  and  C_17
REMARK   13  A    between atoms: N_19  and  N_20
REMARK   14  A    between atoms: N_20  and  C_21
REMARK   15  A    between atoms: C_36  and  O_37
REMARK   16  A    between atoms: O_37  and  C_38
REMARK   17  A    between atoms: C_39  and  O_40
REMARK   18  A    between atoms: O_40  and  C_41
REMARK                            x       y       z     vdW  Elec       q    Type
REMARK                         _______ _______ _______ _____ _____    ______ ____
ROOT
ATOM      1  C   UNL A   1      44.491 -19.541 -41.796  0.00  0.00    -0.053 C 
ENDROOT
BRANCH   1   2
ATOM      2  C   UNL A   1      45.546 -18.883 -40.907  0.00  0.00    -0.053 C 
BRANCH   2   3
ATOM      3  C   UNL A   1      45.199 -17.425 -40.601  0.00  0.00    -0.053 C 
BRANCH   3   4
ATOM      4  C   UNL A   1      44.102 -16.916 -41.538  0.00  0.00    -0.052 C 
BRANCH   4   5
ATOM      5  C   UNL A   1      43.444 -15.645 -41.000  0.00  0.00    -0.037 C 
BRANCH   5   6
ATOM      6  C   UNL A   1      42.005 -15.915 -40.566  0.00  0.00    +0.012 C 
BRANCH   6   9
ATOM      7  C   UNL A   1      41.257 -16.299 -38.249  0.00  0.00    +0.244 C 
ATOM      8  O   UNL A   1      40.641 -15.243 -38.193  0.00  0.00    -0.270 OA
ATOM      9  N   UNL A   1      41.950 -16.723 -39.365  0.00  0.00    -0.311 N 
ATOM     10  H   UNL A   1      42.415 -17.590 -39.343  0.00  0.00    +0.000 HD
BRANCH   7  13
ATOM     11  C   UNL A   1      40.719 -17.727 -34.771  0.00  0.00    +0.166 A 
ATOM     12  C   UNL A   1      40.636 -16.872 -35.872  0.00  0.00    -0.004 A 
ATOM     13  C   UNL A   1      41.315 -17.190 -37.057  0.00  0.00    +0.044 A 
ATOM     14  C   UNL A   1      42.100 -18.349 -37.141  0.00  0.00    -0.004 A 
ATOM     15  C   UNL A   1      42.196 -19.213 -36.051  0.00  0.00    +0.166 A 
ATOM     16  C   UNL A   1      41.509 -18.887 -34.868  0.00  0.00    +0.204 A 
BRANCH  11  18
ATOM     17  C   UNL A   1      40.353 -16.295 -32.893  0.00  0.00    +0.079 C 
ATOM     18  O   UNL A   1      40.096 -17.518 -33.568  0.00  0.00    -0.491 OA
ENDBRANCH  11  18
BRANCH  15  19
ATOM     19  O   UNL A   1      42.923 -20.375 -36.033  0.00  0.00    -0.491 OA
ATOM     20  C   UNL A   1      44.321 -20.277 -36.272  0.00  0.00    +0.079 C 
ENDBRANCH  15  19
BRANCH  16  21
ATOM     21  O   UNL A   1      41.556 -19.756 -33.799  0.00  0.00    -0.488 OA
ATOM     22  C   UNL A   1      42.636 -19.405 -32.936  0.00  0.00    +0.079 C 
ENDBRANCH  16  21
ENDBRANCH   7  13
ENDBRANCH   6   9
ENDBRANCH   5   6
ENDBRANCH   4   5
ENDBRANCH   3   4
ENDBRANCH   2   3
ENDBRANCH   1   2
BRANCH   1  23
ATOM     23  C   UNL A   1      44.098 -20.916 -41.253  0.00  0.00    -0.045 C 
BRANCH  23  24
ATOM     24  C   UNL A   1      43.476 -20.816 -39.861  0.00  0.00    +0.025 C 
BRANCH  24  25
ATOM     25  C   UNL A   1      42.157 -21.554 -39.778  0.00  0.00    +0.229 C 
ATOM     26  O   UNL A   1      41.616 -22.059 -40.761  0.00  0.00    -0.274 OA
ATOM     27  N   UNL A   1      41.639 -21.646 -38.501  0.00  0.00    -0.236 N 
ATOM     28  H   UNL A   1      42.168 -21.385 -37.713  0.00  0.00    +0.000 HD
BRANCH  27  29
ATOM     29  N   UNL A   1      40.315 -22.129 -38.373  0.00  0.00    -0.264 N 
ATOM     30  H   UNL A   1      39.971 -22.953 -38.788  0.00  0.00    +0.000 HD
BRANCH  29  31
ATOM     31  C   UNL A   1      39.548 -21.242 -37.552  0.00  0.00    +0.056 A 
ATOM     32  C   UNL A   1      38.940 -20.086 -38.109  0.00  0.00    -0.021 A 
ATOM     33  C   UNL A   1      38.160 -19.254 -37.283  0.00  0.00    -0.042 A 
ATOM     34  C   UNL A   1      37.933 -19.615 -35.946  0.00  0.00    -0.050 A 
ATOM     35  C   UNL A   1      38.497 -20.769 -35.390  0.00  0.00    -0.016 A 
ATOM     36  C   UNL A   1      38.254 -21.102 -34.045  0.00  0.00    -0.054 A 
ATOM     37  C   UNL A   1      38.824 -22.238 -33.472  0.00  0.00    -0.061 A 
ATOM     38  C   UNL A   1      39.651 -23.053 -34.234  0.00  0.00    -0.061 A 
ATOM     39  C   UNL A   1      39.898 -22.732 -35.570  0.00  0.00    -0.052 A 
ATOM     40  C   UNL A   1      39.321 -21.595 -36.186  0.00  0.00    +0.005 A 
ATOM     41  C   UNL A   1      37.496 -17.999 -37.802  0.00  0.00    -0.027 C 
ATOM     42  C   UNL A   1      38.107 -17.491 -39.103  0.00  0.00    -0.049 C 
ATOM     43  C   UNL A   1      38.228 -18.635 -40.095  0.00  0.00    -0.049 C 
ATOM     44  C   UNL A   1      39.173 -19.711 -39.560  0.00  0.00    -0.026 C 
ENDBRANCH  29  31
ENDBRANCH  27  29
ENDBRANCH  24  25
ENDBRANCH  23  24
ENDBRANCH   1  23
TORSDOF 15
ENDMDL
MODEL 19
REMARK VINA RESULT:    -6.068     20.513     24.296
REMARK INTER + INTRA:         -14.519
REMARK INTER:                  -9.439
REMARK INTRA:                  -5.080
REMARK UNBOUND:                -3.129
REMARK  Name = cpd94.pdb
REMARK  18 active torsions:
REMARK  status: ('A' for Active; 'I' for Inactive)
REMARK    1  A    between atoms: C_1  and  O_2
REMARK    2  A    between atoms: O_2  and  C_3
REMARK    3  A    between atoms: C_5  and  C_6
REMARK    4  A    between atoms: N_8  and  C_9
REMARK    5  A    between atoms: C_9  and  C_10
REMARK    6  A    between atoms: C_10  and  C_11
REMARK    7  A    between atoms: C_11  and  C_12
REMARK    8  A    between atoms: C_12  and  C_13
REMARK    9  A    between atoms: C_13  and  C_14
REMARK   10  A    between atoms: C_14  and  C_15
REMARK   11  A    between atoms: C_15  and  C_16
REMARK   12  A    between atoms: C_16  and  C_17
REMARK   13  A    between atoms: N_19  and  N_20
REMARK   14  A    between atoms: N_20  and  C_21
REMARK   15  A    between atoms: C_36  and  O_37
REMARK   16  A    between atoms: O_37  and  C_38
REMARK   17  A    between atoms: C_39  and  O_40
REMARK   18  A    between atoms: O_40  and  C_41
REMARK                            x       y       z     vdW  Elec       q    Type
REMARK                         _______ _______ _______ _____ _____    ______ ____
ROOT
ATOM      1  C   UNL A   1      43.069 -15.599 -41.291  0.00  0.00    -0.053 C 
ENDROOT
BRANCH   1   2
ATOM      2  C   UNL A   1      43.812 -14.432 -40.639  0.00  0.00    -0.053 C 
BRANCH   2   3
ATOM      3  C   UNL A   1      45.014 -13.990 -41.475  0.00  0.00    -0.053 C 
BRANCH   3   4
ATOM      4  C   UNL A   1      46.300 -14.022 -40.645  0.00  0.00    -0.052 C 
BRANCH   4   5
ATOM      5  C   UNL A   1      47.023 -15.362 -40.776  0.00  0.00    -0.037 C 
BRANCH   5   6
ATOM      6  C   UNL A   1      47.498 -15.863 -39.413  0.00  0.00    +0.012 C 
BRANCH   6   9
ATOM      7  C   UNL A   1      46.353 -15.685 -37.238  0.00  0.00    +0.244 C 
ATOM      8  O   UNL A   1      47.230 -14.985 -36.748  0.00  0.00    -0.270 OA
ATOM      9  N   UNL A   1      46.386 -16.159 -38.533  0.00  0.00    -0.311 N 
ATOM     10  H   UNL A   1      45.640 -16.709 -38.865  0.00  0.00    +0.000 HD
BRANCH   7  13
ATOM     11  C   UNL A   1      44.112 -16.451 -34.268  0.00  0.00    +0.166 A 
ATOM     12  C   UNL A   1      45.224 -16.049 -35.011  0.00  0.00    -0.004 A 
ATOM     13  C   UNL A   1      45.185 -16.098 -36.412  0.00  0.00    +0.044 A 
ATOM     14  C   UNL A   1      44.045 -16.570 -37.078  0.00  0.00    -0.004 A 
ATOM     15  C   UNL A   1      42.926 -16.978 -36.353  0.00  0.00    +0.166 A 
ATOM     16  C   UNL A   1      42.975 -16.923 -34.948  0.00  0.00    +0.204 A 
BRANCH  11  18
ATOM     17  C   UNL A   1      45.063 -17.113 -32.177  0.00  0.00    +0.079 C 
ATOM     18  O   UNL A   1      44.040 -16.441 -32.900  0.00  0.00    -0.491 OA
ENDBRANCH  11  18
BRANCH  15  19
ATOM     19  O   UNL A   1      41.760 -17.443 -36.904  0.00  0.00    -0.491 OA
ATOM     20  C   UNL A   1      41.210 -16.708 -37.989  0.00  0.00    +0.079 C 
ENDBRANCH  15  19
BRANCH  16  21
ATOM     21  O   UNL A   1      41.859 -17.276 -34.219  0.00  0.00    -0.488 OA
ATOM     22  C   UNL A   1      41.008 -16.143 -34.058  0.00  0.00    +0.079 C 
ENDBRANCH  16  21
ENDBRANCH   7  13
ENDBRANCH   6   9
ENDBRANCH   5   6
ENDBRANCH   4   5
ENDBRANCH   3   4
ENDBRANCH   2   3
ENDBRANCH   1   2
BRANCH   1  23
ATOM     23  C   UNL A   1      43.544 -16.937 -40.721  0.00  0.00    -0.045 C 
BRANCH  23  24
ATOM     24  C   UNL A   1      44.290 -17.763 -41.767  0.00  0.00    +0.025 C 
BRANCH  24  25
ATOM     25  C   UNL A   1      44.676 -19.127 -41.240  0.00  0.00    +0.229 C 
ATOM     26  O   UNL A   1      44.366 -20.172 -41.811  0.00  0.00    -0.274 OA
ATOM     27  N   UNL A   1      45.438 -19.095 -40.088  0.00  0.00    -0.236 N 
ATOM     28  H   UNL A   1      45.814 -18.252 -39.746  0.00  0.00    +0.000 HD
BRANCH  27  29
ATOM     29  N   UNL A   1      45.654 -20.323 -39.420  0.00  0.00    -0.264 N 
ATOM     30  H   UNL A   1      46.043 -21.129 -39.831  0.00  0.00    +0.000 HD
BRANCH  29  31
ATOM     31  C   UNL A   1      45.221 -20.223 -38.059  0.00  0.00    +0.056 A 
ATOM     32  C   UNL A   1      43.931 -20.675 -37.677  0.00  0.00    -0.021 A 
ATOM     33  C   UNL A   1      43.549 -20.598 -36.323  0.00  0.00    -0.042 A 
ATOM     34  C   UNL A   1      44.470 -20.148 -35.365  0.00  0.00    -0.050 A 
ATOM     35  C   UNL A   1      45.758 -19.730 -35.720  0.00  0.00    -0.016 A 
ATOM     36  C   UNL A   1      46.657 -19.281 -34.736  0.00  0.00    -0.054 A 
ATOM     37  C   UNL A   1      47.936 -18.844 -35.077  0.00  0.00    -0.061 A 
ATOM     38  C   UNL A   1      48.331 -18.844 -36.408  0.00  0.00    -0.061 A 
ATOM     39  C   UNL A   1      47.447 -19.290 -37.393  0.00  0.00    -0.052 A 
ATOM     40  C   UNL A   1      46.148 -19.755 -37.077  0.00  0.00    +0.005 A 
ATOM     41  C   UNL A   1      42.188 -21.045 -35.844  0.00  0.00    -0.027 C 
ATOM     42  C   UNL A   1      41.156 -21.132 -36.964  0.00  0.00    -0.049 C 
ATOM     43  C   UNL A   1      41.734 -21.908 -38.136  0.00  0.00    -0.049 C 
ATOM     44  C   UNL A   1      42.946 -21.179 -38.714  0.00  0.00    -0.026 C 
ENDBRANCH  29  31
ENDBRANCH  27  29
ENDBRANCH  24  25
ENDBRANCH  23  24
ENDBRANCH   1  23
TORSDOF 15
ENDMDL
MODEL 20
REMARK VINA RESULT:    -5.805     17.838     21.835
REMARK INTER + INTRA:         -14.024
REMARK INTER:                  -8.926
REMARK INTRA:                  -5.098
REMARK UNBOUND:                -3.129
REMARK  Name = cpd94.pdb
REMARK  18 active torsions:
REMARK  status: ('A' for Active; 'I' for Inactive)
REMARK    1  A    between atoms: C_1  and  O_2
REMARK    2  A    between atoms: O_2  and  C_3
REMARK    3  A    between atoms: C_5  and  C_6
REMARK    4  A    between atoms: N_8  and  C_9
REMARK    5  A    between atoms: C_9  and  C_10
REMARK    6  A    between atoms: C_10  and  C_11
REMARK    7  A    between atoms: C_11  and  C_12
REMARK    8  A    between atoms: C_12  and  C_13
REMARK    9  A    between atoms: C_13  and  C_14
REMARK   10  A    between atoms: C_14  and  C_15
REMARK   11  A    between atoms: C_15  and  C_16
REMARK   12  A    between atoms: C_16  and  C_17
REMARK   13  A    between atoms: N_19  and  N_20
REMARK   14  A    between atoms: N_20  and  C_21
REMARK   15  A    between atoms: C_36  and  O_37
REMARK   16  A    between atoms: O_37  and  C_38
REMARK   17  A    between atoms: C_39  and  O_40
REMARK   18  A    between atoms: O_40  and  C_41
REMARK                            x       y       z     vdW  Elec       q    Type
REMARK                         _______ _______ _______ _____ _____    ______ ____
ROOT
ATOM      1  C   UNL A   1      43.915 -15.386 -35.430  0.00  0.00    -0.053 C 
ENDROOT
BRANCH   1   2
ATOM      2  C   UNL A   1      42.661 -14.854 -36.126  0.00  0.00    -0.053 C 
BRANCH   2   3
ATOM      3  C   UNL A   1      42.979 -14.292 -37.513  0.00  0.00    -0.053 C 
BRANCH   3   4
ATOM      4  C   UNL A   1      42.192 -15.032 -38.597  0.00  0.00    -0.052 C 
BRANCH   4   5
ATOM      5  C   UNL A   1      42.987 -16.204 -39.172  0.00  0.00    -0.037 C 
BRANCH   5   6
ATOM      6  C   UNL A   1      42.141 -17.474 -39.209  0.00  0.00    +0.012 C 
BRANCH   6   9
ATOM      7  C   UNL A   1      40.047 -17.880 -37.974  0.00  0.00    +0.244 C 
ATOM      8  O   UNL A   1      39.368 -17.932 -38.992  0.00  0.00    -0.270 OA
ATOM      9  N   UNL A   1      41.410 -17.668 -37.973  0.00  0.00    -0.311 N 
ATOM     10  H   UNL A   1      41.895 -17.649 -37.117  0.00  0.00    +0.000 HD
BRANCH   7  13
ATOM     11  C   UNL A   1      39.478 -17.960 -34.220  0.00  0.00    +0.166 A 
ATOM     12  C   UNL A   1      40.118 -17.819 -35.453  0.00  0.00    -0.004 A 
ATOM     13  C   UNL A   1      39.398 -18.014 -36.640  0.00  0.00    +0.044 A 
ATOM     14  C   UNL A   1      38.043 -18.374 -36.603  0.00  0.00    -0.004 A 
ATOM     15  C   UNL A   1      37.388 -18.521 -35.381  0.00  0.00    +0.166 A 
ATOM     16  C   UNL A   1      38.119 -18.322 -34.195  0.00  0.00    +0.204 A 
BRANCH  11  18
ATOM     17  C   UNL A   1      41.443 -17.385 -32.986  0.00  0.00    +0.079 C 
ATOM     18  O   UNL A   1      40.081 -17.791 -33.000  0.00  0.00    -0.491 OA
ENDBRANCH  11  18
BRANCH  15  19
ATOM     19  O   UNL A   1      36.068 -18.856 -35.233  0.00  0.00    -0.491 OA
ATOM     20  C   UNL A   1      35.244 -18.801 -36.391  0.00  0.00    +0.079 C 
ENDBRANCH  15  19
BRANCH  16  21
ATOM     21  O   UNL A   1      37.473 -18.416 -32.981  0.00  0.00    -0.488 OA
ATOM     22  C   UNL A   1      36.935 -17.145 -32.619  0.00  0.00    +0.079 C 
ENDBRANCH  16  21
ENDBRANCH   7  13
ENDBRANCH   6   9
ENDBRANCH   5   6
ENDBRANCH   4   5
ENDBRANCH   3   4
ENDBRANCH   2   3
ENDBRANCH   1   2
BRANCH   1  23
ATOM     23  C   UNL A   1      44.042 -16.899 -35.614  0.00  0.00    -0.045 C 
BRANCH  23  24
ATOM     24  C   UNL A   1      44.888 -17.531 -34.511  0.00  0.00    +0.025 C 
BRANCH  24  25
ATOM     25  C   UNL A   1      44.660 -19.024 -34.410  0.00  0.00    +0.229 C 
ATOM     26  O   UNL A   1      45.383 -19.762 -33.740  0.00  0.00    -0.274 OA
ATOM     27  N   UNL A   1      43.552 -19.476 -35.099  0.00  0.00    -0.236 N 
ATOM     28  H   UNL A   1      42.897 -18.850 -35.484  0.00  0.00    +0.000 HD
BRANCH  27  29
ATOM     29  N   UNL A   1      43.397 -20.876 -35.228  0.00  0.00    -0.264 N 
ATOM     30  H   UNL A   1      44.072 -21.545 -34.972  0.00  0.00    +0.000 HD
BRANCH  29  31
ATOM     31  C   UNL A   1      42.114 -21.177 -35.788  0.00  0.00    +0.056 A 
ATOM     32  C   UNL A   1      40.989 -21.375 -34.947  0.00  0.00    -0.021 A 
ATOM     33  C   UNL A   1      39.732 -21.632 -35.529  0.00  0.00    -0.042 A 
ATOM     34  C   UNL A   1      39.595 -21.613 -36.926  0.00  0.00    -0.050 A 
ATOM     35  C   UNL A   1      40.689 -21.386 -37.770  0.00  0.00    -0.016 A 
ATOM     36  C   UNL A   1      40.520 -21.378 -39.166  0.00  0.00    -0.054 A 
ATOM     37  C   UNL A   1      41.603 -21.171 -40.019  0.00  0.00    -0.061 A 
ATOM     38  C   UNL A   1      42.870 -20.976 -39.487  0.00  0.00    -0.061 A 
ATOM     39  C   UNL A   1      43.049 -20.981 -38.103  0.00  0.00    -0.052 A 
ATOM     40  C   UNL A   1      41.967 -21.172 -37.209  0.00  0.00    +0.005 A 
ATOM     41  C   UNL A   1      38.493 -21.869 -34.698  0.00  0.00    -0.027 C 
ATOM     42  C   UNL A   1      38.802 -22.259 -33.257  0.00  0.00    -0.049 C 
ATOM     43  C   UNL A   1      39.819 -21.294 -32.670  0.00  0.00    -0.049 C 
ATOM     44  C   UNL A   1      41.138 -21.374 -33.438  0.00  0.00    -0.026 C 
ENDBRANCH  29  31
ENDBRANCH  27  29
ENDBRANCH  24  25
ENDBRANCH  23  24
ENDBRANCH   1  23
TORSDOF 15
ENDMDL
