REMARK  Name = cpd141.pdb
REMARK  7 active torsions:
REMARK  status: ('A' for Active; 'I' for Inactive)
REMARK    1  A    between atoms: C_1  and  C_2
REMARK    2  A    between atoms: C_2  and  C_4
REMARK    3  A    between atoms: C_4  and  C_5
REMARK    4  A    between atoms: N_7  and  C_8
REMARK    5  A    between atoms: C_8  and  C_9
REMARK    6  A    between atoms: C_9  and  N_10
REMARK    7  A    between atoms: N_10  and  C_11
REMARK                            x       y       z     vdW  Elec       q    Type
REMARK                         _______ _______ _______ _____ _____    ______ ____
ROOT
ATOM      1  C   UNL A   1       2.047   0.722  -0.861  0.00  0.00    +0.041 A 
ATOM      2  C   UNL A   1       0.740   0.888  -0.352  0.00  0.00    -0.005 A 
ATOM      3  C   UNL A   1       0.486   2.019   0.431  0.00  0.00    +0.047 A 
ATOM      4  N   UNL A   1       1.436   2.927   0.754  0.00  0.00    -0.251 NA
ATOM      5  C   UNL A   1       2.667   2.787   0.249  0.00  0.00    +0.073 A 
ATOM      6  C   UNL A   1       3.611   3.759   0.556  0.00  0.00    -0.036 A 
ATOM      7  C   UNL A   1       4.910   3.718   0.046  0.00  0.00    -0.060 A 
ATOM      8  C   UNL A   1       5.277   2.686  -0.803  0.00  0.00    -0.061 A 
ATOM      9  C   UNL A   1       4.346   1.697  -1.118  0.00  0.00    -0.051 A 
ATOM     10  C   UNL A   1       3.034   1.710  -0.581  0.00  0.00    +0.021 A 
ATOM     11  C   UNL A   1      -0.869   2.283   1.036  0.00  0.00    -0.010 C 
ATOM     12  C   UNL A   1      -1.999   1.551   0.326  0.00  0.00    -0.047 C 
ATOM     13  C   UNL A   1      -1.633   0.085   0.163  0.00  0.00    -0.049 C 
ATOM     14  C   UNL A   1      -0.383  -0.062  -0.703  0.00  0.00    -0.024 C 
ENDROOT
BRANCH   1  15
ATOM     15  N   UNL A   1       2.389  -0.451  -1.583  0.00  0.00    -0.342 N 
ATOM     16  H   UNL A   1       2.076  -0.610  -2.503  0.00  0.00    +0.000 HD
BRANCH  15  17
ATOM     17  C   UNL A   1       3.244  -1.417  -0.867  0.00  0.00    +0.025 C 
BRANCH  17  18
ATOM     18  C   UNL A   1       2.551  -2.076   0.338  0.00  0.00    +0.027 C 
BRANCH  18  21
ATOM     19  C   UNL A   1       3.575  -4.316   0.501  0.00  0.00    +0.220 C 
ATOM     20  O   UNL A   1       3.012  -4.712  -0.515  0.00  0.00    -0.275 OA
ATOM     21  N   UNL A   1       3.394  -3.051   1.011  0.00  0.00    -0.313 N 
ATOM     22  H   UNL A   1       3.845  -2.801   1.850  0.00  0.00    +0.000 HD
BRANCH  19  23
ATOM     23  C   UNL A   1       4.507  -5.190   1.294  0.00  0.00    +0.082 C 
BRANCH  23  25
ATOM     24  C   UNL A   1       5.346  -6.793  -0.545  0.00  0.00    -0.006 C 
ATOM     25  C   UNL A   1       5.647  -5.721   0.469  0.00  0.00    +0.139 C 
ATOM     26  O   UNL A   1       6.786  -5.268   0.601  0.00  0.00    -0.297 OA
ENDBRANCH  23  25
ENDBRANCH  19  23
ENDBRANCH  18  21
ENDBRANCH  17  18
ENDBRANCH  15  17
ENDBRANCH   1  15
TORSDOF 6
