MODEL 1
REMARK VINA RESULT:    -8.042      0.000      0.000
REMARK INTER + INTRA:         -11.575
REMARK INTER:                 -10.862
REMARK INTRA:                  -0.712
REMARK UNBOUND:                -0.712
REMARK  Name = cpd141.pdb
REMARK  7 active torsions:
REMARK  status: ('A' for Active; 'I' for Inactive)
REMARK    1  A    between atoms: C_1  and  C_2
REMARK    2  A    between atoms: C_2  and  C_4
REMARK    3  A    between atoms: C_4  and  C_5
REMARK    4  A    between atoms: N_7  and  C_8
REMARK    5  A    between atoms: C_8  and  C_9
REMARK    6  A    between atoms: C_9  and  N_10
REMARK    7  A    between atoms: N_10  and  C_11
REMARK                            x       y       z     vdW  Elec       q    Type
REMARK                         _______ _______ _______ _____ _____    ______ ____
ROOT
ATOM      1  C   UNL A   1      36.133 -35.061 -30.658  0.00  0.00    +0.041 A 
ATOM      2  C   UNL A   1      35.071 -34.138 -30.531  0.00  0.00    -0.005 A 
ATOM      3  C   UNL A   1      34.225 -34.269 -29.425  0.00  0.00    +0.047 A 
ATOM      4  N   UNL A   1      34.350 -35.255 -28.506  0.00  0.00    -0.251 NA
ATOM      5  C   UNL A   1      35.372 -36.112 -28.609  0.00  0.00    +0.073 A 
ATOM      6  C   UNL A   1      35.507 -37.084 -27.626  0.00  0.00    -0.036 A 
ATOM      7  C   UNL A   1      36.562 -37.999 -27.628  0.00  0.00    -0.060 A 
ATOM      8  C   UNL A   1      37.517 -37.937 -28.630  0.00  0.00    -0.061 A 
ATOM      9  C   UNL A   1      37.395 -36.972 -29.630  0.00  0.00    -0.051 A 
ATOM     10  C   UNL A   1      36.311 -36.059 -29.657  0.00  0.00    +0.021 A 
ATOM     11  C   UNL A   1      33.053 -33.347 -29.204  0.00  0.00    -0.010 C 
ATOM     12  C   UNL A   1      33.181 -32.022 -29.941  0.00  0.00    -0.047 C 
ATOM     13  C   UNL A   1      33.541 -32.280 -31.394  0.00  0.00    -0.049 C 
ATOM     14  C   UNL A   1      34.892 -32.986 -31.494  0.00  0.00    -0.024 C 
ENDROOT
BRANCH   1  15
ATOM     15  N   UNL A   1      36.968 -35.037 -31.805  0.00  0.00    -0.342 N 
ATOM     16  H   UNL A   1      36.758 -35.553 -32.617  0.00  0.00    +0.000 HD
BRANCH  15  17
ATOM     17  C   UNL A   1      38.170 -34.187 -31.704  0.00  0.00    +0.025 C 
BRANCH  17  18
ATOM     18  C   UNL A   1      39.390 -34.758 -32.447  0.00  0.00    +0.027 C 
BRANCH  18  21
ATOM     19  C   UNL A   1      41.667 -35.420 -31.761  0.00  0.00    +0.220 C 
ATOM     20  O   UNL A   1      42.187 -34.823 -32.699  0.00  0.00    -0.275 OA
ATOM     21  N   UNL A   1      40.306 -35.467 -31.567  0.00  0.00    -0.313 N 
ATOM     22  H   UNL A   1      39.944 -35.992 -30.816  0.00  0.00    +0.000 HD
BRANCH  19  23
ATOM     23  C   UNL A   1      42.478 -36.173 -30.742  0.00  0.00    +0.082 C 
BRANCH  23  25
ATOM     24  C   UNL A   1      42.680 -38.737 -30.936  0.00  0.00    -0.006 C 
ATOM     25  C   UNL A   1      41.915 -37.536 -30.446  0.00  0.00    +0.139 C 
ATOM     26  O   UNL A   1      40.875 -37.662 -29.796  0.00  0.00    -0.297 OA
ENDBRANCH  23  25
ENDBRANCH  19  23
ENDBRANCH  18  21
ENDBRANCH  17  18
ENDBRANCH  15  17
ENDBRANCH   1  15
TORSDOF 6
ENDMDL
MODEL 2
REMARK VINA RESULT:    -7.879      3.263      6.711
REMARK INTER + INTRA:         -11.355
REMARK INTER:                 -10.294
REMARK INTRA:                  -1.060
REMARK UNBOUND:                -0.712
REMARK  Name = cpd141.pdb
REMARK  7 active torsions:
REMARK  status: ('A' for Active; 'I' for Inactive)
REMARK    1  A    between atoms: C_1  and  C_2
REMARK    2  A    between atoms: C_2  and  C_4
REMARK    3  A    between atoms: C_4  and  C_5
REMARK    4  A    between atoms: N_7  and  C_8
REMARK    5  A    between atoms: C_8  and  C_9
REMARK    6  A    between atoms: C_9  and  N_10
REMARK    7  A    between atoms: N_10  and  C_11
REMARK                            x       y       z     vdW  Elec       q    Type
REMARK                         _______ _______ _______ _____ _____    ______ ____
ROOT
ATOM      1  C   UNL A   1      36.996 -35.569 -30.723  0.00  0.00    +0.041 A 
ATOM      2  C   UNL A   1      36.455 -36.245 -29.607  0.00  0.00    -0.005 A 
ATOM      3  C   UNL A   1      37.260 -37.194 -28.969  0.00  0.00    +0.047 A 
ATOM      4  N   UNL A   1      38.502 -37.520 -29.394  0.00  0.00    -0.251 NA
ATOM      5  C   UNL A   1      39.028 -36.861 -30.432  0.00  0.00    +0.073 A 
ATOM      6  C   UNL A   1      40.323 -37.180 -30.819  0.00  0.00    -0.036 A 
ATOM      7  C   UNL A   1      40.968 -36.521 -31.866  0.00  0.00    -0.060 A 
ATOM      8  C   UNL A   1      40.309 -35.506 -32.542  0.00  0.00    -0.061 A 
ATOM      9  C   UNL A   1      39.006 -35.175 -32.174  0.00  0.00    -0.051 A 
ATOM     10  C   UNL A   1      38.329 -35.859 -31.133  0.00  0.00    +0.021 A 
ATOM     11  C   UNL A   1      36.774 -37.983 -27.780  0.00  0.00    -0.010 C 
ATOM     12  C   UNL A   1      35.614 -37.320 -27.050  0.00  0.00    -0.047 C 
ATOM     13  C   UNL A   1      34.542 -36.924 -28.051  0.00  0.00    -0.049 C 
ATOM     14  C   UNL A   1      35.091 -35.906 -29.049  0.00  0.00    -0.024 C 
ENDROOT
BRANCH   1  15
ATOM     15  N   UNL A   1      36.195 -34.664 -31.467  0.00  0.00    -0.342 N 
ATOM     16  H   UNL A   1      35.740 -34.929 -32.299  0.00  0.00    +0.000 HD
BRANCH  15  17
ATOM     17  C   UNL A   1      36.088 -33.300 -30.915  0.00  0.00    +0.025 C 
BRANCH  17  18
ATOM     18  C   UNL A   1      34.995 -32.450 -31.583  0.00  0.00    +0.027 C 
BRANCH  18  21
ATOM     19  C   UNL A   1      32.847 -33.651 -31.387  0.00  0.00    +0.220 C 
ATOM     20  O   UNL A   1      33.128 -34.422 -32.300  0.00  0.00    -0.275 OA
ATOM     21  N   UNL A   1      33.685 -32.638 -30.981  0.00  0.00    -0.313 N 
ATOM     22  H   UNL A   1      33.391 -32.028 -30.266  0.00  0.00    +0.000 HD
BRANCH  19  23
ATOM     23  C   UNL A   1      31.546 -33.735 -30.638  0.00  0.00    +0.082 C 
BRANCH  23  25
ATOM     24  C   UNL A   1      31.978 -34.061 -28.115  0.00  0.00    -0.006 C 
ATOM     25  C   UNL A   1      31.632 -33.143 -29.258  0.00  0.00    +0.139 C 
ATOM     26  O   UNL A   1      31.455 -31.937 -29.077  0.00  0.00    -0.297 OA
ENDBRANCH  23  25
ENDBRANCH  19  23
ENDBRANCH  18  21
ENDBRANCH  17  18
ENDBRANCH  15  17
ENDBRANCH   1  15
TORSDOF 6
ENDMDL
MODEL 3
REMARK VINA RESULT:    -7.856      3.190      6.718
REMARK INTER + INTRA:         -11.324
REMARK INTER:                 -10.446
REMARK INTRA:                  -0.878
REMARK UNBOUND:                -0.712
REMARK  Name = cpd141.pdb
REMARK  7 active torsions:
REMARK  status: ('A' for Active; 'I' for Inactive)
REMARK    1  A    between atoms: C_1  and  C_2
REMARK    2  A    between atoms: C_2  and  C_4
REMARK    3  A    between atoms: C_4  and  C_5
REMARK    4  A    between atoms: N_7  and  C_8
REMARK    5  A    between atoms: C_8  and  C_9
REMARK    6  A    between atoms: C_9  and  N_10
REMARK    7  A    between atoms: N_10  and  C_11
REMARK                            x       y       z     vdW  Elec       q    Type
REMARK                         _______ _______ _______ _____ _____    ______ ____
ROOT
ATOM      1  C   UNL A   1      37.393 -35.652 -30.824  0.00  0.00    +0.041 A 
ATOM      2  C   UNL A   1      36.877 -36.371 -29.722  0.00  0.00    -0.005 A 
ATOM      3  C   UNL A   1      37.723 -37.288 -29.091  0.00  0.00    +0.047 A 
ATOM      4  N   UNL A   1      38.984 -37.546 -29.510  0.00  0.00    -0.251 NA
ATOM      5  C   UNL A   1      39.484 -36.846 -30.535  0.00  0.00    +0.073 A 
ATOM      6  C   UNL A   1      40.797 -37.096 -30.915  0.00  0.00    -0.036 A 
ATOM      7  C   UNL A   1      41.417 -36.390 -31.947  0.00  0.00    -0.060 A 
ATOM      8  C   UNL A   1      40.713 -35.399 -32.614  0.00  0.00    -0.061 A 
ATOM      9  C   UNL A   1      39.392 -35.138 -32.252  0.00  0.00    -0.051 A 
ATOM     10  C   UNL A   1      38.741 -35.870 -31.227  0.00  0.00    +0.021 A 
ATOM     11  C   UNL A   1      37.268 -38.118 -27.918  0.00  0.00    -0.010 C 
ATOM     12  C   UNL A   1      36.071 -37.524 -27.188  0.00  0.00    -0.047 C 
ATOM     13  C   UNL A   1      34.988 -37.166 -28.193  0.00  0.00    -0.049 C 
ATOM     14  C   UNL A   1      35.494 -36.108 -29.172  0.00  0.00    -0.024 C 
ENDROOT
BRANCH   1  15
ATOM     15  N   UNL A   1      36.554 -34.777 -31.562  0.00  0.00    -0.342 N 
ATOM     16  H   UNL A   1      36.054 -35.076 -32.355  0.00  0.00    +0.000 HD
BRANCH  15  17
ATOM     17  C   UNL A   1      36.480 -33.390 -31.064  0.00  0.00    +0.025 C 
BRANCH  17  18
ATOM     18  C   UNL A   1      35.115 -32.723 -31.303  0.00  0.00    +0.027 C 
BRANCH  18  21
ATOM     19  C   UNL A   1      33.063 -32.253 -30.013  0.00  0.00    +0.220 C 
ATOM     20  O   UNL A   1      32.900 -31.165 -30.557  0.00  0.00    -0.275 OA
ATOM     21  N   UNL A   1      34.129 -33.076 -30.293  0.00  0.00    -0.313 N 
ATOM     22  H   UNL A   1      34.227 -33.923 -29.799  0.00  0.00    +0.000 HD
BRANCH  19  23
ATOM     23  C   UNL A   1      32.114 -32.780 -28.973  0.00  0.00    +0.082 C 
BRANCH  23  25
ATOM     24  C   UNL A   1      32.172 -35.013 -27.682  0.00  0.00    -0.006 C 
ATOM     25  C   UNL A   1      32.011 -34.280 -28.988  0.00  0.00    +0.139 C 
ATOM     26  O   UNL A   1      31.772 -34.886 -30.035  0.00  0.00    -0.297 OA
ENDBRANCH  23  25
ENDBRANCH  19  23
ENDBRANCH  18  21
ENDBRANCH  17  18
ENDBRANCH  15  17
ENDBRANCH   1  15
TORSDOF 6
ENDMDL
MODEL 4
REMARK VINA RESULT:    -7.837      3.217      6.789
REMARK INTER + INTRA:         -11.299
REMARK INTER:                 -10.384
REMARK INTRA:                  -0.915
REMARK UNBOUND:                -0.712
REMARK  Name = cpd141.pdb
REMARK  7 active torsions:
REMARK  status: ('A' for Active; 'I' for Inactive)
REMARK    1  A    between atoms: C_1  and  C_2
REMARK    2  A    between atoms: C_2  and  C_4
REMARK    3  A    between atoms: C_4  and  C_5
REMARK    4  A    between atoms: N_7  and  C_8
REMARK    5  A    between atoms: C_8  and  C_9
REMARK    6  A    between atoms: C_9  and  N_10
REMARK    7  A    between atoms: N_10  and  C_11
REMARK                            x       y       z     vdW  Elec       q    Type
REMARK                         _______ _______ _______ _____ _____    ______ ____
ROOT
ATOM      1  C   UNL A   1      37.135 -35.728 -30.761  0.00  0.00    +0.041 A 
ATOM      2  C   UNL A   1      38.479 -36.021 -31.081  0.00  0.00    -0.005 A 
ATOM      3  C   UNL A   1      39.183 -36.868 -30.218  0.00  0.00    +0.047 A 
ATOM      4  N   UNL A   1      38.653 -37.379 -29.083  0.00  0.00    -0.251 NA
ATOM      5  C   UNL A   1      37.371 -37.126 -28.793  0.00  0.00    +0.073 A 
ATOM      6  C   UNL A   1      36.837 -37.702 -27.647  0.00  0.00    -0.036 A 
ATOM      7  C   UNL A   1      35.500 -37.526 -27.283  0.00  0.00    -0.060 A 
ATOM      8  C   UNL A   1      34.669 -36.764 -28.089  0.00  0.00    -0.061 A 
ATOM      9  C   UNL A   1      35.188 -36.173 -29.240  0.00  0.00    -0.051 A 
ATOM     10  C   UNL A   1      36.551 -36.317 -29.603  0.00  0.00    +0.021 A 
ATOM     11  C   UNL A   1      40.626 -37.232 -30.458  0.00  0.00    -0.010 C 
ATOM     12  C   UNL A   1      41.061 -37.049 -31.905  0.00  0.00    -0.047 C 
ATOM     13  C   UNL A   1      40.648 -35.669 -32.391  0.00  0.00    -0.049 C 
ATOM     14  C   UNL A   1      39.128 -35.521 -32.352  0.00  0.00    -0.024 C 
ENDROOT
BRANCH   1  15
ATOM     15  N   UNL A   1      36.400 -34.802 -31.545  0.00  0.00    -0.342 N 
ATOM     16  H   UNL A   1      36.070 -35.024 -32.447  0.00  0.00    +0.000 HD
BRANCH  15  17
ATOM     17  C   UNL A   1      36.159 -33.486 -30.925  0.00  0.00    +0.025 C 
BRANCH  17  18
ATOM     18  C   UNL A   1      34.942 -32.745 -31.505  0.00  0.00    +0.027 C 
BRANCH  18  21
ATOM     19  C   UNL A   1      32.785 -32.305 -30.389  0.00  0.00    +0.220 C 
ATOM     20  O   UNL A   1      33.005 -31.100 -30.311  0.00  0.00    -0.275 OA
ATOM     21  N   UNL A   1      33.683 -33.194 -30.934  0.00  0.00    -0.313 N 
ATOM     22  H   UNL A   1      33.467 -34.155 -30.938  0.00  0.00    +0.000 HD
BRANCH  19  23
ATOM     23  C   UNL A   1      31.514 -32.923 -29.877  0.00  0.00    +0.082 C 
BRANCH  23  25
ATOM     24  C   UNL A   1      31.889 -34.297 -27.726  0.00  0.00    -0.006 C 
ATOM     25  C   UNL A   1      31.741 -34.259 -29.225  0.00  0.00    +0.139 C 
ATOM     26  O   UNL A   1      31.772 -35.292 -29.896  0.00  0.00    -0.297 OA
ENDBRANCH  23  25
ENDBRANCH  19  23
ENDBRANCH  18  21
ENDBRANCH  17  18
ENDBRANCH  15  17
ENDBRANCH   1  15
TORSDOF 6
ENDMDL
MODEL 5
REMARK VINA RESULT:    -7.770      2.779      6.403
REMARK INTER + INTRA:         -11.208
REMARK INTER:                 -10.703
REMARK INTRA:                  -0.504
REMARK UNBOUND:                -0.712
REMARK  Name = cpd141.pdb
REMARK  7 active torsions:
REMARK  status: ('A' for Active; 'I' for Inactive)
REMARK    1  A    between atoms: C_1  and  C_2
REMARK    2  A    between atoms: C_2  and  C_4
REMARK    3  A    between atoms: C_4  and  C_5
REMARK    4  A    between atoms: N_7  and  C_8
REMARK    5  A    between atoms: C_8  and  C_9
REMARK    6  A    between atoms: C_9  and  N_10
REMARK    7  A    between atoms: N_10  and  C_11
REMARK                            x       y       z     vdW  Elec       q    Type
REMARK                         _______ _______ _______ _____ _____    ______ ____
ROOT
ATOM      1  C   UNL A   1      38.244 -36.391 -30.948  0.00  0.00    +0.041 A 
ATOM      2  C   UNL A   1      39.569 -36.873 -31.023  0.00  0.00    -0.005 A 
ATOM      3  C   UNL A   1      40.021 -37.699 -29.988  0.00  0.00    +0.047 A 
ATOM      4  N   UNL A   1      39.268 -38.016 -28.910  0.00  0.00    -0.251 NA
ATOM      5  C   UNL A   1      38.003 -37.584 -28.850  0.00  0.00    +0.073 A 
ATOM      6  C   UNL A   1      37.236 -37.964 -27.756  0.00  0.00    -0.036 A 
ATOM      7  C   UNL A   1      35.896 -37.593 -27.625  0.00  0.00    -0.060 A 
ATOM      8  C   UNL A   1      35.300 -36.831 -28.617  0.00  0.00    -0.061 A 
ATOM      9  C   UNL A   1      36.055 -36.433 -29.720  0.00  0.00    -0.051 A 
ATOM     10  C   UNL A   1      37.424 -36.777 -29.849  0.00  0.00    +0.021 A 
ATOM     11  C   UNL A   1      41.422 -38.255 -29.964  0.00  0.00    -0.010 C 
ATOM     12  C   UNL A   1      42.083 -38.283 -31.334  0.00  0.00    -0.047 C 
ATOM     13  C   UNL A   1      41.932 -36.925 -32.001  0.00  0.00    -0.049 C 
ATOM     14  C   UNL A   1      40.456 -36.595 -32.216  0.00  0.00    -0.024 C 
ENDROOT
BRANCH   1  15
ATOM     15  N   UNL A   1      37.761 -35.475 -31.918  0.00  0.00    -0.342 N 
ATOM     16  H   UNL A   1      37.144 -35.749 -32.635  0.00  0.00    +0.000 HD
BRANCH  15  17
ATOM     17  C   UNL A   1      38.241 -34.086 -31.784  0.00  0.00    +0.025 C 
BRANCH  17  18
ATOM     18  C   UNL A   1      37.227 -33.148 -31.107  0.00  0.00    +0.027 C 
BRANCH  18  21
ATOM     19  C   UNL A   1      34.811 -32.779 -31.453  0.00  0.00    +0.220 C 
ATOM     20  O   UNL A   1      34.953 -31.566 -31.572  0.00  0.00    -0.275 OA
ATOM     21  N   UNL A   1      35.859 -33.633 -31.200  0.00  0.00    -0.313 N 
ATOM     22  H   UNL A   1      35.679 -34.594 -31.078  0.00  0.00    +0.000 HD
BRANCH  19  23
ATOM     23  C   UNL A   1      33.465 -33.443 -31.557  0.00  0.00    +0.082 C 
BRANCH  23  25
ATOM     24  C   UNL A   1      32.867 -35.882 -30.969  0.00  0.00    -0.006 C 
ATOM     25  C   UNL A   1      33.259 -34.503 -30.510  0.00  0.00    +0.139 C 
ATOM     26  O   UNL A   1      33.436 -34.253 -29.316  0.00  0.00    -0.297 OA
ENDBRANCH  23  25
ENDBRANCH  19  23
ENDBRANCH  18  21
ENDBRANCH  17  18
ENDBRANCH  15  17
ENDBRANCH   1  15
TORSDOF 6
ENDMDL
MODEL 6
REMARK VINA RESULT:    -7.627      3.443      6.306
REMARK INTER + INTRA:         -11.014
REMARK INTER:                 -10.550
REMARK INTRA:                  -0.464
REMARK UNBOUND:                -0.712
REMARK  Name = cpd141.pdb
REMARK  7 active torsions:
REMARK  status: ('A' for Active; 'I' for Inactive)
REMARK    1  A    between atoms: C_1  and  C_2
REMARK    2  A    between atoms: C_2  and  C_4
REMARK    3  A    between atoms: C_4  and  C_5
REMARK    4  A    between atoms: N_7  and  C_8
REMARK    5  A    between atoms: C_8  and  C_9
REMARK    6  A    between atoms: C_9  and  N_10
REMARK    7  A    between atoms: N_10  and  C_11
REMARK                            x       y       z     vdW  Elec       q    Type
REMARK                         _______ _______ _______ _____ _____    ______ ____
ROOT
ATOM      1  C   UNL A   1      37.754 -36.863 -29.371  0.00  0.00    +0.041 A 
ATOM      2  C   UNL A   1      36.631 -36.031 -29.576  0.00  0.00    -0.005 A 
ATOM      3  C   UNL A   1      36.675 -35.132 -30.647  0.00  0.00    +0.047 A 
ATOM      4  N   UNL A   1      37.749 -34.995 -31.458  0.00  0.00    -0.251 NA
ATOM      5  C   UNL A   1      38.802 -35.802 -31.283  0.00  0.00    +0.073 A 
ATOM      6  C   UNL A   1      39.873 -35.674 -32.159  0.00  0.00    -0.036 A 
ATOM      7  C   UNL A   1      40.998 -36.496 -32.079  0.00  0.00    -0.060 A 
ATOM      8  C   UNL A   1      41.056 -37.480 -31.105  0.00  0.00    -0.061 A 
ATOM      9  C   UNL A   1      39.995 -37.620 -30.212  0.00  0.00    -0.051 A 
ATOM     10  C   UNL A   1      38.861 -36.771 -30.263  0.00  0.00    +0.021 A 
ATOM     11  C   UNL A   1      35.537 -34.189 -30.944  0.00  0.00    -0.010 C 
ATOM     12  C   UNL A   1      34.209 -34.642 -30.354  0.00  0.00    -0.047 C 
ATOM     13  C   UNL A   1      34.396 -34.994 -28.888  0.00  0.00    -0.049 C 
ATOM     14  C   UNL A   1      35.379 -36.155 -28.737  0.00  0.00    -0.024 C 
ENDROOT
BRANCH   1  15
ATOM     15  N   UNL A   1      37.806 -37.728 -28.247  0.00  0.00    -0.342 N 
ATOM     16  H   UNL A   1      37.880 -37.387 -27.326  0.00  0.00    +0.000 HD
BRANCH  15  17
ATOM     17  C   UNL A   1      37.743 -39.171 -28.547  0.00  0.00    +0.025 C 
BRANCH  17  18
ATOM     18  C   UNL A   1      36.419 -39.607 -29.197  0.00  0.00    +0.027 C 
BRANCH  18  21
ATOM     19  C   UNL A   1      35.137 -41.716 -29.201  0.00  0.00    +0.220 C 
ATOM     20  O   UNL A   1      35.003 -41.701 -30.421  0.00  0.00    -0.275 OA
ATOM     21  N   UNL A   1      35.792 -40.724 -28.509  0.00  0.00    -0.313 N 
ATOM     22  H   UNL A   1      35.837 -40.771 -27.526  0.00  0.00    +0.000 HD
BRANCH  19  23
ATOM     23  C   UNL A   1      34.578 -42.820 -28.346  0.00  0.00    +0.082 C 
BRANCH  23  25
ATOM     24  C   UNL A   1      33.852 -42.494 -25.892  0.00  0.00    -0.006 C 
ATOM     25  C   UNL A   1      34.958 -42.680 -26.897  0.00  0.00    +0.139 C 
ATOM     26  O   UNL A   1      36.137 -42.748 -26.545  0.00  0.00    -0.297 OA
ENDBRANCH  23  25
ENDBRANCH  19  23
ENDBRANCH  18  21
ENDBRANCH  17  18
ENDBRANCH  15  17
ENDBRANCH   1  15
TORSDOF 6
ENDMDL
MODEL 7
REMARK VINA RESULT:    -7.337      3.141      6.431
REMARK INTER + INTRA:         -10.622
REMARK INTER:                  -9.388
REMARK INTRA:                  -1.234
REMARK UNBOUND:                -0.712
REMARK  Name = cpd141.pdb
REMARK  7 active torsions:
REMARK  status: ('A' for Active; 'I' for Inactive)
REMARK    1  A    between atoms: C_1  and  C_2
REMARK    2  A    between atoms: C_2  and  C_4
REMARK    3  A    between atoms: C_4  and  C_5
REMARK    4  A    between atoms: N_7  and  C_8
REMARK    5  A    between atoms: C_8  and  C_9
REMARK    6  A    between atoms: C_9  and  N_10
REMARK    7  A    between atoms: N_10  and  C_11
REMARK                            x       y       z     vdW  Elec       q    Type
REMARK                         _______ _______ _______ _____ _____    ______ ____
ROOT
ATOM      1  C   UNL A   1      37.288 -35.802 -30.990  0.00  0.00    +0.041 A 
ATOM      2  C   UNL A   1      38.658 -35.964 -31.293  0.00  0.00    -0.005 A 
ATOM      3  C   UNL A   1      39.379 -36.910 -30.557  0.00  0.00    +0.047 A 
ATOM      4  N   UNL A   1      38.839 -37.637 -29.552  0.00  0.00    -0.251 NA
ATOM      5  C   UNL A   1      37.535 -37.506 -29.283  0.00  0.00    +0.073 A 
ATOM      6  C   UNL A   1      36.994 -38.300 -28.279  0.00  0.00    -0.036 A 
ATOM      7  C   UNL A   1      35.638 -38.260 -27.952  0.00  0.00    -0.060 A 
ATOM      8  C   UNL A   1      34.792 -37.414 -28.653  0.00  0.00    -0.061 A 
ATOM      9  C   UNL A   1      35.317 -36.605 -29.660  0.00  0.00    -0.051 A 
ATOM     10  C   UNL A   1      36.698 -36.613 -29.979  0.00  0.00    +0.021 A 
ATOM     11  C   UNL A   1      40.849 -37.151 -30.789  0.00  0.00    -0.010 C 
ATOM     12  C   UNL A   1      41.325 -36.696 -32.161  0.00  0.00    -0.047 C 
ATOM     13  C   UNL A   1      40.848 -35.277 -32.422  0.00  0.00    -0.049 C 
ATOM     14  C   UNL A   1      39.322 -35.217 -32.429  0.00  0.00    -0.024 C 
ENDROOT
BRANCH   1  15
ATOM     15  N   UNL A   1      36.528 -34.793 -31.637  0.00  0.00    -0.342 N 
ATOM     16  H   UNL A   1      36.054 -34.957 -32.485  0.00  0.00    +0.000 HD
BRANCH  15  17
ATOM     17  C   UNL A   1      36.493 -33.483 -30.959  0.00  0.00    +0.025 C 
BRANCH  17  18
ATOM     18  C   UNL A   1      35.127 -32.781 -31.049  0.00  0.00    +0.027 C 
BRANCH  18  21
ATOM     19  C   UNL A   1      33.066 -34.130 -31.219  0.00  0.00    +0.220 C 
ATOM     20  O   UNL A   1      32.874 -34.097 -30.007  0.00  0.00    -0.275 OA
ATOM     21  N   UNL A   1      34.153 -33.537 -31.820  0.00  0.00    -0.313 N 
ATOM     22  H   UNL A   1      34.273 -33.627 -32.793  0.00  0.00    +0.000 HD
BRANCH  19  23
ATOM     23  C   UNL A   1      32.132 -34.840 -32.159  0.00  0.00    +0.082 C 
BRANCH  23  25
ATOM     24  C   UNL A   1      31.942 -37.231 -33.109  0.00  0.00    -0.006 C 
ATOM     25  C   UNL A   1      32.782 -36.008 -32.849  0.00  0.00    +0.139 C 
ATOM     26  O   UNL A   1      33.958 -35.950 -33.215  0.00  0.00    -0.297 OA
ENDBRANCH  23  25
ENDBRANCH  19  23
ENDBRANCH  18  21
ENDBRANCH  17  18
ENDBRANCH  15  17
ENDBRANCH   1  15
TORSDOF 6
ENDMDL
MODEL 8
REMARK VINA RESULT:    -7.296      3.521      7.196
REMARK INTER + INTRA:         -10.567
REMARK INTER:                 -10.007
REMARK INTRA:                  -0.560
REMARK UNBOUND:                -0.712
REMARK  Name = cpd141.pdb
REMARK  7 active torsions:
REMARK  status: ('A' for Active; 'I' for Inactive)
REMARK    1  A    between atoms: C_1  and  C_2
REMARK    2  A    between atoms: C_2  and  C_4
REMARK    3  A    between atoms: C_4  and  C_5
REMARK    4  A    between atoms: N_7  and  C_8
REMARK    5  A    between atoms: C_8  and  C_9
REMARK    6  A    between atoms: C_9  and  N_10
REMARK    7  A    between atoms: N_10  and  C_11
REMARK                            x       y       z     vdW  Elec       q    Type
REMARK                         _______ _______ _______ _____ _____    ______ ____
ROOT
ATOM      1  C   UNL A   1      37.746 -37.016 -29.215  0.00  0.00    +0.041 A 
ATOM      2  C   UNL A   1      38.949 -36.939 -29.950  0.00  0.00    -0.005 A 
ATOM      3  C   UNL A   1      39.003 -36.037 -31.018  0.00  0.00    +0.047 A 
ATOM      4  N   UNL A   1      37.952 -35.275 -31.399  0.00  0.00    -0.251 NA
ATOM      5  C   UNL A   1      36.821 -35.325 -30.686  0.00  0.00    +0.073 A 
ATOM      6  C   UNL A   1      35.773 -34.496 -31.069  0.00  0.00    -0.036 A 
ATOM      7  C   UNL A   1      34.568 -34.451 -30.365  0.00  0.00    -0.060 A 
ATOM      8  C   UNL A   1      34.406 -35.245 -29.241  0.00  0.00    -0.061 A 
ATOM      9  C   UNL A   1      35.443 -36.088 -28.844  0.00  0.00    -0.051 A 
ATOM     10  C   UNL A   1      36.659 -36.167 -29.569  0.00  0.00    +0.021 A 
ATOM     11  C   UNL A   1      40.233 -35.889 -31.876  0.00  0.00    -0.010 C 
ATOM     12  C   UNL A   1      41.505 -36.376 -31.197  0.00  0.00    -0.047 C 
ATOM     13  C   UNL A   1      41.275 -37.764 -30.622  0.00  0.00    -0.049 C 
ATOM     14  C   UNL A   1      40.178 -37.729 -29.559  0.00  0.00    -0.024 C 
ENDROOT
BRANCH   1  15
ATOM     15  N   UNL A   1      37.600 -37.977 -28.181  0.00  0.00    -0.342 N 
ATOM     16  H   UNL A   1      37.564 -37.723 -27.230  0.00  0.00    +0.000 HD
BRANCH  15  17
ATOM     17  C   UNL A   1      37.504 -39.382 -28.622  0.00  0.00    +0.025 C 
BRANCH  17  18
ATOM     18  C   UNL A   1      36.177 -39.716 -29.325  0.00  0.00    +0.027 C 
BRANCH  18  21
ATOM     19  C   UNL A   1      34.537 -41.497 -28.843  0.00  0.00    +0.220 C 
ATOM     20  O   UNL A   1      34.653 -41.988 -29.962  0.00  0.00    -0.275 OA
ATOM     21  N   UNL A   1      35.222 -40.372 -28.446  0.00  0.00    -0.313 N 
ATOM     22  H   UNL A   1      35.061 -40.003 -27.547  0.00  0.00    +0.000 HD
BRANCH  19  23
ATOM     23  C   UNL A   1      33.617 -42.077 -27.804  0.00  0.00    +0.082 C 
BRANCH  23  25
ATOM     24  C   UNL A   1      33.573 -42.392 -25.244  0.00  0.00    -0.006 C 
ATOM     25  C   UNL A   1      34.337 -42.459 -26.540  0.00  0.00    +0.139 C 
ATOM     26  O   UNL A   1      35.507 -42.844 -26.573  0.00  0.00    -0.297 OA
ENDBRANCH  23  25
ENDBRANCH  19  23
ENDBRANCH  18  21
ENDBRANCH  17  18
ENDBRANCH  15  17
ENDBRANCH   1  15
TORSDOF 6
ENDMDL
MODEL 9
REMARK VINA RESULT:    -7.253      3.331      6.044
REMARK INTER + INTRA:         -10.509
REMARK INTER:                  -9.453
REMARK INTRA:                  -1.056
REMARK UNBOUND:                -0.712
REMARK  Name = cpd141.pdb
REMARK  7 active torsions:
REMARK  status: ('A' for Active; 'I' for Inactive)
REMARK    1  A    between atoms: C_1  and  C_2
REMARK    2  A    between atoms: C_2  and  C_4
REMARK    3  A    between atoms: C_4  and  C_5
REMARK    4  A    between atoms: N_7  and  C_8
REMARK    5  A    between atoms: C_8  and  C_9
REMARK    6  A    between atoms: C_9  and  N_10
REMARK    7  A    between atoms: N_10  and  C_11
REMARK                            x       y       z     vdW  Elec       q    Type
REMARK                         _______ _______ _______ _____ _____    ______ ____
ROOT
ATOM      1  C   UNL A   1      36.535 -36.064 -29.934  0.00  0.00    +0.041 A 
ATOM      2  C   UNL A   1      35.614 -36.401 -28.917  0.00  0.00    -0.005 A 
ATOM      3  C   UNL A   1      36.037 -37.293 -27.927  0.00  0.00    +0.047 A 
ATOM      4  N   UNL A   1      37.260 -37.874 -27.924  0.00  0.00    -0.251 NA
ATOM      5  C   UNL A   1      38.143 -37.534 -28.870  0.00  0.00    +0.073 A 
ATOM      6  C   UNL A   1      39.407 -38.108 -28.817  0.00  0.00    -0.036 A 
ATOM      7  C   UNL A   1      40.406 -37.787 -29.737  0.00  0.00    -0.060 A 
ATOM      8  C   UNL A   1      40.143 -36.860 -30.733  0.00  0.00    -0.061 A 
ATOM      9  C   UNL A   1      38.879 -36.278 -30.808  0.00  0.00    -0.051 A 
ATOM     10  C   UNL A   1      37.846 -36.619 -29.899  0.00  0.00    +0.021 A 
ATOM     11  C   UNL A   1      35.129 -37.731 -26.807  0.00  0.00    -0.010 C 
ATOM     12  C   UNL A   1      33.976 -36.771 -26.555  0.00  0.00    -0.047 C 
ATOM     13  C   UNL A   1      33.282 -36.453 -27.870  0.00  0.00    -0.049 C 
ATOM     14  C   UNL A   1      34.246 -35.761 -28.831  0.00  0.00    -0.024 C 
ENDROOT
BRANCH   1  15
ATOM     15  N   UNL A   1      36.134 -35.237 -31.016  0.00  0.00    -0.342 N 
ATOM     16  H   UNL A   1      35.615 -35.585 -31.777  0.00  0.00    +0.000 HD
BRANCH  15  17
ATOM     17  C   UNL A   1      36.544 -33.823 -30.927  0.00  0.00    +0.025 C 
BRANCH  17  18
ATOM     18  C   UNL A   1      35.428 -32.835 -31.309  0.00  0.00    +0.027 C 
BRANCH  18  21
ATOM     19  C   UNL A   1      33.025 -33.373 -31.472  0.00  0.00    +0.220 C 
ATOM     20  O   UNL A   1      32.760 -32.775 -30.434  0.00  0.00    -0.275 OA
ATOM     21  N   UNL A   1      34.304 -33.479 -31.968  0.00  0.00    -0.313 N 
ATOM     22  H   UNL A   1      34.460 -34.002 -32.788  0.00  0.00    +0.000 HD
BRANCH  19  23
ATOM     23  C   UNL A   1      31.970 -34.064 -32.291  0.00  0.00    +0.082 C 
BRANCH  23  25
ATOM     24  C   UNL A   1      32.042 -36.613 -31.900  0.00  0.00    -0.006 C 
ATOM     25  C   UNL A   1      32.398 -35.427 -32.759  0.00  0.00    +0.139 C 
ATOM     26  O   UNL A   1      32.995 -35.569 -33.828  0.00  0.00    -0.297 OA
ENDBRANCH  23  25
ENDBRANCH  19  23
ENDBRANCH  18  21
ENDBRANCH  17  18
ENDBRANCH  15  17
ENDBRANCH   1  15
TORSDOF 6
ENDMDL
MODEL 10
REMARK VINA RESULT:    -7.248      3.230      6.384
REMARK INTER + INTRA:         -10.503
REMARK INTER:                  -9.419
REMARK INTRA:                  -1.084
REMARK UNBOUND:                -0.712
REMARK  Name = cpd141.pdb
REMARK  7 active torsions:
REMARK  status: ('A' for Active; 'I' for Inactive)
REMARK    1  A    between atoms: C_1  and  C_2
REMARK    2  A    between atoms: C_2  and  C_4
REMARK    3  A    between atoms: C_4  and  C_5
REMARK    4  A    between atoms: N_7  and  C_8
REMARK    5  A    between atoms: C_8  and  C_9
REMARK    6  A    between atoms: C_9  and  N_10
REMARK    7  A    between atoms: N_10  and  C_11
REMARK                            x       y       z     vdW  Elec       q    Type
REMARK                         _______ _______ _______ _____ _____    ______ ____
ROOT
ATOM      1  C   UNL A   1      37.415 -35.778 -30.867  0.00  0.00    +0.041 A 
ATOM      2  C   UNL A   1      36.790 -36.707 -30.007  0.00  0.00    -0.005 A 
ATOM      3  C   UNL A   1      37.599 -37.665 -29.386  0.00  0.00    +0.047 A 
ATOM      4  N   UNL A   1      38.930 -37.767 -29.605  0.00  0.00    -0.251 NA
ATOM      5  C   UNL A   1      39.529 -36.869 -30.396  0.00  0.00    +0.073 A 
ATOM      6  C   UNL A   1      40.905 -36.966 -30.565  0.00  0.00    -0.036 A 
ATOM      7  C   UNL A   1      41.622 -36.054 -31.342  0.00  0.00    -0.060 A 
ATOM      8  C   UNL A   1      40.952 -35.009 -31.959  0.00  0.00    -0.061 A 
ATOM      9  C   UNL A   1      39.571 -34.899 -31.807  0.00  0.00    -0.051 A 
ATOM     10  C   UNL A   1      38.827 -35.837 -31.047  0.00  0.00    +0.021 A 
ATOM     11  C   UNL A   1      37.030 -38.713 -28.463  0.00  0.00    -0.010 C 
ATOM     12  C   UNL A   1      35.678 -38.331 -27.879  0.00  0.00    -0.047 C 
ATOM     13  C   UNL A   1      34.752 -37.874 -28.994  0.00  0.00    -0.049 C 
ATOM     14  C   UNL A   1      35.315 -36.632 -29.682  0.00  0.00    -0.024 C 
ENDROOT
BRANCH   1  15
ATOM     15  N   UNL A   1      36.636 -34.842 -31.596  0.00  0.00    -0.342 N 
ATOM     16  H   UNL A   1      36.263 -35.050 -32.483  0.00  0.00    +0.000 HD
BRANCH  15  17
ATOM     17  C   UNL A   1      36.421 -33.539 -30.940  0.00  0.00    +0.025 C 
BRANCH  17  18
ATOM     18  C   UNL A   1      35.088 -32.871 -31.321  0.00  0.00    +0.027 C 
BRANCH  18  21
ATOM     19  C   UNL A   1      33.072 -34.277 -31.551  0.00  0.00    +0.220 C 
ATOM     20  O   UNL A   1      32.735 -34.088 -30.386  0.00  0.00    -0.275 OA
ATOM     21  N   UNL A   1      34.219 -33.745 -32.093  0.00  0.00    -0.313 N 
ATOM     22  H   UNL A   1      34.457 -33.961 -33.024  0.00  0.00    +0.000 HD
BRANCH  19  23
ATOM     23  C   UNL A   1      32.264 -35.127 -32.491  0.00  0.00    +0.082 C 
BRANCH  23  25
ATOM     24  C   UNL A   1      33.354 -37.392 -33.070  0.00  0.00    -0.006 C 
ATOM     25  C   UNL A   1      33.122 -35.945 -33.417  0.00  0.00    +0.139 C 
ATOM     26  O   UNL A   1      33.593 -35.450 -34.443  0.00  0.00    -0.297 OA
ENDBRANCH  23  25
ENDBRANCH  19  23
ENDBRANCH  18  21
ENDBRANCH  17  18
ENDBRANCH  15  17
ENDBRANCH   1  15
TORSDOF 6
ENDMDL
MODEL 11
REMARK VINA RESULT:    -7.200      3.237      6.878
REMARK INTER + INTRA:         -10.438
REMARK INTER:                  -9.137
REMARK INTRA:                  -1.301
REMARK UNBOUND:                -0.712
REMARK  Name = cpd141.pdb
REMARK  7 active torsions:
REMARK  status: ('A' for Active; 'I' for Inactive)
REMARK    1  A    between atoms: C_1  and  C_2
REMARK    2  A    between atoms: C_2  and  C_4
REMARK    3  A    between atoms: C_4  and  C_5
REMARK    4  A    between atoms: N_7  and  C_8
REMARK    5  A    between atoms: C_8  and  C_9
REMARK    6  A    between atoms: C_9  and  N_10
REMARK    7  A    between atoms: N_10  and  C_11
REMARK                            x       y       z     vdW  Elec       q    Type
REMARK                         _______ _______ _______ _____ _____    ______ ____
ROOT
ATOM      1  C   UNL A   1      37.756 -36.996 -29.225  0.00  0.00    +0.041 A 
ATOM      2  C   UNL A   1      38.934 -36.859 -29.993  0.00  0.00    -0.005 A 
ATOM      3  C   UNL A   1      38.928 -35.921 -31.030  0.00  0.00    +0.047 A 
ATOM      4  N   UNL A   1      37.844 -35.179 -31.355  0.00  0.00    -0.251 NA
ATOM      5  C   UNL A   1      36.737 -35.287 -30.611  0.00  0.00    +0.073 A 
ATOM      6  C   UNL A   1      35.654 -34.479 -30.935  0.00  0.00    -0.036 A 
ATOM      7  C   UNL A   1      34.471 -34.493 -30.194  0.00  0.00    -0.060 A 
ATOM      8  C   UNL A   1      34.366 -35.328 -29.093  0.00  0.00    -0.061 A 
ATOM      9  C   UNL A   1      35.439 -36.152 -28.756  0.00  0.00    -0.051 A 
ATOM     10  C   UNL A   1      36.634 -36.169 -29.519  0.00  0.00    +0.021 A 
ATOM     11  C   UNL A   1      40.126 -35.707 -31.919  0.00  0.00    -0.010 C 
ATOM     12  C   UNL A   1      41.432 -36.177 -31.295  0.00  0.00    -0.047 C 
ATOM     13  C   UNL A   1      41.261 -37.590 -30.760  0.00  0.00    -0.049 C 
ATOM     14  C   UNL A   1      40.197 -37.623 -29.665  0.00  0.00    -0.024 C 
ENDROOT
BRANCH   1  15
ATOM     15  N   UNL A   1      37.670 -37.995 -28.221  0.00  0.00    -0.342 N 
ATOM     16  H   UNL A   1      37.752 -37.783 -27.263  0.00  0.00    +0.000 HD
BRANCH  15  17
ATOM     17  C   UNL A   1      37.448 -39.371 -28.704  0.00  0.00    +0.025 C 
BRANCH  17  18
ATOM     18  C   UNL A   1      35.985 -39.834 -28.593  0.00  0.00    +0.027 C 
BRANCH  18  21
ATOM     19  C   UNL A   1      34.122 -40.267 -30.153  0.00  0.00    +0.220 C 
ATOM     20  O   UNL A   1      33.793 -41.294 -29.569  0.00  0.00    -0.275 OA
ATOM     21  N   UNL A   1      35.195 -39.497 -29.766  0.00  0.00    -0.313 N 
ATOM     22  H   UNL A   1      35.433 -38.702 -30.296  0.00  0.00    +0.000 HD
BRANCH  19  23
ATOM     23  C   UNL A   1      33.386 -39.762 -31.364  0.00  0.00    +0.082 C 
BRANCH  23  25
ATOM     24  C   UNL A   1      32.071 -37.605 -30.842  0.00  0.00    -0.006 C 
ATOM     25  C   UNL A   1      33.303 -38.261 -31.408  0.00  0.00    +0.139 C 
ATOM     26  O   UNL A   1      34.230 -37.591 -31.867  0.00  0.00    -0.297 OA
ENDBRANCH  23  25
ENDBRANCH  19  23
ENDBRANCH  18  21
ENDBRANCH  17  18
ENDBRANCH  15  17
ENDBRANCH   1  15
TORSDOF 6
ENDMDL
MODEL 12
REMARK VINA RESULT:    -7.137      3.170      7.155
REMARK INTER + INTRA:         -10.352
REMARK INTER:                  -9.409
REMARK INTRA:                  -0.944
REMARK UNBOUND:                -0.712
REMARK  Name = cpd141.pdb
REMARK  7 active torsions:
REMARK  status: ('A' for Active; 'I' for Inactive)
REMARK    1  A    between atoms: C_1  and  C_2
REMARK    2  A    between atoms: C_2  and  C_4
REMARK    3  A    between atoms: C_4  and  C_5
REMARK    4  A    between atoms: N_7  and  C_8
REMARK    5  A    between atoms: C_8  and  C_9
REMARK    6  A    between atoms: C_9  and  N_10
REMARK    7  A    between atoms: N_10  and  C_11
REMARK                            x       y       z     vdW  Elec       q    Type
REMARK                         _______ _______ _______ _____ _____    ______ ____
ROOT
ATOM      1  C   UNL A   1      37.581 -36.978 -29.134  0.00  0.00    +0.041 A 
ATOM      2  C   UNL A   1      38.781 -36.884 -29.873  0.00  0.00    -0.005 A 
ATOM      3  C   UNL A   1      38.831 -35.954 -30.916  0.00  0.00    +0.047 A 
ATOM      4  N   UNL A   1      37.779 -35.180 -31.272  0.00  0.00    -0.251 NA
ATOM      5  C   UNL A   1      36.651 -35.247 -30.555  0.00  0.00    +0.073 A 
ATOM      6  C   UNL A   1      35.603 -34.407 -30.911  0.00  0.00    -0.036 A 
ATOM      7  C   UNL A   1      34.402 -34.379 -30.200  0.00  0.00    -0.060 A 
ATOM      8  C   UNL A   1      34.243 -35.202 -29.097  0.00  0.00    -0.061 A 
ATOM      9  C   UNL A   1      35.281 -36.057 -28.728  0.00  0.00    -0.051 A 
ATOM     10  C   UNL A   1      36.493 -36.118 -29.460  0.00  0.00    +0.021 A 
ATOM     11  C   UNL A   1      40.057 -35.785 -31.777  0.00  0.00    -0.010 C 
ATOM     12  C   UNL A   1      41.331 -36.292 -31.116  0.00  0.00    -0.047 C 
ATOM     13  C   UNL A   1      41.102 -37.694 -30.577  0.00  0.00    -0.049 C 
ATOM     14  C   UNL A   1      40.010 -37.686 -29.509  0.00  0.00    -0.024 C 
ENDROOT
BRANCH   1  15
ATOM     15  N   UNL A   1      37.438 -37.967 -28.126  0.00  0.00    -0.342 N 
ATOM     16  H   UNL A   1      37.407 -37.738 -27.169  0.00  0.00    +0.000 HD
BRANCH  15  17
ATOM     17  C   UNL A   1      37.338 -39.359 -28.604  0.00  0.00    +0.025 C 
BRANCH  17  18
ATOM     18  C   UNL A   1      35.892 -39.820 -28.856  0.00  0.00    +0.027 C 
BRANCH  18  21
ATOM     19  C   UNL A   1      34.375 -40.227 -26.952  0.00  0.00    +0.220 C 
ATOM     20  O   UNL A   1      34.555 -41.440 -26.992  0.00  0.00    -0.275 OA
ATOM     21  N   UNL A   1      34.965 -39.355 -27.837  0.00  0.00    -0.313 N 
ATOM     22  H   UNL A   1      34.754 -38.394 -27.780  0.00  0.00    +0.000 HD
BRANCH  19  23
ATOM     23  C   UNL A   1      33.472 -39.583 -25.936  0.00  0.00    +0.082 C 
BRANCH  23  25
ATOM     24  C   UNL A   1      32.433 -37.265 -26.382  0.00  0.00    -0.006 C 
ATOM     25  C   UNL A   1      33.604 -38.085 -25.910  0.00  0.00    +0.139 C 
ATOM     26  O   UNL A   1      34.630 -37.549 -25.487  0.00  0.00    -0.297 OA
ENDBRANCH  23  25
ENDBRANCH  19  23
ENDBRANCH  18  21
ENDBRANCH  17  18
ENDBRANCH  15  17
ENDBRANCH   1  15
TORSDOF 6
ENDMDL
MODEL 13
REMARK VINA RESULT:    -7.091     18.053     19.438
REMARK INTER + INTRA:         -10.290
REMARK INTER:                  -9.423
REMARK INTRA:                  -0.867
REMARK UNBOUND:                -0.712
REMARK  Name = cpd141.pdb
REMARK  7 active torsions:
REMARK  status: ('A' for Active; 'I' for Inactive)
REMARK    1  A    between atoms: C_1  and  C_2
REMARK    2  A    between atoms: C_2  and  C_4
REMARK    3  A    between atoms: C_4  and  C_5
REMARK    4  A    between atoms: N_7  and  C_8
REMARK    5  A    between atoms: C_8  and  C_9
REMARK    6  A    between atoms: C_9  and  N_10
REMARK    7  A    between atoms: N_10  and  C_11
REMARK                            x       y       z     vdW  Elec       q    Type
REMARK                         _______ _______ _______ _____ _____    ______ ____
ROOT
ATOM      1  C   UNL A   1      46.134 -21.110 -38.780  0.00  0.00    +0.041 A 
ATOM      2  C   UNL A   1      44.745 -20.919 -38.955  0.00  0.00    -0.005 A 
ATOM      3  C   UNL A   1      44.176 -21.350 -40.159  0.00  0.00    +0.047 A 
ATOM      4  N   UNL A   1      44.895 -21.895 -41.167  0.00  0.00    -0.251 NA
ATOM      5  C   UNL A   1      46.205 -22.103 -40.992  0.00  0.00    +0.073 A 
ATOM      6  C   UNL A   1      46.912 -22.709 -42.023  0.00  0.00    -0.036 A 
ATOM      7  C   UNL A   1      48.273 -23.001 -41.918  0.00  0.00    -0.060 A 
ATOM      8  C   UNL A   1      48.948 -22.691 -40.748  0.00  0.00    -0.061 A 
ATOM      9  C   UNL A   1      48.259 -22.076 -39.704  0.00  0.00    -0.051 A 
ATOM     10  C   UNL A   1      46.884 -21.746 -39.811  0.00  0.00    +0.021 A 
ATOM     11  C   UNL A   1      42.708 -21.178 -40.453  0.00  0.00    -0.010 C 
ATOM     12  C   UNL A   1      41.859 -21.004 -39.202  0.00  0.00    -0.047 C 
ATOM     13  C   UNL A   1      42.473 -19.935 -38.314  0.00  0.00    -0.049 C 
ATOM     14  C   UNL A   1      43.870 -20.355 -37.859  0.00  0.00    -0.024 C 
ENDROOT
BRANCH   1  15
ATOM     15  N   UNL A   1      46.783 -20.611 -37.622  0.00  0.00    -0.342 N 
ATOM     16  H   UNL A   1      47.078 -21.201 -36.891  0.00  0.00    +0.000 HD
BRANCH  15  17
ATOM     17  C   UNL A   1      46.990 -19.150 -37.583  0.00  0.00    +0.025 C 
BRANCH  17  18
ATOM     18  C   UNL A   1      47.121 -18.586 -36.158  0.00  0.00    +0.027 C 
BRANCH  18  21
ATOM     19  C   UNL A   1      45.545 -19.632 -34.572  0.00  0.00    +0.220 C 
ATOM     20  O   UNL A   1      46.267 -20.610 -34.408  0.00  0.00    -0.275 OA
ATOM     21  N   UNL A   1      45.865 -18.602 -35.426  0.00  0.00    -0.313 N 
ATOM     22  H   UNL A   1      45.229 -17.859 -35.543  0.00  0.00    +0.000 HD
BRANCH  19  23
ATOM     23  C   UNL A   1      44.229 -19.479 -33.861  0.00  0.00    +0.082 C 
BRANCH  23  25
ATOM     24  C   UNL A   1      42.967 -17.405 -32.987  0.00  0.00    -0.006 C 
ATOM     25  C   UNL A   1      44.194 -18.278 -32.956  0.00  0.00    +0.139 C 
ATOM     26  O   UNL A   1      45.131 -18.036 -32.192  0.00  0.00    -0.297 OA
ENDBRANCH  23  25
ENDBRANCH  19  23
ENDBRANCH  18  21
ENDBRANCH  17  18
ENDBRANCH  15  17
ENDBRANCH   1  15
TORSDOF 6
ENDMDL
MODEL 14
REMARK VINA RESULT:    -7.064      3.133      6.582
REMARK INTER + INTRA:         -10.254
REMARK INTER:                  -8.951
REMARK INTRA:                  -1.303
REMARK UNBOUND:                -0.712
REMARK  Name = cpd141.pdb
REMARK  7 active torsions:
REMARK  status: ('A' for Active; 'I' for Inactive)
REMARK    1  A    between atoms: C_1  and  C_2
REMARK    2  A    between atoms: C_2  and  C_4
REMARK    3  A    between atoms: C_4  and  C_5
REMARK    4  A    between atoms: N_7  and  C_8
REMARK    5  A    between atoms: C_8  and  C_9
REMARK    6  A    between atoms: C_9  and  N_10
REMARK    7  A    between atoms: N_10  and  C_11
REMARK                            x       y       z     vdW  Elec       q    Type
REMARK                         _______ _______ _______ _____ _____    ______ ____
ROOT
ATOM      1  C   UNL A   1      36.334 -36.354 -29.935  0.00  0.00    +0.041 A 
ATOM      2  C   UNL A   1      37.473 -35.949 -30.665  0.00  0.00    -0.005 A 
ATOM      3  C   UNL A   1      37.495 -34.641 -31.163  0.00  0.00    +0.047 A 
ATOM      4  N   UNL A   1      36.467 -33.773 -31.015  0.00  0.00    -0.251 NA
ATOM      5  C   UNL A   1      35.400 -34.145 -30.299  0.00  0.00    +0.073 A 
ATOM      6  C   UNL A   1      34.381 -33.219 -30.120  0.00  0.00    -0.036 A 
ATOM      7  C   UNL A   1      33.246 -33.503 -29.358  0.00  0.00    -0.060 A 
ATOM      8  C   UNL A   1      33.127 -34.741 -28.747  0.00  0.00    -0.061 A 
ATOM      9  C   UNL A   1      34.137 -35.687 -28.920  0.00  0.00    -0.051 A 
ATOM     10  C   UNL A   1      35.279 -35.422 -29.717  0.00  0.00    +0.021 A 
ATOM     11  C   UNL A   1      38.654 -34.114 -31.969  0.00  0.00    -0.010 C 
ATOM     12  C   UNL A   1      39.944 -34.891 -31.749  0.00  0.00    -0.047 C 
ATOM     13  C   UNL A   1      39.674 -36.379 -31.895  0.00  0.00    -0.049 C 
ATOM     14  C   UNL A   1      38.676 -36.848 -30.838  0.00  0.00    -0.024 C 
ENDROOT
BRANCH   1  15
ATOM     15  N   UNL A   1      36.213 -37.695 -29.486  0.00  0.00    -0.342 N 
ATOM     16  H   UNL A   1      36.492 -37.972 -28.583  0.00  0.00    +0.000 HD
BRANCH  15  17
ATOM     17  C   UNL A   1      35.642 -38.647 -30.457  0.00  0.00    +0.025 C 
BRANCH  17  18
ATOM     18  C   UNL A   1      34.492 -39.494 -29.885  0.00  0.00    +0.027 C 
BRANCH  18  21
ATOM     19  C   UNL A   1      34.248 -39.857 -27.456  0.00  0.00    +0.220 C 
ATOM     20  O   UNL A   1      34.720 -40.988 -27.518  0.00  0.00    -0.275 OA
ATOM     21  N   UNL A   1      34.074 -39.058 -28.563  0.00  0.00    -0.313 N 
ATOM     22  H   UNL A   1      33.656 -38.173 -28.456  0.00  0.00    +0.000 HD
BRANCH  19  23
ATOM     23  C   UNL A   1      33.799 -39.246 -26.158  0.00  0.00    +0.082 C 
BRANCH  23  25
ATOM     24  C   UNL A   1      33.485 -36.847 -25.261  0.00  0.00    -0.006 C 
ATOM     25  C   UNL A   1      34.360 -37.867 -25.941  0.00  0.00    +0.139 C 
ATOM     26  O   UNL A   1      35.512 -37.594 -26.283  0.00  0.00    -0.297 OA
ENDBRANCH  23  25
ENDBRANCH  19  23
ENDBRANCH  18  21
ENDBRANCH  17  18
ENDBRANCH  15  17
ENDBRANCH   1  15
TORSDOF 6
ENDMDL
MODEL 15
REMARK VINA RESULT:    -6.967      3.245      5.719
REMARK INTER + INTRA:         -10.124
REMARK INTER:                  -9.294
REMARK INTRA:                  -0.830
REMARK UNBOUND:                -0.712
REMARK  Name = cpd141.pdb
REMARK  7 active torsions:
REMARK  status: ('A' for Active; 'I' for Inactive)
REMARK    1  A    between atoms: C_1  and  C_2
REMARK    2  A    between atoms: C_2  and  C_4
REMARK    3  A    between atoms: C_4  and  C_5
REMARK    4  A    between atoms: N_7  and  C_8
REMARK    5  A    between atoms: C_8  and  C_9
REMARK    6  A    between atoms: C_9  and  N_10
REMARK    7  A    between atoms: N_10  and  C_11
REMARK                            x       y       z     vdW  Elec       q    Type
REMARK                         _______ _______ _______ _____ _____    ______ ____
ROOT
ATOM      1  C   UNL A   1      35.358 -35.855 -29.680  0.00  0.00    +0.041 A 
ATOM      2  C   UNL A   1      34.549 -34.698 -29.701  0.00  0.00    -0.005 A 
ATOM      3  C   UNL A   1      35.028 -33.583 -30.398  0.00  0.00    +0.047 A 
ATOM      4  N   UNL A   1      36.235 -33.550 -31.007  0.00  0.00    -0.251 NA
ATOM      5  C   UNL A   1      36.990 -34.655 -31.012  0.00  0.00    +0.073 A 
ATOM      6  C   UNL A   1      38.204 -34.610 -31.687  0.00  0.00    -0.036 A 
ATOM      7  C   UNL A   1      39.043 -35.723 -31.778  0.00  0.00    -0.060 A 
ATOM      8  C   UNL A   1      38.657 -36.918 -31.191  0.00  0.00    -0.061 A 
ATOM      9  C   UNL A   1      37.445 -36.981 -30.504  0.00  0.00    -0.051 A 
ATOM     10  C   UNL A   1      36.600 -35.850 -30.377  0.00  0.00    +0.021 A 
ATOM     11  C   UNL A   1      34.251 -32.293 -30.470  0.00  0.00    -0.010 C 
ATOM     12  C   UNL A   1      32.764 -32.469 -30.199  0.00  0.00    -0.047 C 
ATOM     13  C   UNL A   1      32.570 -33.275 -28.925  0.00  0.00    -0.049 C 
ATOM     14  C   UNL A   1      33.171 -34.672 -29.079  0.00  0.00    -0.024 C 
ENDROOT
BRANCH   1  15
ATOM     15  N   UNL A   1      34.969 -36.984 -28.913  0.00  0.00    -0.342 N 
ATOM     16  H   UNL A   1      34.361 -37.673 -29.266  0.00  0.00    +0.000 HD
BRANCH  15  17
ATOM     17  C   UNL A   1      35.536 -37.060 -27.553  0.00  0.00    +0.025 C 
BRANCH  17  18
ATOM     18  C   UNL A   1      34.717 -37.943 -26.594  0.00  0.00    +0.027 C 
BRANCH  18  21
ATOM     19  C   UNL A   1      33.977 -40.015 -27.712  0.00  0.00    +0.220 C 
ATOM     20  O   UNL A   1      33.012 -39.462 -28.229  0.00  0.00    -0.275 OA
ATOM     21  N   UNL A   1      34.855 -39.362 -26.877  0.00  0.00    -0.313 N 
ATOM     22  H   UNL A   1      35.591 -39.867 -26.463  0.00  0.00    +0.000 HD
BRANCH  19  23
ATOM     23  C   UNL A   1      34.280 -41.472 -27.933  0.00  0.00    +0.082 C 
BRANCH  23  25
ATOM     24  C   UNL A   1      36.129 -41.294 -29.722  0.00  0.00    -0.006 C 
ATOM     25  C   UNL A   1      35.708 -41.712 -28.338  0.00  0.00    +0.139 C 
ATOM     26  O   UNL A   1      36.513 -42.209 -27.548  0.00  0.00    -0.297 OA
ENDBRANCH  23  25
ENDBRANCH  19  23
ENDBRANCH  18  21
ENDBRANCH  17  18
ENDBRANCH  15  17
ENDBRANCH   1  15
TORSDOF 6
ENDMDL
MODEL 16
REMARK VINA RESULT:    -6.922     18.446     19.768
REMARK INTER + INTRA:         -10.063
REMARK INTER:                  -9.085
REMARK INTRA:                  -0.977
REMARK UNBOUND:                -0.712
REMARK  Name = cpd141.pdb
REMARK  7 active torsions:
REMARK  status: ('A' for Active; 'I' for Inactive)
REMARK    1  A    between atoms: C_1  and  C_2
REMARK    2  A    between atoms: C_2  and  C_4
REMARK    3  A    between atoms: C_4  and  C_5
REMARK    4  A    between atoms: N_7  and  C_8
REMARK    5  A    between atoms: C_8  and  C_9
REMARK    6  A    between atoms: C_9  and  N_10
REMARK    7  A    between atoms: N_10  and  C_11
REMARK                            x       y       z     vdW  Elec       q    Type
REMARK                         _______ _______ _______ _____ _____    ______ ____
ROOT
ATOM      1  C   UNL A   1      46.123 -21.023 -38.846  0.00  0.00    +0.041 A 
ATOM      2  C   UNL A   1      46.729 -21.700 -39.927  0.00  0.00    -0.005 A 
ATOM      3  C   UNL A   1      45.913 -22.067 -41.003  0.00  0.00    +0.047 A 
ATOM      4  N   UNL A   1      44.579 -21.844 -41.033  0.00  0.00    -0.251 NA
ATOM      5  C   UNL A   1      44.009 -21.177 -40.023  0.00  0.00    +0.073 A 
ATOM      6  C   UNL A   1      42.646 -20.918 -40.102  0.00  0.00    -0.036 A 
ATOM      7  C   UNL A   1      41.971 -20.198 -39.115  0.00  0.00    -0.060 A 
ATOM      8  C   UNL A   1      42.674 -19.712 -38.024  0.00  0.00    -0.061 A 
ATOM      9  C   UNL A   1      44.041 -19.967 -37.923  0.00  0.00    -0.051 A 
ATOM     10  C   UNL A   1      44.732 -20.725 -38.903  0.00  0.00    +0.021 A 
ATOM     11  C   UNL A   1      46.455 -22.807 -42.199  0.00  0.00    -0.010 C 
ATOM     12  C   UNL A   1      47.960 -22.653 -42.372  0.00  0.00    -0.047 C 
ATOM     13  C   UNL A   1      48.657 -22.946 -41.054  0.00  0.00    -0.049 C 
ATOM     14  C   UNL A   1      48.219 -21.949 -39.983  0.00  0.00    -0.024 C 
ENDROOT
BRANCH   1  15
ATOM     15  N   UNL A   1      46.879 -20.708 -37.687  0.00  0.00    -0.342 N 
ATOM     16  H   UNL A   1      47.060 -21.372 -36.983  0.00  0.00    +0.000 HD
BRANCH  15  17
ATOM     17  C   UNL A   1      47.376 -19.321 -37.604  0.00  0.00    +0.025 C 
BRANCH  17  18
ATOM     18  C   UNL A   1      47.585 -18.828 -36.162  0.00  0.00    +0.027 C 
BRANCH  18  21
ATOM     19  C   UNL A   1      45.770 -19.503 -34.630  0.00  0.00    +0.220 C 
ATOM     20  O   UNL A   1      46.255 -20.616 -34.452  0.00  0.00    -0.275 OA
ATOM     21  N   UNL A   1      46.335 -18.567 -35.467  0.00  0.00    -0.313 N 
ATOM     22  H   UNL A   1      45.881 -17.703 -35.598  0.00  0.00    +0.000 HD
BRANCH  19  23
ATOM     23  C   UNL A   1      44.499 -19.064 -33.957  0.00  0.00    +0.082 C 
BRANCH  23  25
ATOM     24  C   UNL A   1      43.526 -17.063 -32.651  0.00  0.00    -0.006 C 
ATOM     25  C   UNL A   1      44.713 -17.922 -33.001  0.00  0.00    +0.139 C 
ATOM     26  O   UNL A   1      45.820 -17.719 -32.499  0.00  0.00    -0.297 OA
ENDBRANCH  23  25
ENDBRANCH  19  23
ENDBRANCH  18  21
ENDBRANCH  17  18
ENDBRANCH  15  17
ENDBRANCH   1  15
TORSDOF 6
ENDMDL
MODEL 17
REMARK VINA RESULT:    -6.920      1.947      4.026
REMARK INTER + INTRA:         -10.059
REMARK INTER:                  -9.684
REMARK INTRA:                  -0.375
REMARK UNBOUND:                -0.712
REMARK  Name = cpd141.pdb
REMARK  7 active torsions:
REMARK  status: ('A' for Active; 'I' for Inactive)
REMARK    1  A    between atoms: C_1  and  C_2
REMARK    2  A    between atoms: C_2  and  C_4
REMARK    3  A    between atoms: C_4  and  C_5
REMARK    4  A    between atoms: N_7  and  C_8
REMARK    5  A    between atoms: C_8  and  C_9
REMARK    6  A    between atoms: C_9  and  N_10
REMARK    7  A    between atoms: N_10  and  C_11
REMARK                            x       y       z     vdW  Elec       q    Type
REMARK                         _______ _______ _______ _____ _____    ______ ____
ROOT
ATOM      1  C   UNL A   1      35.700 -36.471 -30.691  0.00  0.00    +0.041 A 
ATOM      2  C   UNL A   1      35.410 -37.783 -30.257  0.00  0.00    -0.005 A 
ATOM      3  C   UNL A   1      34.392 -37.946 -29.312  0.00  0.00    +0.047 A 
ATOM      4  N   UNL A   1      33.711 -36.910 -28.769  0.00  0.00    -0.251 NA
ATOM      5  C   UNL A   1      33.964 -35.669 -29.200  0.00  0.00    +0.073 A 
ATOM      6  C   UNL A   1      33.216 -34.628 -28.662  0.00  0.00    -0.036 A 
ATOM      7  C   UNL A   1      33.383 -33.305 -29.076  0.00  0.00    -0.060 A 
ATOM      8  C   UNL A   1      34.312 -33.011 -30.061  0.00  0.00    -0.061 A 
ATOM      9  C   UNL A   1      35.077 -34.040 -30.608  0.00  0.00    -0.051 A 
ATOM     10  C   UNL A   1      34.940 -35.383 -30.174  0.00  0.00    +0.021 A 
ATOM     11  C   UNL A   1      34.015 -39.301 -28.770  0.00  0.00    -0.010 C 
ATOM     12  C   UNL A   1      34.434 -40.450 -29.676  0.00  0.00    -0.047 C 
ATOM     13  C   UNL A   1      35.895 -40.287 -30.062  0.00  0.00    -0.049 C 
ATOM     14  C   UNL A   1      36.101 -38.992 -30.847  0.00  0.00    -0.024 C 
ENDROOT
BRANCH   1  15
ATOM     15  N   UNL A   1      36.783 -36.233 -31.577  0.00  0.00    -0.342 N 
ATOM     16  H   UNL A   1      36.670 -36.240 -32.555  0.00  0.00    +0.000 HD
BRANCH  15  17
ATOM     17  C   UNL A   1      38.088 -35.976 -30.939  0.00  0.00    +0.025 C 
BRANCH  17  18
ATOM     18  C   UNL A   1      39.150 -35.432 -31.910  0.00  0.00    +0.027 C 
BRANCH  18  21
ATOM     19  C   UNL A   1      41.292 -36.576 -31.466  0.00  0.00    +0.220 C 
ATOM     20  O   UNL A   1      41.526 -35.882 -30.481  0.00  0.00    -0.275 OA
ATOM     21  N   UNL A   1      40.168 -36.416 -32.243  0.00  0.00    -0.313 N 
ATOM     22  H   UNL A   1      40.050 -36.979 -33.042  0.00  0.00    +0.000 HD
BRANCH  19  23
ATOM     23  C   UNL A   1      42.227 -37.661 -31.923  0.00  0.00    +0.082 C 
BRANCH  23  25
ATOM     24  C   UNL A   1      42.866 -39.292 -30.029  0.00  0.00    -0.006 C 
ATOM     25  C   UNL A   1      43.200 -38.077 -30.854  0.00  0.00    +0.139 C 
ATOM     26  O   UNL A   1      44.251 -37.457 -30.682  0.00  0.00    -0.297 OA
ENDBRANCH  23  25
ENDBRANCH  19  23
ENDBRANCH  18  21
ENDBRANCH  17  18
ENDBRANCH  15  17
ENDBRANCH   1  15
TORSDOF 6
ENDMDL
MODEL 18
REMARK VINA RESULT:    -6.549     24.214     27.099
REMARK INTER + INTRA:          -9.558
REMARK INTER:                  -9.182
REMARK INTRA:                  -0.376
REMARK UNBOUND:                -0.712
REMARK  Name = cpd141.pdb
REMARK  7 active torsions:
REMARK  status: ('A' for Active; 'I' for Inactive)
REMARK    1  A    between atoms: C_1  and  C_2
REMARK    2  A    between atoms: C_2  and  C_4
REMARK    3  A    between atoms: C_4  and  C_5
REMARK    4  A    between atoms: N_7  and  C_8
REMARK    5  A    between atoms: C_8  and  C_9
REMARK    6  A    between atoms: C_9  and  N_10
REMARK    7  A    between atoms: N_10  and  C_11
REMARK                            x       y       z     vdW  Elec       q    Type
REMARK                         _______ _______ _______ _____ _____    ______ ____
ROOT
ATOM      1  C   UNL A   1      55.970 -35.788 -49.531  0.00  0.00    +0.041 A 
ATOM      2  C   UNL A   1      55.272 -36.995 -49.755  0.00  0.00    -0.005 A 
ATOM      3  C   UNL A   1      54.494 -37.499 -48.708  0.00  0.00    +0.047 A 
ATOM      4  N   UNL A   1      54.415 -36.911 -47.491  0.00  0.00    -0.251 NA
ATOM      5  C   UNL A   1      55.052 -35.753 -47.287  0.00  0.00    +0.073 A 
ATOM      6  C   UNL A   1      54.915 -35.145 -46.045  0.00  0.00    -0.036 A 
ATOM      7  C   UNL A   1      55.511 -33.917 -45.751  0.00  0.00    -0.060 A 
ATOM      8  C   UNL A   1      56.256 -33.270 -46.725  0.00  0.00    -0.061 A 
ATOM      9  C   UNL A   1      56.411 -33.867 -47.975  0.00  0.00    -0.051 A 
ATOM     10  C   UNL A   1      55.837 -35.128 -48.276  0.00  0.00    +0.021 A 
ATOM     11  C   UNL A   1      53.722 -38.788 -48.835  0.00  0.00    -0.010 C 
ATOM     12  C   UNL A   1      53.447 -39.185 -50.279  0.00  0.00    -0.047 C 
ATOM     13  C   UNL A   1      54.736 -39.115 -51.081  0.00  0.00    -0.049 C 
ATOM     14  C   UNL A   1      55.280 -37.687 -51.099  0.00  0.00    -0.024 C 
ENDROOT
BRANCH   1  15
ATOM     15  N   UNL A   1      56.849 -35.277 -50.521  0.00  0.00    -0.342 N 
ATOM     16  H   UNL A   1      57.625 -35.788 -50.848  0.00  0.00    +0.000 HD
BRANCH  15  17
ATOM     17  C   UNL A   1      56.526 -33.930 -51.031  0.00  0.00    +0.025 C 
BRANCH  17  18
ATOM     18  C   UNL A   1      55.971 -33.933 -52.465  0.00  0.00    +0.027 C 
BRANCH  18  21
ATOM     19  C   UNL A   1      53.703 -32.963 -52.568  0.00  0.00    +0.220 C 
ATOM     20  O   UNL A   1      53.172 -34.022 -52.250  0.00  0.00    -0.275 OA
ATOM     21  N   UNL A   1      55.063 -32.826 -52.722  0.00  0.00    -0.313 N 
ATOM     22  H   UNL A   1      55.430 -31.960 -53.014  0.00  0.00    +0.000 HD
BRANCH  19  23
ATOM     23  C   UNL A   1      52.908 -31.715 -52.834  0.00  0.00    +0.082 C 
BRANCH  23  25
ATOM     24  C   UNL A   1      53.142 -31.158 -55.342  0.00  0.00    -0.006 C 
ATOM     25  C   UNL A   1      53.514 -30.860 -53.913  0.00  0.00    +0.139 C 
ATOM     26  O   UNL A   1      54.267 -29.926 -53.630  0.00  0.00    -0.297 OA
ENDBRANCH  23  25
ENDBRANCH  19  23
ENDBRANCH  18  21
ENDBRANCH  17  18
ENDBRANCH  15  17
ENDBRANCH   1  15
TORSDOF 6
ENDMDL
MODEL 19
REMARK VINA RESULT:    -6.486     15.271     18.110
REMARK INTER + INTRA:          -9.473
REMARK INTER:                  -8.836
REMARK INTRA:                  -0.637
REMARK UNBOUND:                -0.712
REMARK  Name = cpd141.pdb
REMARK  7 active torsions:
REMARK  status: ('A' for Active; 'I' for Inactive)
REMARK    1  A    between atoms: C_1  and  C_2
REMARK    2  A    between atoms: C_2  and  C_4
REMARK    3  A    between atoms: C_4  and  C_5
REMARK    4  A    between atoms: N_7  and  C_8
REMARK    5  A    between atoms: C_8  and  C_9
REMARK    6  A    between atoms: C_9  and  N_10
REMARK    7  A    between atoms: N_10  and  C_11
REMARK                            x       y       z     vdW  Elec       q    Type
REMARK                         _______ _______ _______ _____ _____    ______ ____
ROOT
ATOM      1  C   UNL A   1      43.677 -20.722 -39.065  0.00  0.00    +0.041 A 
ATOM      2  C   UNL A   1      44.261 -20.437 -37.811  0.00  0.00    -0.005 A 
ATOM      3  C   UNL A   1      45.643 -20.615 -37.682  0.00  0.00    +0.047 A 
ATOM      4  N   UNL A   1      46.427 -21.085 -38.679  0.00  0.00    -0.251 NA
ATOM      5  C   UNL A   1      45.880 -21.329 -39.876  0.00  0.00    +0.073 A 
ATOM      6  C   UNL A   1      46.716 -21.764 -40.897  0.00  0.00    -0.036 A 
ATOM      7  C   UNL A   1      46.243 -22.008 -42.188  0.00  0.00    -0.060 A 
ATOM      8  C   UNL A   1      44.903 -21.803 -42.474  0.00  0.00    -0.061 A 
ATOM      9  C   UNL A   1      44.047 -21.373 -41.461  0.00  0.00    -0.051 A 
ATOM     10  C   UNL A   1      44.508 -21.152 -40.138  0.00  0.00    +0.021 A 
ATOM     11  C   UNL A   1      46.363 -20.355 -36.384  0.00  0.00    -0.010 C 
ATOM     12  C   UNL A   1      45.601 -19.428 -35.447  0.00  0.00    -0.047 C 
ATOM     13  C   UNL A   1      44.166 -19.909 -35.310  0.00  0.00    -0.049 C 
ATOM     14  C   UNL A   1      43.457 -19.870 -36.663  0.00  0.00    -0.024 C 
ENDROOT
BRANCH   1  15
ATOM     15  N   UNL A   1      42.269 -20.650 -39.230  0.00  0.00    -0.342 N 
ATOM     16  H   UNL A   1      41.819 -19.830 -39.538  0.00  0.00    +0.000 HD
BRANCH  15  17
ATOM     17  C   UNL A   1      41.522 -21.881 -38.910  0.00  0.00    +0.025 C 
BRANCH  17  18
ATOM     18  C   UNL A   1      40.208 -21.624 -38.153  0.00  0.00    +0.027 C 
BRANCH  18  21
ATOM     19  C   UNL A   1      40.008 -22.752 -35.966  0.00  0.00    +0.220 C 
ATOM     20  O   UNL A   1      39.487 -23.747 -36.460  0.00  0.00    -0.275 OA
ATOM     21  N   UNL A   1      40.374 -21.653 -36.708  0.00  0.00    -0.313 N 
ATOM     22  H   UNL A   1      40.756 -20.868 -36.251  0.00  0.00    +0.000 HD
BRANCH  19  23
ATOM     23  C   UNL A   1      40.281 -22.638 -34.491  0.00  0.00    +0.082 C 
BRANCH  23  25
ATOM     24  C   UNL A   1      37.884 -22.035 -33.751  0.00  0.00    -0.006 C 
ATOM     25  C   UNL A   1      39.073 -22.954 -33.652  0.00  0.00    +0.139 C 
ATOM     26  O   UNL A   1      39.050 -23.953 -32.931  0.00  0.00    -0.297 OA
ENDBRANCH  23  25
ENDBRANCH  19  23
ENDBRANCH  18  21
ENDBRANCH  17  18
ENDBRANCH  15  17
ENDBRANCH   1  15
TORSDOF 6
ENDMDL
MODEL 20
REMARK VINA RESULT:    -6.050     15.332     17.994
REMARK INTER + INTRA:          -8.884
REMARK INTER:                  -7.997
REMARK INTRA:                  -0.887
REMARK UNBOUND:                -0.712
REMARK  Name = cpd141.pdb
REMARK  7 active torsions:
REMARK  status: ('A' for Active; 'I' for Inactive)
REMARK    1  A    between atoms: C_1  and  C_2
REMARK    2  A    between atoms: C_2  and  C_4
REMARK    3  A    between atoms: C_4  and  C_5
REMARK    4  A    between atoms: N_7  and  C_8
REMARK    5  A    between atoms: C_8  and  C_9
REMARK    6  A    between atoms: C_9  and  N_10
REMARK    7  A    between atoms: N_10  and  C_11
REMARK                            x       y       z     vdW  Elec       q    Type
REMARK                         _______ _______ _______ _____ _____    ______ ____
ROOT
ATOM      1  C   UNL A   1      43.343 -20.567 -38.353  0.00  0.00    +0.041 A 
ATOM      2  C   UNL A   1      44.080 -20.670 -39.553  0.00  0.00    -0.005 A 
ATOM      3  C   UNL A   1      45.475 -20.609 -39.466  0.00  0.00    +0.047 A 
ATOM      4  N   UNL A   1      46.139 -20.415 -38.303  0.00  0.00    -0.251 NA
ATOM      5  C   UNL A   1      45.443 -20.346 -37.162  0.00  0.00    +0.073 A 
ATOM      6  C   UNL A   1      46.152 -20.196 -35.976  0.00  0.00    -0.036 A 
ATOM      7  C   UNL A   1      45.516 -20.152 -34.734  0.00  0.00    -0.060 A 
ATOM      8  C   UNL A   1      44.137 -20.272 -34.669  0.00  0.00    -0.061 A 
ATOM      9  C   UNL A   1      43.408 -20.417 -35.848  0.00  0.00    -0.051 A 
ATOM     10  C   UNL A   1      44.038 -20.431 -37.118  0.00  0.00    +0.021 A 
ATOM     11  C   UNL A   1      46.355 -20.692 -40.687  0.00  0.00    -0.010 C 
ATOM     12  C   UNL A   1      45.672 -21.346 -41.879  0.00  0.00    -0.047 C 
ATOM     13  C   UNL A   1      44.310 -20.707 -42.100  0.00  0.00    -0.049 C 
ATOM     14  C   UNL A   1      43.412 -20.928 -40.885  0.00  0.00    -0.024 C 
ENDROOT
BRANCH   1  15
ATOM     15  N   UNL A   1      41.924 -20.528 -38.387  0.00  0.00    -0.342 N 
ATOM     16  H   UNL A   1      41.426 -19.692 -38.540  0.00  0.00    +0.000 HD
BRANCH  15  17
ATOM     17  C   UNL A   1      41.244 -21.821 -38.180  0.00  0.00    +0.025 C 
BRANCH  17  18
ATOM     18  C   UNL A   1      39.890 -21.694 -37.460  0.00  0.00    +0.027 C 
BRANCH  18  21
ATOM     19  C   UNL A   1      39.616 -23.061 -35.423  0.00  0.00    +0.220 C 
ATOM     20  O   UNL A   1      39.132 -24.000 -36.047  0.00  0.00    -0.275 OA
ATOM     21  N   UNL A   1      39.995 -21.882 -36.022  0.00  0.00    -0.313 N 
ATOM     22  H   UNL A   1      40.345 -21.149 -35.464  0.00  0.00    +0.000 HD
BRANCH  19  23
ATOM     23  C   UNL A   1      39.825 -23.110 -33.935  0.00  0.00    +0.082 C 
BRANCH  23  25
ATOM     24  C   UNL A   1      41.253 -21.442 -32.581  0.00  0.00    -0.006 C 
ATOM     25  C   UNL A   1      39.979 -21.743 -33.325  0.00  0.00    +0.139 C 
ATOM     26  O   UNL A   1      39.100 -20.889 -33.460  0.00  0.00    -0.297 OA
ENDBRANCH  23  25
ENDBRANCH  19  23
ENDBRANCH  18  21
ENDBRANCH  17  18
ENDBRANCH  15  17
ENDBRANCH   1  15
TORSDOF 6
ENDMDL
