@<TRIPOS>MOLECULE
*****
 24 26 0 0 0
SMALL
GASTEIGER

@<TRIPOS>ATOM
      1 C           4.3301   -4.5000    0.0000 C.3     1  UNL1        0.0728
      2 C           5.1962   -4.0000    0.0000 C.2     1  UNL1        0.1603
      3 O           6.0622   -4.5000    0.0000 O.2     1  UNL1       -0.2955
      4 C           5.1962   -3.0000    0.0000 C.3     1  UNL1        0.1510
      5 C           4.3301   -2.5000    0.0000 C.2     1  UNL1        0.2489
      6 O           4.3301   -1.5000    0.0000 O.2     1  UNL1       -0.2729
      7 N           3.4641   -3.0000    0.0000 N.am    1  UNL1       -0.2032
      8 C           2.5981   -2.5000    0.0000 C.3     1  UNL1        0.1384
      9 C           2.5981   -1.5000    0.0000 C.3     1  UNL1        0.1355
     10 N           1.7321   -1.0000    0.0000 N.pl3   1  UNL1       -0.2360
     11 C           1.7321   -0.0000    0.0000 C.ar    1  UNL1        0.0639
     12 C           0.8660    0.5000    0.0000 C.ar    1  UNL1        0.0062
     13 C           0.8660    1.5000    0.0000 C.ar    1  UNL1        0.0562
     14 N           1.7321    2.0000    0.0000 N.ar    1  UNL1       -0.2499
     15 C           2.5981    1.5000    0.0000 C.ar    1  UNL1        0.0821
     16 C           3.4641    2.0000    0.0000 C.ar    1  UNL1        0.0191
     17 C           4.3301    1.5000    0.0000 C.ar    1  UNL1        0.0015
     18 C           4.3301    0.5000    0.0000 C.ar    1  UNL1        0.0001
     19 C           3.4641   -0.0000    0.0000 C.ar    1  UNL1        0.0028
     20 C           2.5981    0.5000    0.0000 C.ar    1  UNL1        0.0322
     21 C           0.0000    2.0000    0.0000 C.3     1  UNL1        0.0455
     22 C          -0.8660    1.5000    0.0000 C.3     1  UNL1        0.0066
     23 C          -0.8660    0.5000    0.0000 C.3     1  UNL1        0.0052
     24 C           0.0000    0.0000    0.0000 C.3     1  UNL1        0.0289
@<TRIPOS>BOND
     1     1     2    1
     2     2     3    2
     3     2     4    1
     4     4     5    1
     5     5     6    2
     6     5     7   am
     7     7     8    1
     8     8     9    1
     9     9    10    1
    10    10    11    1
    11    11    12   ar
    12    12    13   ar
    13    13    14   ar
    14    14    15   ar
    15    15    16   ar
    16    16    17   ar
    17    17    18   ar
    18    18    19   ar
    19    19    20   ar
    20    11    20   ar
    21    15    20   ar
    22    13    21    1
    23    21    22    1
    24    22    23    1
    25    23    24    1
    26    12    24    1
