MODEL 1
REMARK VINA RESULT:    -7.736      0.000      0.000
REMARK INTER + INTRA:          -9.107
REMARK INTER:                  -9.092
REMARK INTRA:                  -0.015
REMARK UNBOUND:                -0.015
REMARK  Name = cpd195.pdb
REMARK  9 active torsions:
REMARK  status: ('A' for Active; 'I' for Inactive)
REMARK    1  A    between atoms: C_1  and  C_2
REMARK    2  A    between atoms: N_4  and  C_5
REMARK    3  A    between atoms: C_8  and  C_9
REMARK    4  A    between atoms: C_17  and  C_18
REMARK    5  A    between atoms: C_19  and  C_20
REMARK    6  A    between atoms: C_20  and  C_21
REMARK    7  A    between atoms: C_20  and  N_22
REMARK    8  A    between atoms: N_22  and  C_23
REMARK    9  A    between atoms: N_22  and  C_24
REMARK                            x       y       z     vdW  Elec       q    Type
REMARK                         _______ _______ _______ _____ _____    ______ ____
ROOT
ATOM      1  C   UNL     1      33.320 -42.799 -27.563  0.00  0.00    +0.023 C 
ATOM      2  C   UNL     1      33.325 -42.723 -29.099  0.00  0.00    -0.034 C 
ATOM      3  C   UNL     1      34.462 -41.847 -29.611  0.00  0.00    -0.045 C 
ATOM      4  C   UNL     1      34.347 -40.352 -29.138  0.00  0.00    -0.026 C 
ATOM      5  C   UNL     1      33.470 -39.622 -30.191  0.00  0.00    -0.059 C 
ATOM      6  C   UNL     1      33.582 -40.277 -27.770  0.00  0.00    -0.034 C 
ATOM      7  C   UNL     1      33.785 -38.980 -26.964  0.00  0.00    -0.049 C 
ATOM      8  C   UNL     1      34.713 -37.960 -27.604  0.00  0.00    -0.049 C 
ATOM      9  C   UNL     1      36.024 -38.628 -28.006  0.00  0.00    -0.034 C 
ATOM     10  C   UNL     1      35.820 -39.770 -29.036  0.00  0.00    -0.032 C 
ATOM     11  C   UNL     1      36.475 -39.473 -30.402  0.00  0.00    -0.049 C 
ATOM     12  C   UNL     1      36.381 -38.005 -30.805  0.00  0.00    -0.047 C 
ATOM     13  C   UNL     1      37.052 -37.015 -29.826  0.00  0.00    -0.025 C 
ATOM     14  C   UNL     1      36.241 -35.699 -29.853  0.00  0.00    -0.059 C 
ATOM     15  C   UNL     1      38.561 -36.667 -30.091  0.00  0.00    -0.020 C 
ATOM     16  C   UNL     1      39.325 -37.836 -29.479  0.00  0.00    -0.048 C 
ATOM     17  C   UNL     1      38.537 -38.202 -28.228  0.00  0.00    -0.049 C 
ATOM     18  C   UNL     1      37.118 -37.602 -28.385  0.00  0.00    -0.032 C 
ATOM     19  C   UNL     1      33.866 -41.519 -26.906  0.00  0.00    -0.031 C 
ENDROOT
BRANCH   1  23
ATOM     20  C   UNL     1      30.052 -44.455 -26.561  0.00  0.00    +0.012 C 
ATOM     21  C   UNL     1      31.507 -44.368 -26.935  0.00  0.00    +0.210 C 
ATOM     22  O   UNL     1      32.196 -45.368 -27.104  0.00  0.00    -0.276 OA
ATOM     23  N   UNL     1      31.969 -43.079 -27.086  0.00  0.00    -0.313 N 
ATOM     24  H   UNL     1      31.372 -42.328 -26.867  0.00  0.00    +0.000 HD
ENDBRANCH   1  23
BRANCH  15  25
ATOM     25  C   UNL     1      39.002 -36.220 -31.520  0.00  0.00    +0.010 C 
ATOM     26  C   UNL     1      38.492 -34.795 -31.811  0.00  0.00    -0.049 C 
BRANCH  25  27
ATOM     27  N   UNL     1      40.442 -36.413 -31.808  0.00  0.00    -0.305 N 
ATOM     28  C   UNL     1      41.356 -35.545 -31.064  0.00  0.00    -0.013 C 
ATOM     29  C   UNL     1      40.719 -36.281 -33.243  0.00  0.00    -0.013 C 
ATOM     30  H   UNL     1      40.628 -37.363 -31.487  0.00  0.00    +0.000 HD
ENDBRANCH  25  27
ENDBRANCH  15  25
TORSDOF 3
ENDMDL
MODEL 2
REMARK VINA RESULT:    -7.599      5.480      8.167
REMARK INTER + INTRA:          -8.947
REMARK INTER:                  -8.402
REMARK INTRA:                  -0.545
REMARK UNBOUND:                -0.015
REMARK  Name = cpd195.pdb
REMARK  9 active torsions:
REMARK  status: ('A' for Active; 'I' for Inactive)
REMARK    1  A    between atoms: C_1  and  C_2
REMARK    2  A    between atoms: N_4  and  C_5
REMARK    3  A    between atoms: C_8  and  C_9
REMARK    4  A    between atoms: C_17  and  C_18
REMARK    5  A    between atoms: C_19  and  C_20
REMARK    6  A    between atoms: C_20  and  C_21
REMARK    7  A    between atoms: C_20  and  N_22
REMARK    8  A    between atoms: N_22  and  C_23
REMARK    9  A    between atoms: N_22  and  C_24
REMARK                            x       y       z     vdW  Elec       q    Type
REMARK                         _______ _______ _______ _____ _____    ______ ____
ROOT
ATOM      1  C   UNL     1      30.383 -32.441 -30.790  0.00  0.00    +0.023 C 
ATOM      2  C   UNL     1      30.364 -33.561 -31.844  0.00  0.00    -0.034 C 
ATOM      3  C   UNL     1      31.155 -34.778 -31.379  0.00  0.00    -0.045 C 
ATOM      4  C   UNL     1      32.679 -34.470 -31.151  0.00  0.00    -0.026 C 
ATOM      5  C   UNL     1      33.382 -34.684 -32.520  0.00  0.00    -0.059 C 
ATOM      6  C   UNL     1      32.873 -32.961 -30.767  0.00  0.00    -0.034 C 
ATOM      7  C   UNL     1      34.206 -32.616 -30.078  0.00  0.00    -0.049 C 
ATOM      8  C   UNL     1      35.143 -33.793 -29.854  0.00  0.00    -0.049 C 
ATOM      9  C   UNL     1      34.394 -34.933 -29.173  0.00  0.00    -0.034 C 
ATOM     10  C   UNL     1      33.201 -35.451 -30.018  0.00  0.00    -0.032 C 
ATOM     11  C   UNL     1      33.383 -36.911 -30.486  0.00  0.00    -0.049 C 
ATOM     12  C   UNL     1      34.827 -37.249 -30.846  0.00  0.00    -0.047 C 
ATOM     13  C   UNL     1      35.844 -37.077 -29.695  0.00  0.00    -0.025 C 
ATOM     14  C   UNL     1      37.191 -36.638 -30.315  0.00  0.00    -0.059 C 
ATOM     15  C   UNL     1      36.106 -38.330 -28.786  0.00  0.00    -0.020 C 
ATOM     16  C   UNL     1      34.945 -38.324 -27.798  0.00  0.00    -0.048 C 
ATOM     17  C   UNL     1      34.692 -36.850 -27.506  0.00  0.00    -0.049 C 
ATOM     18  C   UNL     1      35.344 -36.035 -28.650  0.00  0.00    -0.032 C 
ATOM     19  C   UNL     1      31.675 -32.437 -29.954  0.00  0.00    -0.031 C 
ENDROOT
BRANCH   1  23
ATOM     20  C   UNL     1      29.193 -28.974 -31.786  0.00  0.00    +0.012 C 
ATOM     21  C   UNL     1      29.362 -30.186 -30.909  0.00  0.00    +0.210 C 
ATOM     22  O   UNL     1      28.786 -30.295 -29.832  0.00  0.00    -0.276 OA
ATOM     23  N   UNL     1      30.194 -31.147 -31.439  0.00  0.00    -0.313 N 
ATOM     24  H   UNL     1      30.672 -30.957 -32.278  0.00  0.00    +0.000 HD
ENDBRANCH   1  23
BRANCH  15  25
ATOM     25  C   UNL     1      36.444 -39.700 -29.453  0.00  0.00    +0.010 C 
ATOM     26  C   UNL     1      37.512 -40.444 -28.627  0.00  0.00    -0.049 C 
BRANCH  25  27
ATOM     27  N   UNL     1      35.263 -40.527 -29.792  0.00  0.00    -0.305 N 
ATOM     28  C   UNL     1      35.095 -41.743 -28.994  0.00  0.00    -0.013 C 
ATOM     29  C   UNL     1      35.254 -40.884 -31.215  0.00  0.00    -0.013 C 
ATOM     30  H   UNL     1      34.472 -39.925 -29.562  0.00  0.00    +0.000 HD
ENDBRANCH  25  27
ENDBRANCH  15  25
TORSDOF 3
ENDMDL
MODEL 3
REMARK VINA RESULT:    -7.521     18.932     21.941
REMARK INTER + INTRA:          -8.855
REMARK INTER:                  -8.290
REMARK INTRA:                  -0.565
REMARK UNBOUND:                -0.015
REMARK  Name = cpd195.pdb
REMARK  9 active torsions:
REMARK  status: ('A' for Active; 'I' for Inactive)
REMARK    1  A    between atoms: C_1  and  C_2
REMARK    2  A    between atoms: N_4  and  C_5
REMARK    3  A    between atoms: C_8  and  C_9
REMARK    4  A    between atoms: C_17  and  C_18
REMARK    5  A    between atoms: C_19  and  C_20
REMARK    6  A    between atoms: C_20  and  C_21
REMARK    7  A    between atoms: C_20  and  N_22
REMARK    8  A    between atoms: N_22  and  C_23
REMARK    9  A    between atoms: N_22  and  C_24
REMARK                            x       y       z     vdW  Elec       q    Type
REMARK                         _______ _______ _______ _____ _____    ______ ____
ROOT
ATOM      1  C   UNL     1      39.591 -21.392 -34.570  0.00  0.00    +0.023 C 
ATOM      2  C   UNL     1      39.223 -21.904 -35.973  0.00  0.00    -0.034 C 
ATOM      3  C   UNL     1      40.445 -21.969 -36.882  0.00  0.00    -0.045 C 
ATOM      4  C   UNL     1      41.102 -20.563 -37.129  0.00  0.00    -0.026 C 
ATOM      5  C   UNL     1      40.373 -19.944 -38.354  0.00  0.00    -0.059 C 
ATOM      6  C   UNL     1      40.831 -19.618 -35.906  0.00  0.00    -0.034 C 
ATOM      7  C   UNL     1      41.767 -18.401 -35.785  0.00  0.00    -0.049 C 
ATOM      8  C   UNL     1      42.835 -18.297 -36.863  0.00  0.00    -0.049 C 
ATOM      9  C   UNL     1      43.584 -19.620 -36.985  0.00  0.00    -0.034 C 
ATOM     10  C   UNL     1      42.652 -20.797 -37.376  0.00  0.00    -0.032 C 
ATOM     11  C   UNL     1      42.986 -21.395 -38.760  0.00  0.00    -0.049 C 
ATOM     12  C   UNL     1      43.419 -20.344 -39.777  0.00  0.00    -0.047 C 
ATOM     13  C   UNL     1      44.678 -19.536 -39.386  0.00  0.00    -0.025 C 
ATOM     14  C   UNL     1      44.524 -18.110 -39.964  0.00  0.00    -0.059 C 
ATOM     15  C   UNL     1      46.063 -20.109 -39.855  0.00  0.00    -0.020 C 
ATOM     16  C   UNL     1      46.393 -21.179 -38.820  0.00  0.00    -0.048 C 
ATOM     17  C   UNL     1      45.884 -20.613 -37.501  0.00  0.00    -0.049 C 
ATOM     18  C   UNL     1      44.866 -19.496 -37.841  0.00  0.00    -0.032 C 
ATOM     19  C   UNL     1      40.779 -20.414 -34.591  0.00  0.00    -0.031 C 
ENDROOT
BRANCH   1  23
ATOM     20  C   UNL     1      36.350 -20.697 -32.716  0.00  0.00    +0.012 C 
ATOM     21  C   UNL     1      37.559 -21.480 -33.155  0.00  0.00    +0.210 C 
ATOM     22  O   UNL     1      37.726 -22.652 -32.836  0.00  0.00    -0.276 OA
ATOM     23  N   UNL     1      38.427 -20.766 -33.951  0.00  0.00    -0.313 N 
ATOM     24  H   UNL     1      38.258 -19.809 -34.107  0.00  0.00    +0.000 HD
ENDBRANCH   1  23
BRANCH  15  25
ATOM     25  C   UNL     1      46.258 -20.506 -41.352  0.00  0.00    +0.010 C 
ATOM     26  C   UNL     1      47.623 -20.002 -41.861  0.00  0.00    -0.049 C 
BRANCH  25  27
ATOM     27  N   UNL     1      45.996 -21.933 -41.649  0.00  0.00    -0.305 N 
ATOM     28  C   UNL     1      47.173 -22.730 -42.000  0.00  0.00    -0.013 C 
ATOM     29  C   UNL     1      44.987 -22.080 -42.704  0.00  0.00    -0.013 C 
ATOM     30  H   UNL     1      45.655 -22.306 -40.763  0.00  0.00    +0.000 HD
ENDBRANCH  25  27
ENDBRANCH  15  25
TORSDOF 3
ENDMDL
MODEL 4
REMARK VINA RESULT:    -7.184      5.047      9.154
REMARK INTER + INTRA:          -8.458
REMARK INTER:                  -7.849
REMARK INTRA:                  -0.609
REMARK UNBOUND:                -0.015
REMARK  Name = cpd195.pdb
REMARK  9 active torsions:
REMARK  status: ('A' for Active; 'I' for Inactive)
REMARK    1  A    between atoms: C_1  and  C_2
REMARK    2  A    between atoms: N_4  and  C_5
REMARK    3  A    between atoms: C_8  and  C_9
REMARK    4  A    between atoms: C_17  and  C_18
REMARK    5  A    between atoms: C_19  and  C_20
REMARK    6  A    between atoms: C_20  and  C_21
REMARK    7  A    between atoms: C_20  and  N_22
REMARK    8  A    between atoms: N_22  and  C_23
REMARK    9  A    between atoms: N_22  and  C_24
REMARK                            x       y       z     vdW  Elec       q    Type
REMARK                         _______ _______ _______ _____ _____    ______ ____
ROOT
ATOM      1  C   UNL     1      38.159 -36.582 -31.535  0.00  0.00    +0.023 C 
ATOM      2  C   UNL     1      37.447 -37.470 -30.500  0.00  0.00    -0.034 C 
ATOM      3  C   UNL     1      35.934 -37.306 -30.571  0.00  0.00    -0.045 C 
ATOM      4  C   UNL     1      35.457 -35.845 -30.239  0.00  0.00    -0.026 C 
ATOM      5  C   UNL     1      35.272 -35.781 -28.697  0.00  0.00    -0.059 C 
ATOM      6  C   UNL     1      36.580 -34.814 -30.610  0.00  0.00    -0.034 C 
ATOM      7  C   UNL     1      36.115 -33.356 -30.778  0.00  0.00    -0.049 C 
ATOM      8  C   UNL     1      34.626 -33.124 -30.574  0.00  0.00    -0.049 C 
ATOM      9  C   UNL     1      33.825 -34.110 -31.418  0.00  0.00    -0.034 C 
ATOM     10  C   UNL     1      34.114 -35.587 -31.043  0.00  0.00    -0.032 C 
ATOM     11  C   UNL     1      32.882 -36.312 -30.459  0.00  0.00    -0.049 C 
ATOM     12  C   UNL     1      32.022 -35.415 -29.574  0.00  0.00    -0.047 C 
ATOM     13  C   UNL     1      31.444 -34.166 -30.278  0.00  0.00    -0.025 C 
ATOM     14  C   UNL     1      31.356 -33.031 -29.232  0.00  0.00    -0.059 C 
ATOM     15  C   UNL     1      30.035 -34.321 -30.954  0.00  0.00    -0.020 C 
ATOM     16  C   UNL     1      30.336 -34.974 -32.298  0.00  0.00    -0.048 C 
ATOM     17  C   UNL     1      31.651 -34.350 -32.746  0.00  0.00    -0.049 C 
ATOM     18  C   UNL     1      32.324 -33.742 -31.490  0.00  0.00    -0.032 C 
ATOM     19  C   UNL     1      37.384 -35.287 -31.835  0.00  0.00    -0.031 C 
ENDROOT
BRANCH   1  23
ATOM     20  C   UNL     1      41.883 -35.870 -31.300  0.00  0.00    +0.012 C 
ATOM     21  C   UNL     1      40.541 -36.043 -31.959  0.00  0.00    +0.210 C 
ATOM     22  O   UNL     1      40.403 -35.999 -33.177  0.00  0.00    -0.276 OA
ATOM     23  N   UNL     1      39.509 -36.272 -31.075  0.00  0.00    -0.313 N 
ATOM     24  H   UNL     1      39.688 -36.225 -30.108  0.00  0.00    +0.000 HD
ENDBRANCH   1  23
BRANCH  15  25
ATOM     25  C   UNL     1      28.857 -34.933 -30.132  0.00  0.00    +0.010 C 
ATOM     26  C   UNL     1      27.708 -33.911 -30.010  0.00  0.00    -0.049 C 
BRANCH  25  27
ATOM     27  N   UNL     1      28.421 -36.274 -30.586  0.00  0.00    -0.305 N 
ATOM     28  C   UNL     1      27.003 -36.394 -30.928  0.00  0.00    -0.013 C 
ATOM     29  C   UNL     1      28.765 -37.306 -29.601  0.00  0.00    -0.013 C 
ATOM     30  H   UNL     1      28.936 -36.414 -31.456  0.00  0.00    +0.000 HD
ENDBRANCH  25  27
ENDBRANCH  15  25
TORSDOF 3
ENDMDL
MODEL 5
REMARK VINA RESULT:    -7.166     19.485     23.159
REMARK INTER + INTRA:          -8.438
REMARK INTER:                  -7.863
REMARK INTRA:                  -0.575
REMARK UNBOUND:                -0.015
REMARK  Name = cpd195.pdb
REMARK  9 active torsions:
REMARK  status: ('A' for Active; 'I' for Inactive)
REMARK    1  A    between atoms: C_1  and  C_2
REMARK    2  A    between atoms: N_4  and  C_5
REMARK    3  A    between atoms: C_8  and  C_9
REMARK    4  A    between atoms: C_17  and  C_18
REMARK    5  A    between atoms: C_19  and  C_20
REMARK    6  A    between atoms: C_20  and  C_21
REMARK    7  A    between atoms: C_20  and  N_22
REMARK    8  A    between atoms: N_22  and  C_23
REMARK    9  A    between atoms: N_22  and  C_24
REMARK                            x       y       z     vdW  Elec       q    Type
REMARK                         _______ _______ _______ _____ _____    ______ ____
ROOT
ATOM      1  C   UNL     1      46.650 -20.638 -39.526  0.00  0.00    +0.023 C 
ATOM      2  C   UNL     1      46.513 -19.492 -38.509  0.00  0.00    -0.034 C 
ATOM      3  C   UNL     1      45.333 -19.717 -37.571  0.00  0.00    -0.045 C 
ATOM      4  C   UNL     1      43.951 -19.755 -38.318  0.00  0.00    -0.026 C 
ATOM      5  C   UNL     1      43.453 -18.286 -38.399  0.00  0.00    -0.059 C 
ATOM      6  C   UNL     1      44.149 -20.256 -39.792  0.00  0.00    -0.034 C 
ATOM      7  C   UNL     1      42.881 -20.778 -40.492  0.00  0.00    -0.049 C 
ATOM      8  C   UNL     1      41.616 -20.749 -39.648  0.00  0.00    -0.049 C 
ATOM      9  C   UNL     1      41.874 -21.414 -38.301  0.00  0.00    -0.034 C 
ATOM     10  C   UNL     1      42.984 -20.700 -37.486  0.00  0.00    -0.032 C 
ATOM     11  C   UNL     1      42.461 -20.069 -36.178  0.00  0.00    -0.049 C 
ATOM     12  C   UNL     1      41.062 -19.476 -36.317  0.00  0.00    -0.047 C 
ATOM     13  C   UNL     1      39.965 -20.482 -36.733  0.00  0.00    -0.025 C 
ATOM     14  C   UNL     1      38.928 -19.723 -37.593  0.00  0.00    -0.059 C 
ATOM     15  C   UNL     1      39.199 -21.216 -35.575  0.00  0.00    -0.020 C 
ATOM     16  C   UNL     1      40.131 -22.354 -35.175  0.00  0.00    -0.048 C 
ATOM     17  C   UNL     1      40.754 -22.824 -36.483  0.00  0.00    -0.049 C 
ATOM     18  C   UNL     1      40.569 -21.685 -37.517  0.00  0.00    -0.032 C 
ATOM     19  C   UNL     1      45.296 -21.278 -39.881  0.00  0.00    -0.031 C 
ENDROOT
BRANCH   1  23
ATOM     20  C   UNL     1      48.908 -20.206 -42.549  0.00  0.00    +0.012 C 
ATOM     21  C   UNL     1      48.232 -20.924 -41.412  0.00  0.00    +0.210 C 
ATOM     22  O   UNL     1      48.503 -22.084 -41.122  0.00  0.00    -0.276 OA
ATOM     23  N   UNL     1      47.315 -20.153 -40.731  0.00  0.00    -0.313 N 
ATOM     24  H   UNL     1      47.104 -19.252 -41.066  0.00  0.00    +0.000 HD
ENDBRANCH   1  23
BRANCH  15  25
ATOM     25  C   UNL     1      38.589 -20.375 -34.410  0.00  0.00    +0.010 C 
ATOM     26  C   UNL     1      37.174 -20.885 -34.072  0.00  0.00    -0.049 C 
BRANCH  25  27
ATOM     27  N   UNL     1      39.471 -20.228 -33.229  0.00  0.00    -0.305 N 
ATOM     28  C   UNL     1      39.013 -20.898 -32.011  0.00  0.00    -0.013 C 
ATOM     29  C   UNL     1      39.727 -18.815 -32.930  0.00  0.00    -0.013 C 
ATOM     30  H   UNL     1      40.330 -20.703 -33.509  0.00  0.00    +0.000 HD
ENDBRANCH  25  27
ENDBRANCH  15  25
TORSDOF 3
ENDMDL
MODEL 6
REMARK VINA RESULT:    -6.987      3.671      8.656
REMARK INTER + INTRA:          -8.227
REMARK INTER:                  -7.603
REMARK INTRA:                  -0.624
REMARK UNBOUND:                -0.015
REMARK  Name = cpd195.pdb
REMARK  9 active torsions:
REMARK  status: ('A' for Active; 'I' for Inactive)
REMARK    1  A    between atoms: C_1  and  C_2
REMARK    2  A    between atoms: N_4  and  C_5
REMARK    3  A    between atoms: C_8  and  C_9
REMARK    4  A    between atoms: C_17  and  C_18
REMARK    5  A    between atoms: C_19  and  C_20
REMARK    6  A    between atoms: C_20  and  C_21
REMARK    7  A    between atoms: C_20  and  N_22
REMARK    8  A    between atoms: N_22  and  C_23
REMARK    9  A    between atoms: N_22  and  C_24
REMARK                            x       y       z     vdW  Elec       q    Type
REMARK                         _______ _______ _______ _____ _____    ______ ____
ROOT
ATOM      1  C   UNL     1      38.188 -35.743 -30.827  0.00  0.00    +0.023 C 
ATOM      2  C   UNL     1      36.817 -35.367 -31.414  0.00  0.00    -0.034 C 
ATOM      3  C   UNL     1      35.698 -35.588 -30.403  0.00  0.00    -0.045 C 
ATOM      4  C   UNL     1      35.547 -37.092 -29.971  0.00  0.00    -0.026 C 
ATOM      5  C   UNL     1      34.588 -37.753 -30.999  0.00  0.00    -0.059 C 
ATOM      6  C   UNL     1      36.928 -37.827 -30.092  0.00  0.00    -0.034 C 
ATOM      7  C   UNL     1      37.056 -39.137 -29.291  0.00  0.00    -0.049 C 
ATOM      8  C   UNL     1      35.827 -39.524 -28.484  0.00  0.00    -0.049 C 
ATOM      9  C   UNL     1      35.369 -38.344 -27.633  0.00  0.00    -0.034 C 
ATOM     10  C   UNL     1      34.984 -37.108 -28.488  0.00  0.00    -0.032 C 
ATOM     11  C   UNL     1      33.488 -36.742 -28.379  0.00  0.00    -0.049 C 
ATOM     12  C   UNL     1      32.579 -37.963 -28.282  0.00  0.00    -0.047 C 
ATOM     13  C   UNL     1      32.846 -38.882 -27.068  0.00  0.00    -0.025 C 
ATOM     14  C   UNL     1      32.530 -40.334 -27.494  0.00  0.00    -0.059 C 
ATOM     15  C   UNL     1      32.047 -38.571 -25.753  0.00  0.00    -0.020 C 
ATOM     16  C   UNL     1      32.828 -37.435 -25.102  0.00  0.00    -0.048 C 
ATOM     17  C   UNL     1      34.289 -37.754 -25.391  0.00  0.00    -0.049 C 
ATOM     18  C   UNL     1      34.318 -38.752 -26.575  0.00  0.00    -0.032 C 
ATOM     19  C   UNL     1      38.095 -36.872 -29.785  0.00  0.00    -0.031 C 
ENDROOT
BRANCH   1  23
ATOM     20  C   UNL     1      41.154 -36.066 -33.177  0.00  0.00    +0.012 C 
ATOM     21  C   UNL     1      40.408 -35.687 -31.926  0.00  0.00    +0.210 C 
ATOM     22  O   UNL     1      40.932 -35.036 -31.028  0.00  0.00    -0.276 OA
ATOM     23  N   UNL     1      39.100 -36.118 -31.902  0.00  0.00    -0.313 N 
ATOM     24  H   UNL     1      38.773 -36.694 -32.630  0.00  0.00    +0.000 HD
ENDBRANCH   1  23
BRANCH  15  25
ATOM     25  C   UNL     1      30.497 -38.398 -25.824  0.00  0.00    +0.010 C 
ATOM     26  C   UNL     1      29.799 -39.558 -25.087  0.00  0.00    -0.049 C 
BRANCH  25  27
ATOM     27  N   UNL     1      30.009 -37.056 -25.429  0.00  0.00    -0.305 N 
ATOM     28  C   UNL     1      28.838 -37.044 -24.551  0.00  0.00    -0.013 C 
ATOM     29  C   UNL     1      29.733 -36.223 -26.605  0.00  0.00    -0.013 C 
ATOM     30  H   UNL     1      30.779 -36.670 -24.882  0.00  0.00    +0.000 HD
ENDBRANCH  25  27
ENDBRANCH  15  25
TORSDOF 3
ENDMDL
MODEL 7
REMARK VINA RESULT:    -6.683      6.645      9.387
REMARK INTER + INTRA:          -7.870
REMARK INTER:                  -7.228
REMARK INTRA:                  -0.642
REMARK UNBOUND:                -0.015
REMARK  Name = cpd195.pdb
REMARK  9 active torsions:
REMARK  status: ('A' for Active; 'I' for Inactive)
REMARK    1  A    between atoms: C_1  and  C_2
REMARK    2  A    between atoms: N_4  and  C_5
REMARK    3  A    between atoms: C_8  and  C_9
REMARK    4  A    between atoms: C_17  and  C_18
REMARK    5  A    between atoms: C_19  and  C_20
REMARK    6  A    between atoms: C_20  and  C_21
REMARK    7  A    between atoms: C_20  and  N_22
REMARK    8  A    between atoms: N_22  and  C_23
REMARK    9  A    between atoms: N_22  and  C_24
REMARK                            x       y       z     vdW  Elec       q    Type
REMARK                         _______ _______ _______ _____ _____    ______ ____
ROOT
ATOM      1  C   UNL     1      29.856 -30.507 -28.754  0.00  0.00    +0.023 C 
ATOM      2  C   UNL     1      29.073 -31.523 -29.604  0.00  0.00    -0.034 C 
ATOM      3  C   UNL     1      29.764 -32.881 -29.627  0.00  0.00    -0.045 C 
ATOM      4  C   UNL     1      31.193 -32.833 -30.278  0.00  0.00    -0.026 C 
ATOM      5  C   UNL     1      30.990 -33.044 -31.804  0.00  0.00    -0.059 C 
ATOM      6  C   UNL     1      31.824 -31.409 -30.091  0.00  0.00    -0.034 C 
ATOM      7  C   UNL     1      33.353 -31.332 -30.253  0.00  0.00    -0.049 C 
ATOM      8  C   UNL     1      34.039 -32.655 -30.558  0.00  0.00    -0.049 C 
ATOM      9  C   UNL     1      33.595 -33.715 -29.556  0.00  0.00    -0.034 C 
ATOM     10  C   UNL     1      32.066 -33.972 -29.599  0.00  0.00    -0.032 C 
ATOM     11  C   UNL     1      31.707 -35.400 -30.063  0.00  0.00    -0.049 C 
ATOM     12  C   UNL     1      32.639 -35.928 -31.149  0.00  0.00    -0.047 C 
ATOM     13  C   UNL     1      34.129 -36.010 -30.748  0.00  0.00    -0.025 C 
ATOM     14  C   UNL     1      34.976 -35.738 -32.013  0.00  0.00    -0.059 C 
ATOM     15  C   UNL     1      34.621 -37.357 -30.109  0.00  0.00    -0.020 C 
ATOM     16  C   UNL     1      34.203 -37.250 -28.646  0.00  0.00    -0.048 C 
ATOM     17  C   UNL     1      34.411 -35.783 -28.291  0.00  0.00    -0.049 C 
ATOM     18  C   UNL     1      34.468 -34.990 -29.620  0.00  0.00    -0.032 C 
ATOM     19  C   UNL     1      31.372 -30.772 -28.765  0.00  0.00    -0.031 C 
ENDROOT
BRANCH   1  23
ATOM     20  C   UNL     1      28.315 -27.096 -29.396  0.00  0.00    +0.012 C 
ATOM     21  C   UNL     1      28.530 -28.414 -28.703  0.00  0.00    +0.210 C 
ATOM     22  O   UNL     1      27.816 -28.787 -27.779  0.00  0.00    -0.276 OA
ATOM     23  N   UNL     1      29.573 -29.152 -29.217  0.00  0.00    -0.313 N 
ATOM     24  H   UNL     1      30.142 -28.756 -29.916  0.00  0.00    +0.000 HD
ENDBRANCH   1  23
BRANCH  15  25
ATOM     25  C   UNL     1      34.297 -38.706 -30.827  0.00  0.00    +0.010 C 
ATOM     26  C   UNL     1      35.603 -39.441 -31.187  0.00  0.00    -0.049 C 
BRANCH  25  27
ATOM     27  N   UNL     1      33.304 -39.552 -30.126  0.00  0.00    -0.305 N 
ATOM     28  C   UNL     1      33.730 -40.925 -29.847  0.00  0.00    -0.013 C 
ATOM     29  C   UNL     1      32.029 -39.586 -30.851  0.00  0.00    -0.013 C 
ATOM     30  H   UNL     1      33.196 -39.099 -29.219  0.00  0.00    +0.000 HD
ENDBRANCH  25  27
ENDBRANCH  15  25
TORSDOF 3
ENDMDL
MODEL 8
REMARK VINA RESULT:    -6.605     19.469     24.461
REMARK INTER + INTRA:          -7.779
REMARK INTER:                  -7.136
REMARK INTRA:                  -0.643
REMARK UNBOUND:                -0.015
REMARK  Name = cpd195.pdb
REMARK  9 active torsions:
REMARK  status: ('A' for Active; 'I' for Inactive)
REMARK    1  A    between atoms: C_1  and  C_2
REMARK    2  A    between atoms: N_4  and  C_5
REMARK    3  A    between atoms: C_8  and  C_9
REMARK    4  A    between atoms: C_17  and  C_18
REMARK    5  A    between atoms: C_19  and  C_20
REMARK    6  A    between atoms: C_20  and  C_21
REMARK    7  A    between atoms: C_20  and  N_22
REMARK    8  A    between atoms: N_22  and  C_23
REMARK    9  A    between atoms: N_22  and  C_24
REMARK                            x       y       z     vdW  Elec       q    Type
REMARK                         _______ _______ _______ _____ _____    ______ ____
ROOT
ATOM      1  C   UNL     1      41.747 -20.439 -35.058  0.00  0.00    +0.023 C 
ATOM      2  C   UNL     1      43.069 -19.986 -34.417  0.00  0.00    -0.034 C 
ATOM      3  C   UNL     1      43.799 -18.978 -35.298  0.00  0.00    -0.045 C 
ATOM      4  C   UNL     1      44.214 -19.568 -36.694  0.00  0.00    -0.026 C 
ATOM      5  C   UNL     1      45.607 -20.227 -36.499  0.00  0.00    -0.059 C 
ATOM      6  C   UNL     1      43.221 -20.708 -37.114  0.00  0.00    -0.034 C 
ATOM      7  C   UNL     1      43.208 -21.060 -38.613  0.00  0.00    -0.049 C 
ATOM      8  C   UNL     1      44.151 -20.239 -39.479  0.00  0.00    -0.049 C 
ATOM      9  C   UNL     1      43.945 -18.753 -39.210  0.00  0.00    -0.034 C 
ATOM     10  C   UNL     1      44.228 -18.369 -37.734  0.00  0.00    -0.032 C 
ATOM     11  C   UNL     1      45.433 -17.416 -37.579  0.00  0.00    -0.049 C 
ATOM     12  C   UNL     1      46.562 -17.716 -38.559  0.00  0.00    -0.047 C 
ATOM     13  C   UNL     1      46.175 -17.617 -40.052  0.00  0.00    -0.025 C 
ATOM     14  C   UNL     1      47.012 -18.659 -40.829  0.00  0.00    -0.059 C 
ATOM     15  C   UNL     1      46.364 -16.220 -40.744  0.00  0.00    -0.020 C 
ATOM     16  C   UNL     1      45.123 -15.432 -40.340  0.00  0.00    -0.048 C 
ATOM     17  C   UNL     1      43.997 -16.457 -40.338  0.00  0.00    -0.049 C 
ATOM     18  C   UNL     1      44.650 -17.859 -40.257  0.00  0.00    -0.032 C 
ATOM     19  C   UNL     1      41.800 -20.424 -36.596  0.00  0.00    -0.031 C 
ENDROOT
BRANCH   1  23
ATOM     20  C   UNL     1      40.416 -23.384 -33.063  0.00  0.00    +0.012 C 
ATOM     21  C   UNL     1      40.557 -21.949 -33.494  0.00  0.00    +0.210 C 
ATOM     22  O   UNL     1      39.987 -21.035 -32.909  0.00  0.00    -0.276 OA
ATOM     23  N   UNL     1      41.393 -21.770 -34.574  0.00  0.00    -0.313 N 
ATOM     24  H   UNL     1      41.761 -22.560 -35.032  0.00  0.00    +0.000 HD
ENDBRANCH   1  23
BRANCH  15  25
ATOM     25  C   UNL     1      47.733 -15.480 -40.608  0.00  0.00    +0.010 C 
ATOM     26  C   UNL     1      48.356 -15.258 -42.000  0.00  0.00    -0.049 C 
BRANCH  25  27
ATOM     27  N   UNL     1      47.692 -14.261 -39.767  0.00  0.00    -0.305 N 
ATOM     28  C   UNL     1      48.280 -13.062 -40.366  0.00  0.00    -0.013 C 
ATOM     29  C   UNL     1      48.313 -14.497 -38.459  0.00  0.00    -0.013 C 
ATOM     30  H   UNL     1      46.695 -14.069 -39.668  0.00  0.00    +0.000 HD
ENDBRANCH  25  27
ENDBRANCH  15  25
TORSDOF 3
ENDMDL
MODEL 9
REMARK VINA RESULT:    -6.577     20.163     25.811
REMARK INTER + INTRA:          -7.746
REMARK INTER:                  -7.117
REMARK INTRA:                  -0.629
REMARK UNBOUND:                -0.015
REMARK  Name = cpd195.pdb
REMARK  9 active torsions:
REMARK  status: ('A' for Active; 'I' for Inactive)
REMARK    1  A    between atoms: C_1  and  C_2
REMARK    2  A    between atoms: N_4  and  C_5
REMARK    3  A    between atoms: C_8  and  C_9
REMARK    4  A    between atoms: C_17  and  C_18
REMARK    5  A    between atoms: C_19  and  C_20
REMARK    6  A    between atoms: C_20  and  C_21
REMARK    7  A    between atoms: C_20  and  N_22
REMARK    8  A    between atoms: N_22  and  C_23
REMARK    9  A    between atoms: N_22  and  C_24
REMARK                            x       y       z     vdW  Elec       q    Type
REMARK                         _______ _______ _______ _____ _____    ______ ____
ROOT
ATOM      1  C   UNL     1      47.231 -16.045 -40.490  0.00  0.00    +0.023 C 
ATOM      2  C   UNL     1      45.817 -15.531 -40.806  0.00  0.00    -0.034 C 
ATOM      3  C   UNL     1      44.761 -16.263 -39.986  0.00  0.00    -0.045 C 
ATOM      4  C   UNL     1      44.703 -17.803 -40.292  0.00  0.00    -0.026 C 
ATOM      5  C   UNL     1      43.725 -17.979 -41.487  0.00  0.00    -0.059 C 
ATOM      6  C   UNL     1      46.109 -18.311 -40.769  0.00  0.00    -0.034 C 
ATOM      7  C   UNL     1      46.337 -19.831 -40.665  0.00  0.00    -0.049 C 
ATOM      8  C   UNL     1      45.169 -20.623 -40.099  0.00  0.00    -0.049 C 
ATOM      9  C   UNL     1      44.700 -19.997 -38.790  0.00  0.00    -0.034 C 
ATOM     10  C   UNL     1      44.216 -18.534 -38.970  0.00  0.00    -0.032 C 
ATOM     11  C   UNL     1      42.711 -18.356 -38.671  0.00  0.00    -0.049 C 
ATOM     12  C   UNL     1      41.866 -19.542 -39.126  0.00  0.00    -0.047 C 
ATOM     13  C   UNL     1      42.236 -20.895 -38.479  0.00  0.00    -0.025 C 
ATOM     14  C   UNL     1      41.967 -22.007 -39.518  0.00  0.00    -0.059 C 
ATOM     15  C   UNL     1      41.490 -21.274 -37.150  0.00  0.00    -0.020 C 
ATOM     16  C   UNL     1      42.249 -20.516 -36.067  0.00  0.00    -0.048 C 
ATOM     17  C   UNL     1      43.707 -20.571 -36.504  0.00  0.00    -0.049 C 
ATOM     18  C   UNL     1      43.723 -20.911 -38.015  0.00  0.00    -0.032 C 
ATOM     19  C   UNL     1      47.243 -17.529 -40.083  0.00  0.00    -0.031 C 
ENDROOT
BRANCH   1  23
ATOM     20  C   UNL     1      49.543 -14.557 -43.110  0.00  0.00    +0.012 C 
ATOM     21  C   UNL     1      48.801 -14.649 -41.804  0.00  0.00    +0.210 C 
ATOM     22  O   UNL     1      48.813 -13.737 -40.984  0.00  0.00    -0.276 OA
ATOM     23  N   UNL     1      48.105 -15.826 -41.638  0.00  0.00    -0.313 N 
ATOM     24  H   UNL     1      48.200 -16.537 -42.312  0.00  0.00    +0.000 HD
ENDBRANCH   1  23
BRANCH  15  25
ATOM     25  C   UNL     1      39.932 -21.188 -37.098  0.00  0.00    +0.010 C 
ATOM     26  C   UNL     1      39.339 -22.547 -36.675  0.00  0.00    -0.049 C 
BRANCH  25  27
ATOM     27  N   UNL     1      39.405 -20.037 -36.328  0.00  0.00    -0.305 N 
ATOM     28  C   UNL     1      38.596 -20.380 -35.157  0.00  0.00    -0.013 C 
ATOM     29  C   UNL     1      38.641 -19.127 -37.188  0.00  0.00    -0.013 C 
ATOM     30  H   UNL     1      40.245 -19.581 -35.969  0.00  0.00    +0.000 HD
ENDBRANCH  25  27
ENDBRANCH  15  25
TORSDOF 3
ENDMDL
MODEL 10
REMARK VINA RESULT:    -6.567     23.235     25.937
REMARK INTER + INTRA:          -7.734
REMARK INTER:                  -7.083
REMARK INTRA:                  -0.651
REMARK UNBOUND:                -0.015
REMARK  Name = cpd195.pdb
REMARK  9 active torsions:
REMARK  status: ('A' for Active; 'I' for Inactive)
REMARK    1  A    between atoms: C_1  and  C_2
REMARK    2  A    between atoms: N_4  and  C_5
REMARK    3  A    between atoms: C_8  and  C_9
REMARK    4  A    between atoms: C_17  and  C_18
REMARK    5  A    between atoms: C_19  and  C_20
REMARK    6  A    between atoms: C_20  and  C_21
REMARK    7  A    between atoms: C_20  and  N_22
REMARK    8  A    between atoms: N_22  and  C_23
REMARK    9  A    between atoms: N_22  and  C_24
REMARK                            x       y       z     vdW  Elec       q    Type
REMARK                         _______ _______ _______ _____ _____    ______ ____
ROOT
ATOM      1  C   UNL     1      47.032 -21.044 -40.750  0.00  0.00    +0.023 C 
ATOM      2  C   UNL     1      47.029 -19.848 -41.717  0.00  0.00    -0.034 C 
ATOM      3  C   UNL     1      46.276 -18.660 -41.131  0.00  0.00    -0.045 C 
ATOM      4  C   UNL     1      44.757 -18.963 -40.866  0.00  0.00    -0.026 C 
ATOM      5  C   UNL     1      44.005 -18.637 -42.186  0.00  0.00    -0.059 C 
ATOM      6  C   UNL     1      44.554 -20.494 -40.587  0.00  0.00    -0.034 C 
ATOM      7  C   UNL     1      43.243 -20.872 -39.873  0.00  0.00    -0.049 C 
ATOM      8  C   UNL     1      42.335 -19.703 -39.525  0.00  0.00    -0.049 C 
ATOM      9  C   UNL     1      43.129 -18.628 -38.791  0.00  0.00    -0.034 C 
ATOM     10  C   UNL     1      44.296 -18.063 -39.643  0.00  0.00    -0.032 C 
ATOM     11  C   UNL     1      44.120 -16.569 -39.992  0.00  0.00    -0.049 C 
ATOM     12  C   UNL     1      42.669 -16.187 -40.267  0.00  0.00    -0.047 C 
ATOM     13  C   UNL     1      41.695 -16.431 -39.093  0.00  0.00    -0.025 C 
ATOM     14  C   UNL     1      40.318 -16.803 -39.689  0.00  0.00    -0.059 C 
ATOM     15  C   UNL     1      41.489 -15.247 -38.082  0.00  0.00    -0.020 C 
ATOM     16  C   UNL     1      42.688 -15.342 -37.146  0.00  0.00    -0.048 C 
ATOM     17  C   UNL     1      42.928 -16.837 -36.975  0.00  0.00    -0.049 C 
ATOM     18  C   UNL     1      42.218 -17.555 -38.150  0.00  0.00    -0.032 C 
ATOM     19  C   UNL     1      45.774 -21.093 -39.865  0.00  0.00    -0.031 C 
ENDROOT
BRANCH   1  23
ATOM     20  C   UNL     1      48.353 -24.171 -42.454  0.00  0.00    +0.012 C 
ATOM     21  C   UNL     1      48.360 -22.989 -41.522  0.00  0.00    +0.210 C 
ATOM     22  O   UNL     1      49.349 -22.685 -40.864  0.00  0.00    -0.276 OA
ATOM     23  N   UNL     1      47.175 -22.288 -41.501  0.00  0.00    -0.313 N 
ATOM     24  H   UNL     1      46.404 -22.634 -42.006  0.00  0.00    +0.000 HD
ENDBRANCH   1  23
BRANCH  15  25
ATOM     25  C   UNL     1      41.148 -13.825 -38.632  0.00  0.00    +0.010 C 
ATOM     26  C   UNL     1      39.776 -13.366 -38.100  0.00  0.00    -0.049 C 
BRANCH  25  27
ATOM     27  N   UNL     1      42.225 -12.824 -38.458  0.00  0.00    -0.305 N 
ATOM     28  C   UNL     1      41.837 -11.594 -37.765  0.00  0.00    -0.013 C 
ATOM     29  C   UNL     1      42.840 -12.475 -39.744  0.00  0.00    -0.013 C 
ATOM     30  H   UNL     1      42.896 -13.293 -37.848  0.00  0.00    +0.000 HD
ENDBRANCH  25  27
ENDBRANCH  15  25
TORSDOF 3
ENDMDL
MODEL 11
REMARK VINA RESULT:    -6.533     19.567     24.472
REMARK INTER + INTRA:          -7.693
REMARK INTER:                  -7.059
REMARK INTRA:                  -0.634
REMARK UNBOUND:                -0.015
REMARK  Name = cpd195.pdb
REMARK  9 active torsions:
REMARK  status: ('A' for Active; 'I' for Inactive)
REMARK    1  A    between atoms: C_1  and  C_2
REMARK    2  A    between atoms: N_4  and  C_5
REMARK    3  A    between atoms: C_8  and  C_9
REMARK    4  A    between atoms: C_17  and  C_18
REMARK    5  A    between atoms: C_19  and  C_20
REMARK    6  A    between atoms: C_20  and  C_21
REMARK    7  A    between atoms: C_20  and  N_22
REMARK    8  A    between atoms: N_22  and  C_23
REMARK    9  A    between atoms: N_22  and  C_24
REMARK                            x       y       z     vdW  Elec       q    Type
REMARK                         _______ _______ _______ _____ _____    ______ ____
ROOT
ATOM      1  C   UNL     1      41.021 -20.976 -36.740  0.00  0.00    +0.023 C 
ATOM      2  C   UNL     1      40.557 -19.525 -36.949  0.00  0.00    -0.034 C 
ATOM      3  C   UNL     1      41.600 -18.709 -37.704  0.00  0.00    -0.045 C 
ATOM      4  C   UNL     1      42.962 -18.585 -36.930  0.00  0.00    -0.026 C 
ATOM      5  C   UNL     1      42.834 -17.343 -36.006  0.00  0.00    -0.059 C 
ATOM      6  C   UNL     1      43.169 -19.832 -35.999  0.00  0.00    -0.034 C 
ATOM      7  C   UNL     1      44.617 -20.087 -35.541  0.00  0.00    -0.049 C 
ATOM      8  C   UNL     1      45.646 -19.100 -36.069  0.00  0.00    -0.049 C 
ATOM      9  C   UNL     1      45.511 -18.966 -37.582  0.00  0.00    -0.034 C 
ATOM     10  C   UNL     1      44.115 -18.445 -38.012  0.00  0.00    -0.032 C 
ATOM     11  C   UNL     1      44.172 -17.061 -38.694  0.00  0.00    -0.049 C 
ATOM     12  C   UNL     1      45.219 -16.135 -38.083  0.00  0.00    -0.047 C 
ATOM     13  C   UNL     1      46.671 -16.662 -38.144  0.00  0.00    -0.025 C 
ATOM     14  C   UNL     1      47.414 -16.149 -36.889  0.00  0.00    -0.059 C 
ATOM     15  C   UNL     1      47.516 -16.270 -39.409  0.00  0.00    -0.020 C 
ATOM     16  C   UNL     1      47.078 -17.269 -40.474  0.00  0.00    -0.048 C 
ATOM     17  C   UNL     1      46.866 -18.574 -39.717  0.00  0.00    -0.049 C 
ATOM     18  C   UNL     1      46.706 -18.217 -38.218  0.00  0.00    -0.032 C 
ATOM     19  C   UNL     1      42.551 -21.096 -36.621  0.00  0.00    -0.031 C 
ENDROOT
BRANCH   1  23
ATOM     20  C   UNL     1      39.042 -23.124 -34.312  0.00  0.00    +0.012 C 
ATOM     21  C   UNL     1      39.768 -22.774 -35.583  0.00  0.00    +0.210 C 
ATOM     22  O   UNL     1      39.788 -23.529 -36.549  0.00  0.00    -0.276 OA
ATOM     23  N   UNL     1      40.374 -21.537 -35.558  0.00  0.00    -0.313 N 
ATOM     24  H   UNL     1      40.370 -21.019 -34.722  0.00  0.00    +0.000 HD
ENDBRANCH   1  23
BRANCH  15  25
ATOM     25  C   UNL     1      47.585 -14.773 -39.847  0.00  0.00    +0.010 C 
ATOM     26  C   UNL     1      49.006 -14.219 -39.620  0.00  0.00    -0.049 C 
BRANCH  25  27
ATOM     27  N   UNL     1      47.045 -14.502 -41.199  0.00  0.00    -0.305 N 
ATOM     28  C   UNL     1      47.911 -13.715 -42.079  0.00  0.00    -0.013 C 
ATOM     29  C   UNL     1      45.727 -13.860 -41.126  0.00  0.00    -0.013 C 
ATOM     30  H   UNL     1      46.976 -15.428 -41.622  0.00  0.00    +0.000 HD
ENDBRANCH  25  27
ENDBRANCH  15  25
TORSDOF 3
ENDMDL
MODEL 12
REMARK VINA RESULT:    -6.508     26.739     30.643
REMARK INTER + INTRA:          -7.664
REMARK INTER:                  -7.286
REMARK INTRA:                  -0.378
REMARK UNBOUND:                -0.015
REMARK  Name = cpd195.pdb
REMARK  9 active torsions:
REMARK  status: ('A' for Active; 'I' for Inactive)
REMARK    1  A    between atoms: C_1  and  C_2
REMARK    2  A    between atoms: N_4  and  C_5
REMARK    3  A    between atoms: C_8  and  C_9
REMARK    4  A    between atoms: C_17  and  C_18
REMARK    5  A    between atoms: C_19  and  C_20
REMARK    6  A    between atoms: C_20  and  C_21
REMARK    7  A    between atoms: C_20  and  N_22
REMARK    8  A    between atoms: N_22  and  C_23
REMARK    9  A    between atoms: N_22  and  C_24
REMARK                            x       y       z     vdW  Elec       q    Type
REMARK                         _______ _______ _______ _____ _____    ______ ____
ROOT
ATOM      1  C   UNL     1      46.577 -27.992 -56.961  0.00  0.00    +0.023 C 
ATOM      2  C   UNL     1      46.076 -28.957 -58.050  0.00  0.00    -0.034 C 
ATOM      3  C   UNL     1      45.648 -30.294 -57.456  0.00  0.00    -0.045 C 
ATOM      4  C   UNL     1      46.827 -31.061 -56.755  0.00  0.00    -0.026 C 
ATOM      5  C   UNL     1      47.520 -31.908 -57.858  0.00  0.00    -0.059 C 
ATOM      6  C   UNL     1      47.893 -30.040 -56.221  0.00  0.00    -0.034 C 
ATOM      7  C   UNL     1      48.845 -30.579 -55.137  0.00  0.00    -0.049 C 
ATOM      8  C   UNL     1      48.607 -32.023 -54.726  0.00  0.00    -0.049 C 
ATOM      9  C   UNL     1      47.134 -32.233 -54.389  0.00  0.00    -0.034 C 
ATOM     10  C   UNL     1      46.200 -31.939 -55.592  0.00  0.00    -0.032 C 
ATOM     11  C   UNL     1      45.443 -33.191 -56.087  0.00  0.00    -0.049 C 
ATOM     12  C   UNL     1      46.281 -34.464 -56.015  0.00  0.00    -0.047 C 
ATOM     13  C   UNL     1      46.777 -34.841 -54.601  0.00  0.00    -0.025 C 
ATOM     14  C   UNL     1      48.153 -35.530 -54.749  0.00  0.00    -0.059 C 
ATOM     15  C   UNL     1      45.848 -35.777 -53.748  0.00  0.00    -0.020 C 
ATOM     16  C   UNL     1      44.804 -34.833 -53.162  0.00  0.00    -0.048 C 
ATOM     17  C   UNL     1      45.569 -33.553 -52.855  0.00  0.00    -0.049 C 
ATOM     18  C   UNL     1      46.877 -33.586 -53.684  0.00  0.00    -0.032 C 
ATOM     19  C   UNL     1      47.227 -28.726 -55.775  0.00  0.00    -0.031 C 
ENDROOT
BRANCH   1  23
ATOM     20  C   UNL     1      48.179 -25.041 -58.736  0.00  0.00    +0.012 C 
ATOM     21  C   UNL     1      47.089 -25.834 -58.066  0.00  0.00    +0.210 C 
ATOM     22  O   UNL     1      45.930 -25.436 -58.019  0.00  0.00    -0.276 OA
ATOM     23  N   UNL     1      47.513 -27.035 -57.542  0.00  0.00    -0.313 N 
ATOM     24  H   UNL     1      48.473 -27.253 -57.559  0.00  0.00    +0.000 HD
ENDBRANCH   1  23
BRANCH  15  25
ATOM     25  C   UNL     1      45.312 -37.101 -54.380  0.00  0.00    +0.010 C 
ATOM     26  C   UNL     1      44.941 -38.105 -53.271  0.00  0.00    -0.049 C 
BRANCH  25  27
ATOM     27  N   UNL     1      44.254 -36.912 -55.398  0.00  0.00    -0.305 N 
ATOM     28  C   UNL     1      42.904 -37.299 -54.984  0.00  0.00    -0.013 C 
ATOM     29  C   UNL     1      44.588 -37.605 -56.647  0.00  0.00    -0.013 C 
ATOM     30  H   UNL     1      44.229 -35.901 -55.537  0.00  0.00    +0.000 HD
ENDBRANCH  25  27
ENDBRANCH  15  25
TORSDOF 3
ENDMDL
MODEL 13
REMARK VINA RESULT:    -6.476      7.722     10.446
REMARK INTER + INTRA:          -7.626
REMARK INTER:                  -6.974
REMARK INTRA:                  -0.653
REMARK UNBOUND:                -0.015
REMARK  Name = cpd195.pdb
REMARK  9 active torsions:
REMARK  status: ('A' for Active; 'I' for Inactive)
REMARK    1  A    between atoms: C_1  and  C_2
REMARK    2  A    between atoms: N_4  and  C_5
REMARK    3  A    between atoms: C_8  and  C_9
REMARK    4  A    between atoms: C_17  and  C_18
REMARK    5  A    between atoms: C_19  and  C_20
REMARK    6  A    between atoms: C_20  and  C_21
REMARK    7  A    between atoms: C_20  and  N_22
REMARK    8  A    between atoms: N_22  and  C_23
REMARK    9  A    between atoms: N_22  and  C_24
REMARK                            x       y       z     vdW  Elec       q    Type
REMARK                         _______ _______ _______ _____ _____    ______ ____
ROOT
ATOM      1  C   UNL     1      35.436 -34.967 -31.762  0.00  0.00    +0.023 C 
ATOM      2  C   UNL     1      34.288 -35.668 -32.507  0.00  0.00    -0.034 C 
ATOM      3  C   UNL     1      33.054 -34.777 -32.595  0.00  0.00    -0.045 C 
ATOM      4  C   UNL     1      32.455 -34.415 -31.188  0.00  0.00    -0.026 C 
ATOM      5  C   UNL     1      31.461 -35.552 -30.825  0.00  0.00    -0.059 C 
ATOM      6  C   UNL     1      33.587 -34.429 -30.101  0.00  0.00    -0.034 C 
ATOM      7  C   UNL     1      33.269 -33.666 -28.801  0.00  0.00    -0.049 C 
ATOM      8  C   UNL     1      31.906 -32.994 -28.761  0.00  0.00    -0.049 C 
ATOM      9  C   UNL     1      31.705 -32.150 -30.015  0.00  0.00    -0.034 C 
ATOM     10  C   UNL     1      31.762 -32.993 -31.316  0.00  0.00    -0.032 C 
ATOM     11  C   UNL     1      30.420 -33.014 -32.080  0.00  0.00    -0.049 C 
ATOM     12  C   UNL     1      29.206 -33.047 -31.156  0.00  0.00    -0.047 C 
ATOM     13  C   UNL     1      29.088 -31.846 -30.190  0.00  0.00    -0.025 C 
ATOM     14  C   UNL     1      28.431 -32.351 -28.885  0.00  0.00    -0.059 C 
ATOM     15  C   UNL     1      28.276 -30.602 -30.699  0.00  0.00    -0.020 C 
ATOM     16  C   UNL     1      29.267 -29.841 -31.571  0.00  0.00    -0.048 C 
ATOM     17  C   UNL     1      30.607 -30.001 -30.864  0.00  0.00    -0.049 C 
ATOM     18  C   UNL     1      30.481 -31.211 -29.905  0.00  0.00    -0.032 C 
ATOM     19  C   UNL     1      34.933 -33.979 -30.695  0.00  0.00    -0.031 C 
ENDROOT
BRANCH   1  23
ATOM     20  C   UNL     1      38.427 -37.003 -30.606  0.00  0.00    +0.012 C 
ATOM     21  C   UNL     1      37.685 -35.814 -31.154  0.00  0.00    +0.210 C 
ATOM     22  O   UNL     1      38.267 -34.820 -31.572  0.00  0.00    -0.276 OA
ATOM     23  N   UNL     1      36.315 -35.964 -31.158  0.00  0.00    -0.313 N 
ATOM     24  H   UNL     1      35.920 -36.764 -30.743  0.00  0.00    +0.000 HD
ENDBRANCH   1  23
BRANCH  15  25
ATOM     25  C   UNL     1      26.848 -30.815 -31.295  0.00  0.00    +0.010 C 
ATOM     26  C   UNL     1      25.797 -30.105 -30.418  0.00  0.00    -0.049 C 
BRANCH  25  27
ATOM     27  N   UNL     1      26.731 -30.508 -32.739  0.00  0.00    -0.305 N 
ATOM     28  C   UNL     1      25.639 -29.605 -33.106  0.00  0.00    -0.013 C 
ATOM     29  C   UNL     1      26.625 -31.735 -33.536  0.00  0.00    -0.013 C 
ATOM     30  H   UNL     1      27.595 -30.009 -32.951  0.00  0.00    +0.000 HD
ENDBRANCH  25  27
ENDBRANCH  15  25
TORSDOF 3
ENDMDL
MODEL 14
REMARK VINA RESULT:    -6.473     23.148     25.086
REMARK INTER + INTRA:          -7.623
REMARK INTER:                  -7.091
REMARK INTRA:                  -0.533
REMARK UNBOUND:                -0.015
REMARK  Name = cpd195.pdb
REMARK  9 active torsions:
REMARK  status: ('A' for Active; 'I' for Inactive)
REMARK    1  A    between atoms: C_1  and  C_2
REMARK    2  A    between atoms: N_4  and  C_5
REMARK    3  A    between atoms: C_8  and  C_9
REMARK    4  A    between atoms: C_17  and  C_18
REMARK    5  A    between atoms: C_19  and  C_20
REMARK    6  A    between atoms: C_20  and  C_21
REMARK    7  A    between atoms: C_20  and  N_22
REMARK    8  A    between atoms: N_22  and  C_23
REMARK    9  A    between atoms: N_22  and  C_24
REMARK                            x       y       z     vdW  Elec       q    Type
REMARK                         _______ _______ _______ _____ _____    ______ ____
ROOT
ATOM      1  C   UNL     1      44.359 -15.752 -34.277  0.00  0.00    +0.023 C 
ATOM      2  C   UNL     1      44.856 -17.163 -33.921  0.00  0.00    -0.034 C 
ATOM      3  C   UNL     1      45.318 -17.922 -35.159  0.00  0.00    -0.045 C 
ATOM      4  C   UNL     1      44.165 -18.156 -36.202  0.00  0.00    -0.026 C 
ATOM      5  C   UNL     1      43.466 -19.483 -35.796  0.00  0.00    -0.059 C 
ATOM      6  C   UNL     1      43.093 -17.017 -36.085  0.00  0.00    -0.034 C 
ATOM      7  C   UNL     1      42.170 -16.844 -37.306  0.00  0.00    -0.049 C 
ATOM      8  C   UNL     1      42.440 -17.796 -38.461  0.00  0.00    -0.049 C 
ATOM      9  C   UNL     1      43.922 -17.771 -38.821  0.00  0.00    -0.034 C 
ATOM     10  C   UNL     1      44.828 -18.213 -37.642  0.00  0.00    -0.032 C 
ATOM     11  C   UNL     1      45.596 -19.521 -37.931  0.00  0.00    -0.049 C 
ATOM     12  C   UNL     1      44.782 -20.528 -38.736  0.00  0.00    -0.047 C 
ATOM     13  C   UNL     1      44.319 -20.033 -40.124  0.00  0.00    -0.025 C 
ATOM     14  C   UNL     1      42.952 -20.688 -40.430  0.00  0.00    -0.059 C 
ATOM     15  C   UNL     1      45.279 -20.313 -41.335  0.00  0.00    -0.020 C 
ATOM     16  C   UNL     1      46.318 -19.200 -41.252  0.00  0.00    -0.048 C 
ATOM     17  C   UNL     1      45.537 -17.975 -40.794  0.00  0.00    -0.049 C 
ATOM     18  C   UNL     1      44.215 -18.479 -40.164  0.00  0.00    -0.032 C 
ATOM     19  C   UNL     1      43.744 -15.681 -35.686  0.00  0.00    -0.031 C 
ENDROOT
BRANCH   1  23
ATOM     20  C   UNL     1      42.409 -13.756 -31.701  0.00  0.00    +0.012 C 
ATOM     21  C   UNL     1      43.384 -14.000 -32.822  0.00  0.00    +0.210 C 
ATOM     22  O   UNL     1      44.106 -13.111 -33.260  0.00  0.00    -0.276 OA
ATOM     23  N   UNL     1      43.396 -15.299 -33.278  0.00  0.00    -0.313 N 
ATOM     24  H   UNL     1      42.739 -15.939 -32.921  0.00  0.00    +0.000 HD
ENDBRANCH   1  23
BRANCH  15  25
ATOM     25  C   UNL     1      45.825 -21.759 -41.557  0.00  0.00    +0.010 C 
ATOM     26  C   UNL     1      45.241 -22.352 -42.855  0.00  0.00    -0.049 C 
BRANCH  25  27
ATOM     27  N   UNL     1      47.297 -21.884 -41.449  0.00  0.00    -0.305 N 
ATOM     28  C   UNL     1      47.914 -22.865 -42.343  0.00  0.00    -0.013 C 
ATOM     29  C   UNL     1      47.706 -22.170 -40.069  0.00  0.00    -0.013 C 
ATOM     30  H   UNL     1      47.640 -20.971 -41.749  0.00  0.00    +0.000 HD
ENDBRANCH  25  27
ENDBRANCH  15  25
TORSDOF 3
ENDMDL
MODEL 15
REMARK VINA RESULT:    -6.437     23.687     27.020
REMARK INTER + INTRA:          -7.580
REMARK INTER:                  -6.931
REMARK INTRA:                  -0.649
REMARK UNBOUND:                -0.015
REMARK  Name = cpd195.pdb
REMARK  9 active torsions:
REMARK  status: ('A' for Active; 'I' for Inactive)
REMARK    1  A    between atoms: C_1  and  C_2
REMARK    2  A    between atoms: N_4  and  C_5
REMARK    3  A    between atoms: C_8  and  C_9
REMARK    4  A    between atoms: C_17  and  C_18
REMARK    5  A    between atoms: C_19  and  C_20
REMARK    6  A    between atoms: C_20  and  C_21
REMARK    7  A    between atoms: C_20  and  N_22
REMARK    8  A    between atoms: N_22  and  C_23
REMARK    9  A    between atoms: N_22  and  C_24
REMARK                            x       y       z     vdW  Elec       q    Type
REMARK                         _______ _______ _______ _____ _____    ______ ____
ROOT
ATOM      1  C   UNL     1      45.562 -20.816 -41.214  0.00  0.00    +0.023 C 
ATOM      2  C   UNL     1      44.781 -20.821 -39.889  0.00  0.00    -0.034 C 
ATOM      3  C   UNL     1      43.915 -19.574 -39.747  0.00  0.00    -0.045 C 
ATOM      4  C   UNL     1      44.752 -18.245 -39.713  0.00  0.00    -0.026 C 
ATOM      5  C   UNL     1      45.135 -18.002 -38.226  0.00  0.00    -0.059 C 
ATOM      6  C   UNL     1      46.092 -18.430 -40.508  0.00  0.00    -0.034 C 
ATOM      7  C   UNL     1      46.787 -17.130 -40.953  0.00  0.00    -0.049 C 
ATOM      8  C   UNL     1      46.066 -15.847 -40.569  0.00  0.00    -0.049 C 
ATOM      9  C   UNL     1      44.605 -15.922 -40.998  0.00  0.00    -0.034 C 
ATOM     10  C   UNL     1      43.845 -17.094 -40.322  0.00  0.00    -0.032 C 
ATOM     11  C   UNL     1      42.717 -16.617 -39.382  0.00  0.00    -0.049 C 
ATOM     12  C   UNL     1      43.072 -15.346 -38.618  0.00  0.00    -0.047 C 
ATOM     13  C   UNL     1      43.387 -14.118 -39.503  0.00  0.00    -0.025 C 
ATOM     14  C   UNL     1      44.450 -13.267 -38.771  0.00  0.00    -0.059 C 
ATOM     15  C   UNL     1      42.182 -13.184 -39.878  0.00  0.00    -0.020 C 
ATOM     16  C   UNL     1      41.511 -13.892 -41.049  0.00  0.00    -0.048 C 
ATOM     17  C   UNL     1      42.660 -14.493 -41.848  0.00  0.00    -0.049 C 
ATOM     18  C   UNL     1      43.892 -14.552 -40.911  0.00  0.00    -0.032 C 
ATOM     19  C   UNL     1      45.905 -19.395 -41.693  0.00  0.00    -0.031 C 
ENDROOT
BRANCH   1  23
ATOM     20  C   UNL     1      48.211 -23.532 -41.402  0.00  0.00    +0.012 C 
ATOM     21  C   UNL     1      46.958 -22.785 -41.775  0.00  0.00    +0.210 C 
ATOM     22  O   UNL     1      46.174 -23.210 -42.617  0.00  0.00    -0.276 OA
ATOM     23  N   UNL     1      46.777 -21.613 -41.075  0.00  0.00    -0.313 N 
ATOM     24  H   UNL     1      47.485 -21.305 -40.464  0.00  0.00    +0.000 HD
ENDBRANCH   1  23
BRANCH  15  25
ATOM     25  C   UNL     1      41.239 -12.664 -38.747  0.00  0.00    +0.010 C 
ATOM     26  C   UNL     1      41.263 -11.123 -38.703  0.00  0.00    -0.049 C 
BRANCH  25  27
ATOM     27  N   UNL     1      39.876 -13.243 -38.768  0.00  0.00    -0.305 N 
ATOM     28  C   UNL     1      38.781 -12.276 -38.859  0.00  0.00    -0.013 C 
ATOM     29  C   UNL     1      39.650 -14.114 -37.609  0.00  0.00    -0.013 C 
ATOM     30  H   UNL     1      39.854 -13.779 -39.636  0.00  0.00    +0.000 HD
ENDBRANCH  25  27
ENDBRANCH  15  25
TORSDOF 3
ENDMDL
MODEL 16
REMARK VINA RESULT:    -6.317     19.944     25.875
REMARK INTER + INTRA:          -7.439
REMARK INTER:                  -6.827
REMARK INTRA:                  -0.612
REMARK UNBOUND:                -0.015
REMARK  Name = cpd195.pdb
REMARK  9 active torsions:
REMARK  status: ('A' for Active; 'I' for Inactive)
REMARK    1  A    between atoms: C_1  and  C_2
REMARK    2  A    between atoms: N_4  and  C_5
REMARK    3  A    between atoms: C_8  and  C_9
REMARK    4  A    between atoms: C_17  and  C_18
REMARK    5  A    between atoms: C_19  and  C_20
REMARK    6  A    between atoms: C_20  and  C_21
REMARK    7  A    between atoms: C_20  and  N_22
REMARK    8  A    between atoms: N_22  and  C_23
REMARK    9  A    between atoms: N_22  and  C_24
REMARK                            x       y       z     vdW  Elec       q    Type
REMARK                         _______ _______ _______ _____ _____    ______ ____
ROOT
ATOM      1  C   UNL     1      46.963 -16.068 -40.630  0.00  0.00    +0.023 C 
ATOM      2  C   UNL     1      46.995 -17.598 -40.781  0.00  0.00    -0.034 C 
ATOM      3  C   UNL     1      45.920 -18.265 -39.931  0.00  0.00    -0.045 C 
ATOM      4  C   UNL     1      46.107 -18.011 -38.391  0.00  0.00    -0.026 C 
ATOM      5  C   UNL     1      47.047 -19.133 -37.870  0.00  0.00    -0.059 C 
ATOM      6  C   UNL     1      46.845 -16.646 -38.156  0.00  0.00    -0.034 C 
ATOM      7  C   UNL     1      46.697 -16.044 -36.746  0.00  0.00    -0.049 C 
ATOM      8  C   UNL     1      45.841 -16.853 -35.784  0.00  0.00    -0.049 C 
ATOM      9  C   UNL     1      44.504 -17.192 -36.435  0.00  0.00    -0.034 C 
ATOM     10  C   UNL     1      44.667 -18.039 -37.725  0.00  0.00    -0.032 C 
ATOM     11  C   UNL     1      44.060 -19.453 -37.598  0.00  0.00    -0.049 C 
ATOM     12  C   UNL     1      44.244 -20.062 -36.212  0.00  0.00    -0.047 C 
ATOM     13  C   UNL     1      43.607 -19.258 -35.055  0.00  0.00    -0.025 C 
ATOM     14  C   UNL     1      44.490 -19.451 -33.801  0.00  0.00    -0.059 C 
ATOM     15  C   UNL     1      42.126 -19.615 -34.673  0.00  0.00    -0.020 C 
ATOM     16  C   UNL     1      41.285 -18.862 -35.698  0.00  0.00    -0.048 C 
ATOM     17  C   UNL     1      42.024 -17.549 -35.917  0.00  0.00    -0.049 C 
ATOM     18  C   UNL     1      43.478 -17.749 -35.420  0.00  0.00    -0.032 C 
ATOM     19  C   UNL     1      46.474 -15.620 -39.241  0.00  0.00    -0.031 C 
ENDROOT
BRANCH   1  23
ATOM     20  C   UNL     1      49.879 -13.981 -41.880  0.00  0.00    +0.012 C 
ATOM     21  C   UNL     1      48.445 -14.320 -41.573  0.00  0.00    +0.210 C 
ATOM     22  O   UNL     1      47.518 -13.593 -41.912  0.00  0.00    -0.276 OA
ATOM     23  N   UNL     1      48.285 -15.515 -40.907  0.00  0.00    -0.313 N 
ATOM     24  H   UNL     1      49.083 -16.009 -40.610  0.00  0.00    +0.000 HD
ENDBRANCH   1  23
BRANCH  15  25
ATOM     25  C   UNL     1      41.742 -21.107 -34.419  0.00  0.00    +0.010 C 
ATOM     26  C   UNL     1      41.368 -21.312 -32.937  0.00  0.00    -0.049 C 
BRANCH  25  27
ATOM     27  N   UNL     1      40.750 -21.657 -35.371  0.00  0.00    -0.305 N 
ATOM     28  C   UNL     1      39.695 -22.480 -34.777  0.00  0.00    -0.013 C 
ATOM     29  C   UNL     1      41.406 -22.419 -36.440  0.00  0.00    -0.013 C 
ATOM     30  H   UNL     1      40.287 -20.828 -35.745  0.00  0.00    +0.000 HD
ENDBRANCH  25  27
ENDBRANCH  15  25
TORSDOF 3
ENDMDL
MODEL 17
REMARK VINA RESULT:    -6.293     20.487     22.856
REMARK INTER + INTRA:          -7.411
REMARK INTER:                  -6.768
REMARK INTRA:                  -0.643
REMARK UNBOUND:                -0.015
REMARK  Name = cpd195.pdb
REMARK  9 active torsions:
REMARK  status: ('A' for Active; 'I' for Inactive)
REMARK    1  A    between atoms: C_1  and  C_2
REMARK    2  A    between atoms: N_4  and  C_5
REMARK    3  A    between atoms: C_8  and  C_9
REMARK    4  A    between atoms: C_17  and  C_18
REMARK    5  A    between atoms: C_19  and  C_20
REMARK    6  A    between atoms: C_20  and  C_21
REMARK    7  A    between atoms: C_20  and  N_22
REMARK    8  A    between atoms: N_22  and  C_23
REMARK    9  A    between atoms: N_22  and  C_24
REMARK                            x       y       z     vdW  Elec       q    Type
REMARK                         _______ _______ _______ _____ _____    ______ ____
ROOT
ATOM      1  C   UNL     1      43.971 -20.829 -39.732  0.00  0.00    +0.023 C 
ATOM      2  C   UNL     1      42.653 -21.602 -39.913  0.00  0.00    -0.034 C 
ATOM      3  C   UNL     1      41.511 -20.945 -39.147  0.00  0.00    -0.045 C 
ATOM      4  C   UNL     1      41.747 -20.918 -37.594  0.00  0.00    -0.026 C 
ATOM      5  C   UNL     1      41.190 -22.258 -37.039  0.00  0.00    -0.059 C 
ATOM      6  C   UNL     1      43.285 -20.896 -37.283  0.00  0.00    -0.034 C 
ATOM      7  C   UNL     1      43.671 -20.413 -35.872  0.00  0.00    -0.049 C 
ATOM      8  C   UNL     1      42.504 -20.012 -34.983  0.00  0.00    -0.049 C 
ATOM      9  C   UNL     1      41.598 -19.035 -35.724  0.00  0.00    -0.034 C 
ATOM     10  C   UNL     1      40.999 -19.642 -37.019  0.00  0.00    -0.032 C 
ATOM     11  C   UNL     1      39.462 -19.787 -36.962  0.00  0.00    -0.049 C 
ATOM     12  C   UNL     1      38.949 -20.180 -35.581  0.00  0.00    -0.047 C 
ATOM     13  C   UNL     1      39.290 -19.184 -34.449  0.00  0.00    -0.025 C 
ATOM     14  C   UNL     1      39.483 -19.995 -33.147  0.00  0.00    -0.059 C 
ATOM     15  C   UNL     1      38.248 -18.044 -34.168  0.00  0.00    -0.020 C 
ATOM     16  C   UNL     1      38.553 -16.991 -35.227  0.00  0.00    -0.048 C 
ATOM     17  C   UNL     1      40.069 -17.014 -35.370  0.00  0.00    -0.049 C 
ATOM     18  C   UNL     1      40.567 -18.360 -34.788  0.00  0.00    -0.032 C 
ATOM     19  C   UNL     1      44.059 -20.124 -38.366  0.00  0.00    -0.031 C 
ENDROOT
BRANCH   1  23
ATOM     20  C   UNL     1      46.949 -22.752 -41.094  0.00  0.00    +0.012 C 
ATOM     21  C   UNL     1      45.919 -21.656 -41.020  0.00  0.00    +0.210 C 
ATOM     22  O   UNL     1      45.821 -20.796 -41.888  0.00  0.00    -0.276 OA
ATOM     23  N   UNL     1      45.103 -21.732 -39.912  0.00  0.00    -0.313 N 
ATOM     24  H   UNL     1      45.288 -22.412 -39.226  0.00  0.00    +0.000 HD
ENDBRANCH   1  23
BRANCH  15  25
ATOM     25  C   UNL     1      36.744 -18.416 -33.971  0.00  0.00    +0.010 C 
ATOM     26  C   UNL     1      36.295 -18.068 -32.538  0.00  0.00    -0.049 C 
BRANCH  25  27
ATOM     27  N   UNL     1      35.840 -17.901 -35.025  0.00  0.00    -0.305 N 
ATOM     28  C   UNL     1      34.622 -17.246 -34.547  0.00  0.00    -0.013 C 
ATOM     29  C   UNL     1      35.472 -18.959 -35.974  0.00  0.00    -0.013 C 
ATOM     30  H   UNL     1      36.391 -17.176 -35.484  0.00  0.00    +0.000 HD
ENDBRANCH  25  27
ENDBRANCH  15  25
TORSDOF 3
ENDMDL
MODEL 18
REMARK VINA RESULT:    -6.286      3.903      8.805
REMARK INTER + INTRA:          -7.404
REMARK INTER:                  -6.781
REMARK INTRA:                  -0.623
REMARK UNBOUND:                -0.015
REMARK  Name = cpd195.pdb
REMARK  9 active torsions:
REMARK  status: ('A' for Active; 'I' for Inactive)
REMARK    1  A    between atoms: C_1  and  C_2
REMARK    2  A    between atoms: N_4  and  C_5
REMARK    3  A    between atoms: C_8  and  C_9
REMARK    4  A    between atoms: C_17  and  C_18
REMARK    5  A    between atoms: C_19  and  C_20
REMARK    6  A    between atoms: C_20  and  C_21
REMARK    7  A    between atoms: C_20  and  N_22
REMARK    8  A    between atoms: N_22  and  C_23
REMARK    9  A    between atoms: N_22  and  C_24
REMARK                            x       y       z     vdW  Elec       q    Type
REMARK                         _______ _______ _______ _____ _____    ______ ____
ROOT
ATOM      1  C   UNL     1      38.214 -36.972 -31.064  0.00  0.00    +0.023 C 
ATOM      2  C   UNL     1      38.045 -37.986 -29.920  0.00  0.00    -0.034 C 
ATOM      3  C   UNL     1      36.579 -38.337 -29.697  0.00  0.00    -0.045 C 
ATOM      4  C   UNL     1      35.709 -37.100 -29.267  0.00  0.00    -0.026 C 
ATOM      5  C   UNL     1      35.800 -37.015 -27.718  0.00  0.00    -0.059 C 
ATOM      6  C   UNL     1      36.332 -35.778 -29.838  0.00  0.00    -0.034 C 
ATOM      7  C   UNL     1      35.381 -34.568 -29.900  0.00  0.00    -0.049 C 
ATOM      8  C   UNL     1      33.966 -34.832 -29.412  0.00  0.00    -0.049 C 
ATOM      9  C   UNL     1      33.401 -36.073 -30.094  0.00  0.00    -0.034 C 
ATOM     10  C   UNL     1      34.234 -37.347 -29.795  0.00  0.00    -0.032 C 
ATOM     11  C   UNL     1      33.446 -38.406 -28.992  0.00  0.00    -0.049 C 
ATOM     12  C   UNL     1      32.513 -37.795 -27.951  0.00  0.00    -0.047 C 
ATOM     13  C   UNL     1      31.430 -36.850 -28.519  0.00  0.00    -0.025 C 
ATOM     14  C   UNL     1      31.161 -35.752 -27.466  0.00  0.00    -0.059 C 
ATOM     15  C   UNL     1      30.056 -37.500 -28.913  0.00  0.00    -0.020 C 
ATOM     16  C   UNL     1      30.307 -38.092 -30.296  0.00  0.00    -0.048 C 
ATOM     17  C   UNL     1      31.230 -37.094 -30.983  0.00  0.00    -0.049 C 
ATOM     18  C   UNL     1      31.878 -36.227 -29.874  0.00  0.00    -0.032 C 
ATOM     19  C   UNL     1      37.008 -36.026 -31.198  0.00  0.00    -0.031 C 
ENDROOT
BRANCH   1  23
ATOM     20  C   UNL     1      41.478 -35.088 -31.538  0.00  0.00    +0.012 C 
ATOM     21  C   UNL     1      40.179 -35.737 -31.934  0.00  0.00    +0.210 C 
ATOM     22  O   UNL     1      39.837 -35.846 -33.107  0.00  0.00    -0.276 OA
ATOM     23  N   UNL     1      39.442 -36.207 -30.869  0.00  0.00    -0.313 N 
ATOM     24  H   UNL     1      39.752 -36.022 -29.954  0.00  0.00    +0.000 HD
ENDBRANCH   1  23
BRANCH  15  25
ATOM     25  C   UNL     1      29.324 -38.421 -27.886  0.00  0.00    +0.010 C 
ATOM     26  C   UNL     1      27.937 -37.840 -27.547  0.00  0.00    -0.049 C 
BRANCH  25  27
ATOM     27  N   UNL     1      29.301 -39.856 -28.253  0.00  0.00    -0.305 N 
ATOM     28  C   UNL     1      27.973 -40.469 -28.317  0.00  0.00    -0.013 C 
ATOM     29  C   UNL     1      30.151 -40.648 -27.357  0.00  0.00    -0.013 C 
ATOM     30  H   UNL     1      29.665 -39.868 -29.206  0.00  0.00    +0.000 HD
ENDBRANCH  25  27
ENDBRANCH  15  25
TORSDOF 3
ENDMDL
MODEL 19
REMARK VINA RESULT:    -6.258     20.198     22.600
REMARK INTER + INTRA:          -7.370
REMARK INTER:                  -7.173
REMARK INTRA:                  -0.197
REMARK UNBOUND:                -0.015
REMARK  Name = cpd195.pdb
REMARK  9 active torsions:
REMARK  status: ('A' for Active; 'I' for Inactive)
REMARK    1  A    between atoms: C_1  and  C_2
REMARK    2  A    between atoms: N_4  and  C_5
REMARK    3  A    between atoms: C_8  and  C_9
REMARK    4  A    between atoms: C_17  and  C_18
REMARK    5  A    between atoms: C_19  and  C_20
REMARK    6  A    between atoms: C_20  and  C_21
REMARK    7  A    between atoms: C_20  and  N_22
REMARK    8  A    between atoms: N_22  and  C_23
REMARK    9  A    between atoms: N_22  and  C_24
REMARK                            x       y       z     vdW  Elec       q    Type
REMARK                         _______ _______ _______ _____ _____    ______ ____
ROOT
ATOM      1  C   UNL     1      43.961 -20.545 -39.547  0.00  0.00    +0.023 C 
ATOM      2  C   UNL     1      43.491 -19.083 -39.458  0.00  0.00    -0.034 C 
ATOM      3  C   UNL     1      42.742 -18.817 -38.157  0.00  0.00    -0.045 C 
ATOM      4  C   UNL     1      41.428 -19.669 -38.018  0.00  0.00    -0.026 C 
ATOM      5  C   UNL     1      40.297 -18.849 -38.698  0.00  0.00    -0.059 C 
ATOM      6  C   UNL     1      41.569 -21.011 -38.819  0.00  0.00    -0.034 C 
ATOM      7  C   UNL     1      40.589 -22.130 -38.419  0.00  0.00    -0.049 C 
ATOM      8  C   UNL     1      39.631 -21.778 -37.291  0.00  0.00    -0.049 C 
ATOM      9  C   UNL     1      40.406 -21.209 -36.108  0.00  0.00    -0.034 C 
ATOM     10  C   UNL     1      41.181 -19.915 -36.470  0.00  0.00    -0.032 C 
ATOM     11  C   UNL     1      40.667 -18.673 -35.710  0.00  0.00    -0.049 C 
ATOM     12  C   UNL     1      39.154 -18.673 -35.515  0.00  0.00    -0.047 C 
ATOM     13  C   UNL     1      38.598 -19.876 -34.720  0.00  0.00    -0.025 C 
ATOM     14  C   UNL     1      37.193 -20.201 -35.274  0.00  0.00    -0.059 C 
ATOM     15  C   UNL     1      38.485 -19.706 -33.163  0.00  0.00    -0.020 C 
ATOM     16  C   UNL     1      39.895 -19.984 -32.654  0.00  0.00    -0.048 C 
ATOM     17  C   UNL     1      40.419 -21.097 -33.552  0.00  0.00    -0.049 C 
ATOM     18  C   UNL     1      39.542 -21.110 -34.829  0.00  0.00    -0.032 C 
ATOM     19  C   UNL     1      43.023 -21.514 -38.807  0.00  0.00    -0.031 C 
ENDROOT
BRANCH   1  23
ATOM     20  C   UNL     1      45.174 -21.927 -42.870  0.00  0.00    +0.012 C 
ATOM     21  C   UNL     1      45.128 -21.742 -41.378  0.00  0.00    +0.210 C 
ATOM     22  O   UNL     1      45.955 -22.254 -40.632  0.00  0.00    -0.276 OA
ATOM     23  N   UNL     1      44.096 -20.936 -40.947  0.00  0.00    -0.313 N 
ATOM     24  H   UNL     1      43.433 -20.617 -41.600  0.00  0.00    +0.000 HD
ENDBRANCH   1  23
BRANCH  15  25
ATOM     25  C   UNL     1      37.773 -18.443 -32.582  0.00  0.00    +0.010 C 
ATOM     26  C   UNL     1      38.807 -17.336 -32.296  0.00  0.00    -0.049 C 
BRANCH  25  27
ATOM     27  N   UNL     1      36.602 -17.984 -33.364  0.00  0.00    -0.305 N 
ATOM     28  C   UNL     1      36.602 -16.565 -33.726  0.00  0.00    -0.013 C 
ATOM     29  C   UNL     1      35.346 -18.301 -32.675  0.00  0.00    -0.013 C 
ATOM     30  H   UNL     1      36.677 -18.501 -34.240  0.00  0.00    +0.000 HD
ENDBRANCH  25  27
ENDBRANCH  15  25
TORSDOF 3
ENDMDL
MODEL 20
REMARK VINA RESULT:    -6.136      7.099      9.522
REMARK INTER + INTRA:          -7.227
REMARK INTER:                  -6.572
REMARK INTRA:                  -0.655
REMARK UNBOUND:                -0.015
REMARK  Name = cpd195.pdb
REMARK  9 active torsions:
REMARK  status: ('A' for Active; 'I' for Inactive)
REMARK    1  A    between atoms: C_1  and  C_2
REMARK    2  A    between atoms: N_4  and  C_5
REMARK    3  A    between atoms: C_8  and  C_9
REMARK    4  A    between atoms: C_17  and  C_18
REMARK    5  A    between atoms: C_19  and  C_20
REMARK    6  A    between atoms: C_20  and  C_21
REMARK    7  A    between atoms: C_20  and  N_22
REMARK    8  A    between atoms: N_22  and  C_23
REMARK    9  A    between atoms: N_22  and  C_24
REMARK                            x       y       z     vdW  Elec       q    Type
REMARK                         _______ _______ _______ _____ _____    ______ ____
ROOT
ATOM      1  C   UNL     1      35.120 -35.903 -28.739  0.00  0.00    +0.023 C 
ATOM      2  C   UNL     1      35.439 -34.681 -29.617  0.00  0.00    -0.034 C 
ATOM      3  C   UNL     1      34.222 -33.779 -29.782  0.00  0.00    -0.045 C 
ATOM      4  C   UNL     1      33.023 -34.490 -30.507  0.00  0.00    -0.026 C 
ATOM      5  C   UNL     1      33.238 -34.276 -32.031  0.00  0.00    -0.059 C 
ATOM      6  C   UNL     1      33.077 -36.037 -30.248  0.00  0.00    -0.034 C 
ATOM      7  C   UNL     1      31.760 -36.798 -30.490  0.00  0.00    -0.049 C 
ATOM      8  C   UNL     1      30.587 -35.937 -30.932  0.00  0.00    -0.049 C 
ATOM      9  C   UNL     1      30.428 -34.749 -29.990  0.00  0.00    -0.034 C 
ATOM     10  C   UNL     1      31.682 -33.836 -29.966  0.00  0.00    -0.032 C 
ATOM     11  C   UNL     1      31.406 -32.419 -30.516  0.00  0.00    -0.049 C 
ATOM     12  C   UNL     1      30.432 -32.412 -31.689  0.00  0.00    -0.047 C 
ATOM     13  C   UNL     1      29.033 -32.990 -31.380  0.00  0.00    -0.025 C 
ATOM     14  C   UNL     1      28.505 -33.666 -32.666  0.00  0.00    -0.059 C 
ATOM     15  C   UNL     1      27.943 -31.980 -30.873  0.00  0.00    -0.020 C 
ATOM     16  C   UNL     1      28.240 -31.826 -29.386  0.00  0.00    -0.048 C 
ATOM     17  C   UNL     1      28.676 -33.214 -28.933  0.00  0.00    -0.049 C 
ATOM     18  C   UNL     1      29.089 -34.004 -30.199  0.00  0.00    -0.032 C 
ATOM     19  C   UNL     1      33.651 -36.346 -28.854  0.00  0.00    -0.031 C 
ENDROOT
BRANCH   1  23
ATOM     20  C   UNL     1      37.608 -38.771 -28.655  0.00  0.00    +0.012 C 
ATOM     21  C   UNL     1      36.624 -37.770 -28.112  0.00  0.00    +0.210 C 
ATOM     22  O   UNL     1      36.416 -37.648 -26.910  0.00  0.00    -0.276 OA
ATOM     23  N   UNL     1      36.012 -37.006 -29.081  0.00  0.00    -0.313 N 
ATOM     24  H   UNL     1      36.182 -37.209 -30.029  0.00  0.00    +0.000 HD
ENDBRANCH   1  23
BRANCH  15  25
ATOM     25  C   UNL     1      27.693 -30.661 -31.672  0.00  0.00    +0.010 C 
ATOM     26  C   UNL     1      26.268 -30.658 -32.258  0.00  0.00    -0.049 C 
BRANCH  25  27
ATOM     27  N   UNL     1      28.045 -29.423 -30.939  0.00  0.00    -0.305 N 
ATOM     28  C   UNL     1      27.008 -28.390 -30.913  0.00  0.00    -0.013 C 
ATOM     29  C   UNL     1      29.289 -28.838 -31.451  0.00  0.00    -0.013 C 
ATOM     30  H   UNL     1      28.158 -29.736 -29.975  0.00  0.00    +0.000 HD
ENDBRANCH  25  27
ENDBRANCH  15  25
TORSDOF 3
ENDMDL
