REMARK  Name = cpd195.pdb
REMARK  9 active torsions:
REMARK  status: ('A' for Active; 'I' for Inactive)
REMARK    1  A    between atoms: C_1  and  C_2
REMARK    2  A    between atoms: N_4  and  C_5
REMARK    3  A    between atoms: C_8  and  C_9
REMARK    4  A    between atoms: C_17  and  C_18
REMARK    5  A    between atoms: C_19  and  C_20
REMARK    6  A    between atoms: C_20  and  C_21
REMARK    7  A    between atoms: C_20  and  N_22
REMARK    8  A    between atoms: N_22  and  C_23
REMARK    9  A    between atoms: N_22  and  C_24
REMARK                            x       y       z     vdW  Elec       q    Type
REMARK                         _______ _______ _______ _____ _____    ______ ____
ROOT
ATOM      1  C   UNL     1      -1.901   0.204   1.088  0.00  0.00    +0.023 C 
ATOM      2  C   UNL     1      -2.182  -1.289   0.848  0.00  0.00    -0.034 C 
ATOM      3  C   UNL     1      -0.905  -2.117   0.929  0.00  0.00    -0.045 C 
ATOM      4  C   UNL     1       0.151  -1.728  -0.168  0.00  0.00    -0.026 C 
ATOM      5  C   UNL     1      -0.181  -2.582  -1.423  0.00  0.00    -0.059 C 
ATOM      6  C   UNL     1      -0.025  -0.223  -0.576  0.00  0.00    -0.034 C 
ATOM      7  C   UNL     1       1.187   0.423  -1.273  0.00  0.00    -0.049 C 
ATOM      8  C   UNL     1       2.391  -0.488  -1.454  0.00  0.00    -0.049 C 
ATOM      9  C   UNL     1       2.746  -1.152  -0.128  0.00  0.00    -0.034 C 
ATOM     10  C   UNL     1       1.591  -2.025   0.429  0.00  0.00    -0.032 C 
ATOM     11  C   UNL     1       1.948  -3.526   0.494  0.00  0.00    -0.049 C 
ATOM     12  C   UNL     1       2.808  -3.988  -0.678  0.00  0.00    -0.047 C 
ATOM     13  C   UNL     1       4.169  -3.268  -0.813  0.00  0.00    -0.025 C 
ATOM     14  C   UNL     1       4.512  -3.182  -2.318  0.00  0.00    -0.059 C 
ATOM     15  C   UNL     1       5.391  -3.913  -0.067  0.00  0.00    -0.020 C 
ATOM     16  C   UNL     1       5.246  -3.431   1.372  0.00  0.00    -0.048 C 
ATOM     17  C   UNL     1       4.724  -2.005   1.252  0.00  0.00    -0.049 C 
ATOM     18  C   UNL     1       4.125  -1.851  -0.168  0.00  0.00    -0.032 C 
ATOM     19  C   UNL     1      -0.497   0.624   0.619  0.00  0.00    -0.031 C 
ENDROOT
BRANCH   1  23
ATOM     20  C   UNL     1      -5.129   1.934   0.082  0.00  0.00    +0.012 C 
ATOM     21  C   UNL     1      -4.176   1.180   0.970  0.00  0.00    +0.210 C 
ATOM     22  O   UNL     1      -4.513   0.746   2.066  0.00  0.00    -0.276 OA
ATOM     23  N   UNL     1      -2.921   1.012   0.427  0.00  0.00    -0.313 N 
ATOM     24  H   UNL     1      -2.707   1.448  -0.429  0.00  0.00    +0.000 HD
ENDBRANCH   1  23
BRANCH  15  25
ATOM     25  C   UNL     1       5.690  -5.433  -0.264  0.00  0.00    +0.010 C 
ATOM     26  C   UNL     1       7.181  -5.719   0.004  0.00  0.00    -0.049 C 
BRANCH  25  27
ATOM     27  N   UNL     1       4.766  -6.340   0.455  0.00  0.00    -0.305 N 
ATOM     28  C   UNL     1       5.213  -6.776   1.779  0.00  0.00    -0.013 C 
ATOM     29  C   UNL     1       4.444  -7.521  -0.354  0.00  0.00    -0.013 C 
ATOM     30  H   UNL     1       3.936  -5.767   0.610  0.00  0.00    +0.000 HD
ENDBRANCH  25  27
ENDBRANCH  15  25
TORSDOF 3
