@<TRIPOS>MOLECULE
*****
 28 31 0 0 0
SMALL
GASTEIGER

@<TRIPOS>ATOM
      1 C          -3.2945   -0.5234    0.0000 C.3     1  UNL1        0.0964
      2 C          -2.3407   -0.7257    0.0000 C.2     1  UNL1        0.2418
      3 O          -2.0391   -1.6528    0.0000 O.2     1  UNL1       -0.2733
      4 N          -1.6887   -0.0008    0.0000 N.am    1  UNL1       -0.2072
      5 C          -0.8441   -0.4880    0.0000 C.3     1  UNL1        0.0953
      6 C          -0.8438   -1.4634    0.0000 C.3     1  UNL1        0.0217
      7 C           0.0006   -1.9509    0.0000 C.3     1  UNL1        0.0018
      8 C           0.8446   -1.4630    0.0000 C.3     1  UNL1        0.0001
      9 C           0.8449   -2.4679    0.0000 C.3     1  UNL1        0.0000
     10 C           0.8444   -0.4875    0.0000 C.3     1  UNL1        0.0017
     11 C           1.6890    0.0005    0.0000 C.3     1  UNL1        0.0001
     12 C           2.5340   -0.4870    0.0000 C.3     1  UNL1        0.0000
     13 C           2.5343   -1.4625    0.0000 C.3     1  UNL1        0.0000
     14 C           1.6896   -1.9505    0.0000 C.3     1  UNL1        0.0000
     15 C           1.6899   -2.9253    0.0000 C.3     1  UNL1        0.0000
     16 C           2.5348   -3.4128    0.0000 C.3     1  UNL1        0.0000
     17 C           3.3795   -2.9248    0.0000 C.3     1  UNL1        0.0012
     18 C           3.3798   -3.9298    0.0000 C.3     1  UNL1        0.0000
     19 C           4.2245   -3.4123    0.0000 C.3     1  UNL1        0.0147
     20 C           4.2247   -4.3868    0.0000 C.3     1  UNL1        0.0576
     21 C           5.1992   -4.3865    0.0000 C.3     1  UNL1        0.0173
     22 N           3.7377   -5.2309    0.0000 N.3     1  UNL1       -0.2716
     23 C           4.2252   -6.0747    0.0000 C.3     1  UNL1        0.0896
     24 C           2.7633   -5.2311    0.0000 C.3     1  UNL1        0.0896
     25 C           5.0679   -2.9244    0.0000 C.3     1  UNL1        0.0013
     26 C           5.0677   -1.9495    0.0000 C.3     1  UNL1        0.0000
     27 C           3.3792   -1.9500    0.0000 C.3     1  UNL1        0.0000
     28 C          -0.0000   -0.0000    0.0000 C.3     1  UNL1        0.0217
@<TRIPOS>BOND
     1     1     2    1
     2     2     3    2
     3     2     4   am
     4     4     5    1
     5     5     6    1
     6     6     7    1
     7     7     8    1
     8     8     9    1
     9     8    10    1
    10    10    11    1
    11    11    12    1
    12    12    13    1
    13    13    14    1
    14     8    14    1
    15    14    15    1
    16    15    16    1
    17    16    17    1
    18    17    18    1
    19    17    19    1
    20    19    20    1
    21    20    21    1
    22    20    22    1
    23    22    23    1
    24    22    24    1
    25    19    25    1
    26    25    26    1
    27    26    27    1
    28    13    27    1
    29    17    27    1
    30    10    28    1
    31     5    28    1
