MODEL 1
REMARK VINA RESULT:    -6.939      0.000      0.000
REMARK INTER + INTRA:          -7.625
REMARK INTER:                  -7.548
REMARK INTRA:                  -0.077
REMARK UNBOUND:                -0.077
REMARK  Name = cpd3.pdb
REMARK  4 active torsions:
REMARK  status: ('A' for Active; 'I' for Inactive)
REMARK    1  A    between atoms: C_1  and  O_2
REMARK    2  A    between atoms: O_2  and  C_3
REMARK    3  A    between atoms: C_12  and  O_13
REMARK    4  A    between atoms: N_19  and  C_20
REMARK                            x       y       z     vdW  Elec       q    Type
REMARK                         _______ _______ _______ _____ _____    ______ ____
ROOT
ATOM      1  C   UNL     1      33.838 -34.727 -29.120  0.00  0.00    +0.162 A 
ATOM      2  C   UNL     1      34.165 -33.650 -29.943  0.00  0.00    -0.016 A 
ATOM      3  C   UNL     1      35.345 -33.668 -30.710  0.00  0.00    -0.053 A 
ATOM      4  C   UNL     1      36.212 -34.779 -30.714  0.00  0.00    -0.026 A 
ATOM      5  C   UNL     1      35.837 -35.871 -29.934  0.00  0.00    +0.016 A 
ATOM      6  C   UNL     1      34.708 -35.810 -29.121  0.00  0.00    +0.167 A 
ATOM      7  O   UNL     1      34.571 -36.891 -28.285  0.00  0.00    -0.484 OA
ATOM      8  C   UNL     1      35.834 -37.607 -28.397  0.00  0.00    +0.116 C 
ATOM      9  C   UNL     1      35.495 -39.098 -28.235  0.00  0.00    +0.015 C 
ATOM     10  C   UNL     1      36.261 -40.022 -29.174  0.00  0.00    +0.077 C 
ATOM     11  C   UNL     1      36.183 -39.510 -30.573  0.00  0.00    -0.059 C 
ATOM     12  C   UNL     1      36.268 -38.196 -30.830  0.00  0.00    -0.071 C 
ATOM     13  C   UNL     1      36.531 -37.184 -29.730  0.00  0.00    +0.056 C 
ATOM     14  C   UNL     1      38.040 -36.938 -29.529  0.00  0.00    -0.024 C 
ATOM     15  C   UNL     1      38.832 -36.657 -30.817  0.00  0.00    +0.000 C 
ATOM     16  N   UNL     1      38.130 -35.927 -31.884  0.00  0.00    -0.301 N 
ATOM     17  C   UNL     1      39.036 -35.708 -33.012  0.00  0.00    -0.012 C 
ATOM     18  C   UNL     1      37.535 -34.661 -31.444  0.00  0.00    +0.024 C 
ATOM     19  H   UNL     1      37.345 -36.513 -32.171  0.00  0.00    +0.000 HD
ENDROOT
BRANCH   1  21
ATOM     20  C   UNL     1      31.909 -33.667 -28.227  0.00  0.00    +0.079 C 
ATOM     21  O   UNL     1      32.758 -34.802 -28.288  0.00  0.00    -0.491 OA
ENDBRANCH   1  21
BRANCH  10  22
ATOM     22  O   UNL     1      35.683 -41.320 -29.153  0.00  0.00    -0.388 OA
ATOM     23  H   UNL     1      36.234 -41.928 -29.671  0.00  0.00    +0.000 HD
ENDBRANCH  10  22
TORSDOF 2
ENDMDL
MODEL 2
REMARK VINA RESULT:    -6.921      2.568      4.225
REMARK INTER + INTRA:          -7.605
REMARK INTER:                  -7.527
REMARK INTRA:                  -0.078
REMARK UNBOUND:                -0.077
REMARK  Name = cpd3.pdb
REMARK  4 active torsions:
REMARK  status: ('A' for Active; 'I' for Inactive)
REMARK    1  A    between atoms: C_1  and  O_2
REMARK    2  A    between atoms: O_2  and  C_3
REMARK    3  A    between atoms: C_12  and  O_13
REMARK    4  A    between atoms: N_19  and  C_20
REMARK                            x       y       z     vdW  Elec       q    Type
REMARK                         _______ _______ _______ _____ _____    ______ ____
ROOT
ATOM      1  C   UNL     1      35.060 -34.521 -30.084  0.00  0.00    +0.162 A 
ATOM      2  C   UNL     1      33.773 -34.733 -29.593  0.00  0.00    -0.016 A 
ATOM      3  C   UNL     1      33.396 -35.994 -29.095  0.00  0.00    -0.053 A 
ATOM      4  C   UNL     1      34.304 -37.069 -29.028  0.00  0.00    -0.026 A 
ATOM      5  C   UNL     1      35.605 -36.821 -29.464  0.00  0.00    +0.016 A 
ATOM      6  C   UNL     1      35.943 -35.592 -30.026  0.00  0.00    +0.167 A 
ATOM      7  O   UNL     1      37.205 -35.562 -30.566  0.00  0.00    -0.484 OA
ATOM      8  C   UNL     1      37.643 -36.951 -30.561  0.00  0.00    +0.116 C 
ATOM      9  C   UNL     1      39.162 -36.919 -30.328  0.00  0.00    +0.015 C 
ATOM     10  C   UNL     1      39.677 -38.002 -29.388  0.00  0.00    +0.077 C 
ATOM     11  C   UNL     1      38.854 -38.035 -28.145  0.00  0.00    -0.059 C 
ATOM     12  C   UNL     1      37.523 -37.874 -28.197  0.00  0.00    -0.071 C 
ATOM     13  C   UNL     1      36.787 -37.740 -29.518  0.00  0.00    +0.056 C 
ATOM     14  C   UNL     1      36.344 -39.111 -30.067  0.00  0.00    -0.024 C 
ATOM     15  C   UNL     1      35.618 -40.015 -29.056  0.00  0.00    +0.000 C 
ATOM     16  N   UNL     1      34.777 -39.347 -28.051  0.00  0.00    -0.301 N 
ATOM     17  C   UNL     1      34.131 -40.350 -27.202  0.00  0.00    -0.012 C 
ATOM     18  C   UNL     1      33.783 -38.434 -28.622  0.00  0.00    +0.024 C 
ATOM     19  H   UNL     1      35.398 -38.761 -27.493  0.00  0.00    +0.000 HD
ENDROOT
BRANCH   1  21
ATOM     20  C   UNL     1      34.562 -32.384 -30.993  0.00  0.00    +0.079 C 
ATOM     21  O   UNL     1      35.526 -33.367 -30.645  0.00  0.00    -0.491 OA
ENDBRANCH   1  21
BRANCH  10  22
ATOM     22  O   UNL     1      41.018 -37.720 -29.013  0.00  0.00    -0.388 OA
ATOM     23  H   UNL     1      41.068 -37.604 -28.051  0.00  0.00    +0.000 HD
ENDBRANCH  10  22
TORSDOF 2
ENDMDL
MODEL 3
REMARK VINA RESULT:    -6.909      2.796      5.528
REMARK INTER + INTRA:          -7.592
REMARK INTER:                  -7.496
REMARK INTRA:                  -0.096
REMARK UNBOUND:                -0.077
REMARK  Name = cpd3.pdb
REMARK  4 active torsions:
REMARK  status: ('A' for Active; 'I' for Inactive)
REMARK    1  A    between atoms: C_1  and  O_2
REMARK    2  A    between atoms: O_2  and  C_3
REMARK    3  A    between atoms: C_12  and  O_13
REMARK    4  A    between atoms: N_19  and  C_20
REMARK                            x       y       z     vdW  Elec       q    Type
REMARK                         _______ _______ _______ _____ _____    ______ ____
ROOT
ATOM      1  C   UNL     1      38.744 -35.785 -31.185  0.00  0.00    +0.162 A 
ATOM      2  C   UNL     1      39.324 -36.860 -30.513  0.00  0.00    -0.016 A 
ATOM      3  C   UNL     1      38.581 -37.602 -29.577  0.00  0.00    -0.053 A 
ATOM      4  C   UNL     1      37.224 -37.325 -29.316  0.00  0.00    -0.026 A 
ATOM      5  C   UNL     1      36.644 -36.288 -30.044  0.00  0.00    +0.016 A 
ATOM      6  C   UNL     1      37.411 -35.512 -30.910  0.00  0.00    +0.167 A 
ATOM      7  O   UNL     1      36.741 -34.425 -31.415  0.00  0.00    -0.484 OA
ATOM      8  C   UNL     1      35.510 -34.356 -30.639  0.00  0.00    +0.116 C 
ATOM      9  C   UNL     1      34.434 -33.813 -31.594  0.00  0.00    +0.015 C 
ATOM     10  C   UNL     1      33.074 -34.487 -31.456  0.00  0.00    +0.077 C 
ATOM     11  C   UNL     1      33.233 -35.970 -31.469  0.00  0.00    -0.059 C 
ATOM     12  C   UNL     1      34.256 -36.557 -30.831  0.00  0.00    -0.071 C 
ATOM     13  C   UNL     1      35.243 -35.757 -30.001  0.00  0.00    +0.056 C 
ATOM     14  C   UNL     1      34.788 -35.635 -28.533  0.00  0.00    -0.024 C 
ATOM     15  C   UNL     1      34.366 -36.957 -27.869  0.00  0.00    +0.000 C 
ATOM     16  N   UNL     1      35.079 -38.171 -28.292  0.00  0.00    -0.301 N 
ATOM     17  C   UNL     1      34.586 -39.323 -27.535  0.00  0.00    -0.012 C 
ATOM     18  C   UNL     1      36.538 -38.069 -28.187  0.00  0.00    +0.024 C 
ATOM     19  H   UNL     1      34.884 -38.293 -29.286  0.00  0.00    +0.000 HD
ENDROOT
BRANCH   1  21
ATOM     20  C   UNL     1      40.390 -34.111 -31.548  0.00  0.00    +0.079 C 
ATOM     21  O   UNL     1      39.375 -34.955 -32.068  0.00  0.00    -0.491 OA
ENDBRANCH   1  21
BRANCH  10  22
ATOM     22  O   UNL     1      32.243 -34.129 -32.552  0.00  0.00    -0.388 OA
ATOM     23  H   UNL     1      32.211 -33.163 -32.631  0.00  0.00    +0.000 HD
ENDBRANCH  10  22
TORSDOF 2
ENDMDL
MODEL 4
REMARK VINA RESULT:    -6.756     19.521     22.136
REMARK INTER + INTRA:          -7.426
REMARK INTER:                  -7.333
REMARK INTRA:                  -0.093
REMARK UNBOUND:                -0.077
REMARK  Name = cpd3.pdb
REMARK  4 active torsions:
REMARK  status: ('A' for Active; 'I' for Inactive)
REMARK    1  A    between atoms: C_1  and  O_2
REMARK    2  A    between atoms: O_2  and  C_3
REMARK    3  A    between atoms: C_12  and  O_13
REMARK    4  A    between atoms: N_19  and  C_20
REMARK                            x       y       z     vdW  Elec       q    Type
REMARK                         _______ _______ _______ _____ _____    ______ ____
ROOT
ATOM      1  C   UNL     1      46.191 -17.805 -38.951  0.00  0.00    +0.162 A 
ATOM      2  C   UNL     1      44.985 -17.553 -38.299  0.00  0.00    -0.016 A 
ATOM      3  C   UNL     1      43.841 -18.319 -38.590  0.00  0.00    -0.053 A 
ATOM      4  C   UNL     1      43.876 -19.390 -39.504  0.00  0.00    -0.026 A 
ATOM      5  C   UNL     1      45.106 -19.669 -40.099  0.00  0.00    +0.016 A 
ATOM      6  C   UNL     1      46.210 -18.854 -39.861  0.00  0.00    +0.167 A 
ATOM      7  O   UNL     1      47.293 -19.151 -40.651  0.00  0.00    -0.484 OA
ATOM      8  C   UNL     1      46.782 -20.084 -41.645  0.00  0.00    +0.116 C 
ATOM      9  C   UNL     1      47.941 -21.043 -41.966  0.00  0.00    +0.015 C 
ATOM     10  C   UNL     1      47.524 -22.500 -42.129  0.00  0.00    +0.077 C 
ATOM     11  C   UNL     1      46.664 -22.918 -40.984  0.00  0.00    -0.059 C 
ATOM     12  C   UNL     1      45.740 -22.087 -40.478  0.00  0.00    -0.071 C 
ATOM     13  C   UNL     1      45.468 -20.728 -41.096  0.00  0.00    +0.056 C 
ATOM     14  C   UNL     1      44.375 -20.802 -42.181  0.00  0.00    -0.024 C 
ATOM     15  C   UNL     1      43.096 -21.550 -41.769  0.00  0.00    +0.000 C 
ATOM     16  N   UNL     1      42.691 -21.446 -40.359  0.00  0.00    -0.301 N 
ATOM     17  C   UNL     1      41.439 -22.177 -40.151  0.00  0.00    -0.012 C 
ATOM     18  C   UNL     1      42.572 -20.068 -39.876  0.00  0.00    +0.024 C 
ATOM     19  H   UNL     1      43.439 -21.866 -39.808  0.00  0.00    +0.000 HD
ENDROOT
BRANCH   1  21
ATOM     20  C   UNL     1      47.415 -15.825 -39.428  0.00  0.00    +0.079 C 
ATOM     21  O   UNL     1      47.349 -17.097 -38.800  0.00  0.00    -0.491 OA
ENDBRANCH   1  21
BRANCH  10  22
ATOM     22  O   UNL     1      48.674 -23.334 -42.136  0.00  0.00    -0.388 OA
ATOM     23  H   UNL     1      48.965 -23.492 -41.223  0.00  0.00    +0.000 HD
ENDBRANCH  10  22
TORSDOF 2
ENDMDL
MODEL 5
REMARK VINA RESULT:    -6.527      2.014      4.703
REMARK INTER + INTRA:          -7.176
REMARK INTER:                  -7.085
REMARK INTRA:                  -0.091
REMARK UNBOUND:                -0.077
REMARK  Name = cpd3.pdb
REMARK  4 active torsions:
REMARK  status: ('A' for Active; 'I' for Inactive)
REMARK    1  A    between atoms: C_1  and  O_2
REMARK    2  A    between atoms: O_2  and  C_3
REMARK    3  A    between atoms: C_12  and  O_13
REMARK    4  A    between atoms: N_19  and  C_20
REMARK                            x       y       z     vdW  Elec       q    Type
REMARK                         _______ _______ _______ _____ _____    ______ ____
ROOT
ATOM      1  C   UNL     1      34.183 -37.070 -26.798  0.00  0.00    +0.162 A 
ATOM      2  C   UNL     1      35.421 -37.695 -26.658  0.00  0.00    -0.016 A 
ATOM      3  C   UNL     1      36.412 -37.548 -27.646  0.00  0.00    -0.053 A 
ATOM      4  C   UNL     1      36.215 -36.737 -28.782  0.00  0.00    -0.026 A 
ATOM      5  C   UNL     1      34.995 -36.070 -28.874  0.00  0.00    +0.016 A 
ATOM      6  C   UNL     1      33.995 -36.286 -27.928  0.00  0.00    +0.167 A 
ATOM      7  O   UNL     1      32.797 -35.698 -28.251  0.00  0.00    -0.484 OA
ATOM      8  C   UNL     1      32.960 -35.255 -29.629  0.00  0.00    +0.116 C 
ATOM      9  C   UNL     1      32.133 -33.966 -29.764  0.00  0.00    +0.015 C 
ATOM     10  C   UNL     1      32.800 -32.875 -30.593  0.00  0.00    +0.077 C 
ATOM     11  C   UNL     1      34.205 -32.672 -30.137  0.00  0.00    -0.059 C 
ATOM     12  C   UNL     1      34.975 -33.716 -29.796  0.00  0.00    -0.071 C 
ATOM     13  C   UNL     1      34.488 -35.146 -29.939  0.00  0.00    +0.056 C 
ATOM     14  C   UNL     1      34.829 -35.729 -31.325  0.00  0.00    -0.024 C 
ATOM     15  C   UNL     1      36.288 -35.535 -31.774  0.00  0.00    +0.000 C 
ATOM     16  N   UNL     1      37.315 -35.558 -30.722  0.00  0.00    -0.301 N 
ATOM     17  C   UNL     1      38.641 -35.403 -31.323  0.00  0.00    -0.012 C 
ATOM     18  C   UNL     1      37.268 -36.751 -29.872  0.00  0.00    +0.024 C 
ATOM     19  H   UNL     1      37.116 -34.772 -30.102  0.00  0.00    +0.000 HD
ENDROOT
BRANCH   1  21
ATOM     20  C   UNL     1      33.356 -36.850 -24.582  0.00  0.00    +0.079 C 
ATOM     21  O   UNL     1      33.125 -37.183 -25.942  0.00  0.00    -0.491 OA
ENDBRANCH   1  21
BRANCH  10  22
ATOM     22  O   UNL     1      32.105 -31.647 -30.424  0.00  0.00    -0.388 OA
ATOM     23  H   UNL     1      32.610 -30.931 -30.840  0.00  0.00    +0.000 HD
ENDBRANCH  10  22
TORSDOF 2
ENDMDL
MODEL 6
REMARK VINA RESULT:    -6.526     20.913     22.455
REMARK INTER + INTRA:          -7.176
REMARK INTER:                  -7.077
REMARK INTRA:                  -0.098
REMARK UNBOUND:                -0.077
REMARK  Name = cpd3.pdb
REMARK  4 active torsions:
REMARK  status: ('A' for Active; 'I' for Inactive)
REMARK    1  A    between atoms: C_1  and  O_2
REMARK    2  A    between atoms: O_2  and  C_3
REMARK    3  A    between atoms: C_12  and  O_13
REMARK    4  A    between atoms: N_19  and  C_20
REMARK                            x       y       z     vdW  Elec       q    Type
REMARK                         _______ _______ _______ _____ _____    ______ ____
ROOT
ATOM      1  C   UNL     1      45.722 -21.906 -41.484  0.00  0.00    +0.162 A 
ATOM      2  C   UNL     1      45.275 -21.398 -42.703  0.00  0.00    -0.016 A 
ATOM      3  C   UNL     1      44.762 -20.091 -42.788  0.00  0.00    -0.053 A 
ATOM      4  C   UNL     1      44.721 -19.234 -41.669  0.00  0.00    -0.026 A 
ATOM      5  C   UNL     1      45.230 -19.737 -40.473  0.00  0.00    +0.016 A 
ATOM      6  C   UNL     1      45.663 -21.058 -40.386  0.00  0.00    +0.167 A 
ATOM      7  O   UNL     1      45.968 -21.454 -39.107  0.00  0.00    -0.484 OA
ATOM      8  C   UNL     1      45.478 -20.376 -38.259  0.00  0.00    +0.116 C 
ATOM      9  C   UNL     1      46.442 -20.301 -37.064  0.00  0.00    +0.015 C 
ATOM     10  C   UNL     1      46.785 -18.883 -36.622  0.00  0.00    +0.077 C 
ATOM     11  C   UNL     1      47.182 -18.061 -37.800  0.00  0.00    -0.059 C 
ATOM     12  C   UNL     1      46.539 -18.180 -38.971  0.00  0.00    -0.071 C 
ATOM     13  C   UNL     1      45.330 -19.085 -39.127  0.00  0.00    +0.056 C 
ATOM     14  C   UNL     1      44.015 -18.341 -38.821  0.00  0.00    -0.024 C 
ATOM     15  C   UNL     1      43.854 -16.984 -39.527  0.00  0.00    +0.000 C 
ATOM     16  N   UNL     1      44.445 -16.858 -40.867  0.00  0.00    -0.301 N 
ATOM     17  C   UNL     1      44.164 -15.527 -41.408  0.00  0.00    -0.012 C 
ATOM     18  C   UNL     1      44.016 -17.899 -41.806  0.00  0.00    +0.024 C 
ATOM     19  H   UNL     1      45.451 -16.987 -40.757  0.00  0.00    +0.000 HD
ENDROOT
BRANCH   1  21
ATOM     20  C   UNL     1      47.520 -23.450 -41.652  0.00  0.00    +0.079 C 
ATOM     21  O   UNL     1      46.183 -23.172 -41.263  0.00  0.00    -0.491 OA
ENDBRANCH   1  21
BRANCH  10  22
ATOM     22  O   UNL     1      47.883 -18.910 -35.720  0.00  0.00    -0.388 OA
ATOM     23  H   UNL     1      47.783 -19.659 -35.111  0.00  0.00    +0.000 HD
ENDBRANCH  10  22
TORSDOF 2
ENDMDL
MODEL 7
REMARK VINA RESULT:    -6.352     22.472     24.951
REMARK INTER + INTRA:          -6.986
REMARK INTER:                  -6.897
REMARK INTRA:                  -0.090
REMARK UNBOUND:                -0.077
REMARK  Name = cpd3.pdb
REMARK  4 active torsions:
REMARK  status: ('A' for Active; 'I' for Inactive)
REMARK    1  A    between atoms: C_1  and  O_2
REMARK    2  A    between atoms: O_2  and  C_3
REMARK    3  A    between atoms: C_12  and  O_13
REMARK    4  A    between atoms: N_19  and  C_20
REMARK                            x       y       z     vdW  Elec       q    Type
REMARK                         _______ _______ _______ _____ _____    ______ ____
ROOT
ATOM      1  C   UNL     1      54.643 -50.509 -30.047  0.00  0.00    +0.162 A 
ATOM      2  C   UNL     1      53.389 -49.980 -30.349  0.00  0.00    -0.016 A 
ATOM      3  C   UNL     1      52.300 -50.830 -30.616  0.00  0.00    -0.053 A 
ATOM      4  C   UNL     1      52.416 -52.232 -30.544  0.00  0.00    -0.026 A 
ATOM      5  C   UNL     1      53.661 -52.742 -30.179  0.00  0.00    +0.016 A 
ATOM      6  C   UNL     1      54.749 -51.893 -29.993  0.00  0.00    +0.167 A 
ATOM      7  O   UNL     1      55.939 -52.555 -29.812  0.00  0.00    -0.484 OA
ATOM      8  C   UNL     1      55.643 -53.944 -30.133  0.00  0.00    +0.116 C 
ATOM      9  C   UNL     1      56.538 -54.794 -29.216  0.00  0.00    +0.015 C 
ATOM     10  C   UNL     1      55.855 -56.029 -28.641  0.00  0.00    +0.077 C 
ATOM     11  C   UNL     1      54.533 -55.660 -28.058  0.00  0.00    -0.059 C 
ATOM     12  C   UNL     1      53.737 -54.769 -28.669  0.00  0.00    -0.071 C 
ATOM     13  C   UNL     1      54.100 -54.166 -30.013  0.00  0.00    +0.056 C 
ATOM     14  C   UNL     1      53.555 -55.008 -31.184  0.00  0.00    -0.024 C 
ATOM     15  C   UNL     1      52.070 -55.395 -31.072  0.00  0.00    +0.000 C 
ATOM     16  N   UNL     1      51.178 -54.427 -30.418  0.00  0.00    -0.301 N 
ATOM     17  C   UNL     1      49.803 -54.932 -30.435  0.00  0.00    -0.012 C 
ATOM     18  C   UNL     1      51.241 -53.080 -30.992  0.00  0.00    +0.024 C 
ATOM     19  H   UNL     1      51.505 -54.331 -29.456  0.00  0.00    +0.000 HD
ENDROOT
BRANCH   1  21
ATOM     20  C   UNL     1      55.729 -48.770 -28.847  0.00  0.00    +0.079 C 
ATOM     21  O   UNL     1      55.786 -49.794 -29.829  0.00  0.00    -0.491 OA
ENDBRANCH   1  21
BRANCH  10  22
ATOM     22  O   UNL     1      56.650 -56.581 -27.601  0.00  0.00    -0.388 OA
ATOM     23  H   UNL     1      56.385 -57.501 -27.444  0.00  0.00    +0.000 HD
ENDBRANCH  10  22
TORSDOF 2
ENDMDL
MODEL 8
REMARK VINA RESULT:    -6.311     18.576     21.172
REMARK INTER + INTRA:          -6.942
REMARK INTER:                  -6.862
REMARK INTRA:                  -0.080
REMARK UNBOUND:                -0.077
REMARK  Name = cpd3.pdb
REMARK  4 active torsions:
REMARK  status: ('A' for Active; 'I' for Inactive)
REMARK    1  A    between atoms: C_1  and  O_2
REMARK    2  A    between atoms: O_2  and  C_3
REMARK    3  A    between atoms: C_12  and  O_13
REMARK    4  A    between atoms: N_19  and  C_20
REMARK                            x       y       z     vdW  Elec       q    Type
REMARK                         _______ _______ _______ _____ _____    ______ ____
ROOT
ATOM      1  C   UNL     1      46.707 -19.127 -36.203  0.00  0.00    +0.162 A 
ATOM      2  C   UNL     1      45.746 -19.331 -35.214  0.00  0.00    -0.016 A 
ATOM      3  C   UNL     1      44.479 -19.846 -35.544  0.00  0.00    -0.053 A 
ATOM      4  C   UNL     1      44.147 -20.217 -36.862  0.00  0.00    -0.026 A 
ATOM      5  C   UNL     1      45.141 -20.064 -37.827  0.00  0.00    +0.016 A 
ATOM      6  C   UNL     1      46.363 -19.482 -37.501  0.00  0.00    +0.167 A 
ATOM      7  O   UNL     1      47.166 -19.241 -38.589  0.00  0.00    -0.484 OA
ATOM      8  C   UNL     1      46.307 -19.474 -39.742  0.00  0.00    +0.116 C 
ATOM      9  C   UNL     1      47.216 -20.040 -40.845  0.00  0.00    +0.015 C 
ATOM     10  C   UNL     1      46.592 -21.169 -41.656  0.00  0.00    +0.077 C 
ATOM     11  C   UNL     1      46.003 -22.191 -40.743  0.00  0.00    -0.059 C 
ATOM     12  C   UNL     1      45.349 -21.825 -39.630  0.00  0.00    -0.071 C 
ATOM     13  C   UNL     1      45.103 -20.365 -39.295  0.00  0.00    +0.056 C 
ATOM     14  C   UNL     1      43.772 -19.860 -39.886  0.00  0.00    -0.024 C 
ATOM     15  C   UNL     1      42.554 -20.760 -39.614  0.00  0.00    +0.000 C 
ATOM     16  N   UNL     1      42.534 -21.482 -38.333  0.00  0.00    -0.301 N 
ATOM     17  C   UNL     1      41.294 -22.252 -38.220  0.00  0.00    -0.012 C 
ATOM     18  C   UNL     1      42.716 -20.619 -37.162  0.00  0.00    +0.024 C 
ATOM     19  H   UNL     1      43.339 -22.110 -38.338  0.00  0.00    +0.000 HD
ENDROOT
BRANCH   1  21
ATOM     20  C   UNL     1      48.584 -18.831 -34.776  0.00  0.00    +0.079 C 
ATOM     21  O   UNL     1      47.945 -18.581 -36.020  0.00  0.00    -0.491 OA
ENDBRANCH   1  21
BRANCH  10  22
ATOM     22  O   UNL     1      47.588 -21.810 -42.440  0.00  0.00    -0.388 OA
ATOM     23  H   UNL     1      47.180 -22.509 -42.974  0.00  0.00    +0.000 HD
ENDBRANCH  10  22
TORSDOF 2
ENDMDL
MODEL 9
REMARK VINA RESULT:    -6.228     18.891     21.376
REMARK INTER + INTRA:          -6.852
REMARK INTER:                  -6.765
REMARK INTRA:                  -0.087
REMARK UNBOUND:                -0.077
REMARK  Name = cpd3.pdb
REMARK  4 active torsions:
REMARK  status: ('A' for Active; 'I' for Inactive)
REMARK    1  A    between atoms: C_1  and  O_2
REMARK    2  A    between atoms: O_2  and  C_3
REMARK    3  A    between atoms: C_12  and  O_13
REMARK    4  A    between atoms: N_19  and  C_20
REMARK                            x       y       z     vdW  Elec       q    Type
REMARK                         _______ _______ _______ _____ _____    ______ ____
ROOT
ATOM      1  C   UNL     1      42.444 -20.859 -39.680  0.00  0.00    +0.162 A 
ATOM      2  C   UNL     1      41.948 -19.751 -38.996  0.00  0.00    -0.016 A 
ATOM      3  C   UNL     1      42.826 -18.826 -38.400  0.00  0.00    -0.053 A 
ATOM      4  C   UNL     1      44.225 -18.953 -38.508  0.00  0.00    -0.026 A 
ATOM      5  C   UNL     1      44.702 -20.033 -39.249  0.00  0.00    +0.016 A 
ATOM      6  C   UNL     1      43.825 -20.982 -39.767  0.00  0.00    +0.167 A 
ATOM      7  O   UNL     1      44.454 -22.072 -40.316  0.00  0.00    -0.484 OA
ATOM      8  C   UNL     1      45.849 -21.932 -39.922  0.00  0.00    +0.116 C 
ATOM      9  C   UNL     1      46.680 -22.515 -41.077  0.00  0.00    +0.015 C 
ATOM     10  C   UNL     1      47.938 -21.722 -41.409  0.00  0.00    +0.077 C 
ATOM     11  C   UNL     1      47.609 -20.273 -41.543  0.00  0.00    -0.059 C 
ATOM     12  C   UNL     1      46.737 -19.686 -40.710  0.00  0.00    -0.071 C 
ATOM     13  C   UNL     1      46.114 -20.438 -39.548  0.00  0.00    +0.056 C 
ATOM     14  C   UNL     1      46.963 -20.315 -38.267  0.00  0.00    -0.024 C 
ATOM     15  C   UNL     1      47.393 -18.883 -37.905  0.00  0.00    +0.000 C 
ATOM     16  N   UNL     1      46.454 -17.802 -38.241  0.00  0.00    -0.301 N 
ATOM     17  C   UNL     1      46.997 -16.518 -37.792  0.00  0.00    -0.012 C 
ATOM     18  C   UNL     1      45.101 -18.005 -37.714  0.00  0.00    +0.024 C 
ATOM     19  H   UNL     1      46.355 -17.805 -39.257  0.00  0.00    +0.000 HD
ENDROOT
BRANCH   1  21
ATOM     20  C   UNL     1      40.606 -22.352 -39.489  0.00  0.00    +0.079 C 
ATOM     21  O   UNL     1      41.698 -21.853 -40.246  0.00  0.00    -0.491 OA
ENDBRANCH   1  21
BRANCH  10  22
ATOM     22  O   UNL     1      48.474 -22.163 -42.649  0.00  0.00    -0.388 OA
ATOM     23  H   UNL     1      49.443 -22.146 -42.606  0.00  0.00    +0.000 HD
ENDBRANCH  10  22
TORSDOF 2
ENDMDL
MODEL 10
REMARK VINA RESULT:    -6.215     14.411     16.854
REMARK INTER + INTRA:          -6.838
REMARK INTER:                  -6.747
REMARK INTRA:                  -0.091
REMARK UNBOUND:                -0.077
REMARK  Name = cpd3.pdb
REMARK  4 active torsions:
REMARK  status: ('A' for Active; 'I' for Inactive)
REMARK    1  A    between atoms: C_1  and  O_2
REMARK    2  A    between atoms: O_2  and  C_3
REMARK    3  A    between atoms: C_12  and  O_13
REMARK    4  A    between atoms: N_19  and  C_20
REMARK                            x       y       z     vdW  Elec       q    Type
REMARK                         _______ _______ _______ _____ _____    ______ ____
ROOT
ATOM      1  C   UNL     1      38.085 -23.174 -33.454  0.00  0.00    +0.162 A 
ATOM      2  C   UNL     1      37.049 -22.392 -32.945  0.00  0.00    -0.016 A 
ATOM      3  C   UNL     1      36.841 -21.083 -33.419  0.00  0.00    -0.053 A 
ATOM      4  C   UNL     1      37.631 -20.530 -34.447  0.00  0.00    -0.026 A 
ATOM      5  C   UNL     1      38.621 -21.349 -34.988  0.00  0.00    +0.016 A 
ATOM      6  C   UNL     1      38.865 -22.613 -34.457  0.00  0.00    +0.167 A 
ATOM      7  O   UNL     1      39.981 -23.223 -34.977  0.00  0.00    -0.484 OA
ATOM      8  C   UNL     1      40.650 -22.180 -35.742  0.00  0.00    +0.116 C 
ATOM      9  C   UNL     1      41.315 -22.886 -36.935  0.00  0.00    +0.015 C 
ATOM     10  C   UNL     1      41.215 -22.125 -38.251  0.00  0.00    +0.077 C 
ATOM     11  C   UNL     1      39.808 -21.691 -38.487  0.00  0.00    -0.059 C 
ATOM     12  C   UNL     1      39.050 -21.237 -37.477  0.00  0.00    -0.071 C 
ATOM     13  C   UNL     1      39.610 -21.062 -36.077  0.00  0.00    +0.056 C 
ATOM     14  C   UNL     1      40.203 -19.654 -35.871  0.00  0.00    -0.024 C 
ATOM     15  C   UNL     1      39.296 -18.493 -36.312  0.00  0.00    +0.000 C 
ATOM     16  N   UNL     1      37.847 -18.683 -36.151  0.00  0.00    -0.301 N 
ATOM     17  C   UNL     1      37.139 -17.474 -36.578  0.00  0.00    -0.012 C 
ATOM     18  C   UNL     1      37.445 -19.067 -34.795  0.00  0.00    +0.024 C 
ATOM     19  H   UNL     1      37.587 -19.471 -36.747  0.00  0.00    +0.000 HD
ENDROOT
BRANCH   1  21
ATOM     20  C   UNL     1      37.401 -25.414 -33.058  0.00  0.00    +0.079 C 
ATOM     21  O   UNL     1      38.423 -24.429 -33.037  0.00  0.00    -0.491 OA
ENDBRANCH   1  21
BRANCH  10  22
ATOM     22  O   UNL     1      41.595 -22.971 -39.329  0.00  0.00    -0.388 OA
ATOM     23  H   UNL     1      42.535 -22.836 -39.529  0.00  0.00    +0.000 HD
ENDBRANCH  10  22
TORSDOF 2
ENDMDL
MODEL 11
REMARK VINA RESULT:    -6.044     38.497     39.931
REMARK INTER + INTRA:          -6.651
REMARK INTER:                  -6.562
REMARK INTRA:                  -0.089
REMARK UNBOUND:                -0.077
REMARK  Name = cpd3.pdb
REMARK  4 active torsions:
REMARK  status: ('A' for Active; 'I' for Inactive)
REMARK    1  A    between atoms: C_1  and  O_2
REMARK    2  A    between atoms: O_2  and  C_3
REMARK    3  A    between atoms: C_12  and  O_13
REMARK    4  A    between atoms: N_19  and  C_20
REMARK                            x       y       z     vdW  Elec       q    Type
REMARK                         _______ _______ _______ _____ _____    ______ ____
ROOT
ATOM      1  C   UNL     1      64.132 -26.132  -6.496  0.00  0.00    +0.162 A 
ATOM      2  C   UNL     1      63.621 -25.973  -7.783  0.00  0.00    -0.016 A 
ATOM      3  C   UNL     1      63.373 -24.688  -8.301  0.00  0.00    -0.053 A 
ATOM      4  C   UNL     1      63.671 -23.522  -7.569  0.00  0.00    -0.026 A 
ATOM      5  C   UNL     1      64.240 -23.698  -6.309  0.00  0.00    +0.016 A 
ATOM      6  C   UNL     1      64.408 -24.975  -5.778  0.00  0.00    +0.167 A 
ATOM      7  O   UNL     1      64.814 -24.977  -4.466  0.00  0.00    -0.484 OA
ATOM      8  C   UNL     1      64.680 -23.592  -4.035  0.00  0.00    +0.116 C 
ATOM      9  C   UNL     1      65.806 -23.351  -3.017  0.00  0.00    +0.015 C 
ATOM     10  C   UNL     1      66.488 -21.994  -3.142  0.00  0.00    +0.077 C 
ATOM     11  C   UNL     1      66.863 -21.738  -4.562  0.00  0.00    -0.059 C 
ATOM     12  C   UNL     1      66.042 -22.088  -5.564  0.00  0.00    -0.071 C 
ATOM     13  C   UNL     1      64.668 -22.675  -5.301  0.00  0.00    +0.056 C 
ATOM     14  C   UNL     1      63.588 -21.579  -5.197  0.00  0.00    -0.024 C 
ATOM     15  C   UNL     1      63.599 -20.543  -6.334  0.00  0.00    +0.000 C 
ATOM     16  N   UNL     1      63.999 -21.022  -7.666  0.00  0.00    -0.301 N 
ATOM     17  C   UNL     1      63.913 -19.925  -8.631  0.00  0.00    -0.012 C 
ATOM     18  C   UNL     1      63.235 -22.183  -8.132  0.00  0.00    +0.024 C 
ATOM     19  H   UNL     1      64.963 -21.344  -7.584  0.00  0.00    +0.000 HD
ENDROOT
BRANCH   1  21
ATOM     20  C   UNL     1      63.317 -28.283  -5.905  0.00  0.00    +0.079 C 
ATOM     21  O   UNL     1      64.359 -27.320  -5.862  0.00  0.00    -0.491 OA
ENDBRANCH   1  21
BRANCH  10  22
ATOM     22  O   UNL     1      67.679 -21.977  -2.368  0.00  0.00    -0.388 OA
ATOM     23  H   UNL     1      68.168 -21.158  -2.544  0.00  0.00    +0.000 HD
ENDBRANCH  10  22
TORSDOF 2
ENDMDL
MODEL 12
REMARK VINA RESULT:    -6.041     20.081     21.818
REMARK INTER + INTRA:          -6.648
REMARK INTER:                  -6.552
REMARK INTRA:                  -0.096
REMARK UNBOUND:                -0.077
REMARK  Name = cpd3.pdb
REMARK  4 active torsions:
REMARK  status: ('A' for Active; 'I' for Inactive)
REMARK    1  A    between atoms: C_1  and  O_2
REMARK    2  A    between atoms: O_2  and  C_3
REMARK    3  A    between atoms: C_12  and  O_13
REMARK    4  A    between atoms: N_19  and  C_20
REMARK                            x       y       z     vdW  Elec       q    Type
REMARK                         _______ _______ _______ _____ _____    ______ ____
ROOT
ATOM      1  C   UNL     1      46.461 -21.434 -41.566  0.00  0.00    +0.162 A 
ATOM      2  C   UNL     1      45.337 -21.777 -42.315  0.00  0.00    -0.016 A 
ATOM      3  C   UNL     1      44.043 -21.551 -41.809  0.00  0.00    -0.053 A 
ATOM      4  C   UNL     1      43.831 -20.934 -40.560  0.00  0.00    -0.026 A 
ATOM      5  C   UNL     1      44.966 -20.540 -39.853  0.00  0.00    +0.016 A 
ATOM      6  C   UNL     1      46.240 -20.840 -40.330  0.00  0.00    +0.167 A 
ATOM      7  O   UNL     1      47.244 -20.546 -39.441  0.00  0.00    -0.484 OA
ATOM      8  C   UNL     1      46.557 -20.242 -38.194  0.00  0.00    +0.116 C 
ATOM      9  C   UNL     1      47.405 -19.170 -37.489  0.00  0.00    +0.015 C 
ATOM     10  C   UNL     1      46.594 -18.072 -36.813  0.00  0.00    +0.077 C 
ATOM     11  C   UNL     1      45.567 -17.540 -37.755  0.00  0.00    -0.059 C 
ATOM     12  C   UNL     1      44.892 -18.361 -38.572  0.00  0.00    -0.071 C 
ATOM     13  C   UNL     1      45.075 -19.867 -38.518  0.00  0.00    +0.056 C 
ATOM     14  C   UNL     1      44.093 -20.527 -37.531  0.00  0.00    -0.024 C 
ATOM     15  C   UNL     1      42.624 -20.099 -37.688  0.00  0.00    +0.000 C 
ATOM     16  N   UNL     1      42.163 -19.793 -39.051  0.00  0.00    -0.301 N 
ATOM     17  C   UNL     1      40.740 -19.446 -39.025  0.00  0.00    -0.012 C 
ATOM     18  C   UNL     1      42.417 -20.864 -40.018  0.00  0.00    +0.024 C 
ATOM     19  H   UNL     1      42.713 -18.996 -39.374  0.00  0.00    +0.000 HD
ENDROOT
BRANCH   1  21
ATOM     20  C   UNL     1      48.225 -22.997 -41.869  0.00  0.00    +0.079 C 
ATOM     21  O   UNL     1      47.761 -21.656 -41.921  0.00  0.00    -0.491 OA
ENDBRANCH   1  21
BRANCH  10  22
ATOM     22  O   UNL     1      47.447 -16.996 -36.447  0.00  0.00    -0.388 OA
ATOM     23  H   UNL     1      47.739 -16.529 -37.245  0.00  0.00    +0.000 HD
ENDBRANCH  10  22
TORSDOF 2
ENDMDL
MODEL 13
REMARK VINA RESULT:    -5.994     18.393     21.145
REMARK INTER + INTRA:          -6.597
REMARK INTER:                  -6.514
REMARK INTRA:                  -0.083
REMARK UNBOUND:                -0.077
REMARK  Name = cpd3.pdb
REMARK  4 active torsions:
REMARK  status: ('A' for Active; 'I' for Inactive)
REMARK    1  A    between atoms: C_1  and  O_2
REMARK    2  A    between atoms: O_2  and  C_3
REMARK    3  A    between atoms: C_12  and  O_13
REMARK    4  A    between atoms: N_19  and  C_20
REMARK                            x       y       z     vdW  Elec       q    Type
REMARK                         _______ _______ _______ _____ _____    ______ ____
ROOT
ATOM      1  C   UNL     1      46.191 -21.727 -41.750  0.00  0.00    +0.162 A 
ATOM      2  C   UNL     1      47.296 -21.007 -41.299  0.00  0.00    -0.016 A 
ATOM      3  C   UNL     1      47.138 -19.963 -40.368  0.00  0.00    -0.053 A 
ATOM      4  C   UNL     1      45.880 -19.637 -39.824  0.00  0.00    -0.026 A 
ATOM      5  C   UNL     1      44.796 -20.408 -40.238  0.00  0.00    +0.016 A 
ATOM      6  C   UNL     1      44.954 -21.386 -41.218  0.00  0.00    +0.167 A 
ATOM      7  O   UNL     1      43.769 -21.935 -41.643  0.00  0.00    -0.484 OA
ATOM      8  C   UNL     1      42.738 -21.088 -41.061  0.00  0.00    +0.116 C 
ATOM      9  C   UNL     1      41.545 -22.011 -40.764  0.00  0.00    +0.015 C 
ATOM     10  C   UNL     1      40.845 -21.725 -39.441  0.00  0.00    +0.077 C 
ATOM     11  C   UNL     1      41.847 -21.623 -38.342  0.00  0.00    -0.059 C 
ATOM     12  C   UNL     1      43.023 -21.008 -38.538  0.00  0.00    -0.071 C 
ATOM     13  C   UNL     1      43.352 -20.317 -39.848  0.00  0.00    +0.056 C 
ATOM     14  C   UNL     1      42.919 -18.837 -39.838  0.00  0.00    -0.024 C 
ATOM     15  C   UNL     1      43.360 -18.037 -38.601  0.00  0.00    +0.000 C 
ATOM     16  N   UNL     1      44.651 -18.403 -37.998  0.00  0.00    -0.301 N 
ATOM     17  C   UNL     1      44.935 -17.521 -36.865  0.00  0.00    -0.012 C 
ATOM     18  C   UNL     1      45.769 -18.406 -38.946  0.00  0.00    +0.024 C 
ATOM     19  H   UNL     1      44.561 -19.368 -37.678  0.00  0.00    +0.000 HD
ENDROOT
BRANCH   1  21
ATOM     20  C   UNL     1      47.217 -23.707 -42.570  0.00  0.00    +0.079 C 
ATOM     21  O   UNL     1      46.207 -22.716 -42.691  0.00  0.00    -0.491 OA
ENDBRANCH   1  21
BRANCH  10  22
ATOM     22  O   UNL     1      39.958 -22.789 -39.123  0.00  0.00    -0.388 OA
ATOM     23  H   UNL     1      40.058 -23.499 -39.777  0.00  0.00    +0.000 HD
ENDBRANCH  10  22
TORSDOF 2
ENDMDL
MODEL 14
REMARK VINA RESULT:    -5.982     37.602     38.999
REMARK INTER + INTRA:          -6.584
REMARK INTER:                  -6.506
REMARK INTRA:                  -0.078
REMARK UNBOUND:                -0.077
REMARK  Name = cpd3.pdb
REMARK  4 active torsions:
REMARK  status: ('A' for Active; 'I' for Inactive)
REMARK    1  A    between atoms: C_1  and  O_2
REMARK    2  A    between atoms: O_2  and  C_3
REMARK    3  A    between atoms: C_12  and  O_13
REMARK    4  A    between atoms: N_19  and  C_20
REMARK                            x       y       z     vdW  Elec       q    Type
REMARK                         _______ _______ _______ _____ _____    ______ ____
ROOT
ATOM      1  C   UNL     1      63.223 -21.279  -8.878  0.00  0.00    +0.162 A 
ATOM      2  C   UNL     1      63.176 -22.388  -9.721  0.00  0.00    -0.016 A 
ATOM      3  C   UNL     1      63.343 -23.687  -9.204  0.00  0.00    -0.053 A 
ATOM      4  C   UNL     1      63.516 -23.921  -7.825  0.00  0.00    -0.026 A 
ATOM      5  C   UNL     1      63.497 -22.805  -6.991  0.00  0.00    +0.016 A 
ATOM      6  C   UNL     1      63.408 -21.522  -7.523  0.00  0.00    +0.167 A 
ATOM      7  O   UNL     1      63.579 -20.526  -6.593  0.00  0.00    -0.484 OA
ATOM      8  C   UNL     1      64.044 -21.214  -5.396  0.00  0.00    +0.116 C 
ATOM      9  C   UNL     1      63.473 -20.430  -4.204  0.00  0.00    +0.015 C 
ATOM     10  C   UNL     1      62.970 -21.302  -3.060  0.00  0.00    +0.077 C 
ATOM     11  C   UNL     1      62.080 -22.375  -3.588  0.00  0.00    -0.059 C 
ATOM     12  C   UNL     1      62.368 -23.006  -4.737  0.00  0.00    -0.071 C 
ATOM     13  C   UNL     1      63.648 -22.722  -5.502  0.00  0.00    +0.056 C 
ATOM     14  C   UNL     1      64.799 -23.645  -5.053  0.00  0.00    -0.024 C 
ATOM     15  C   UNL     1      64.448 -25.141  -4.989  0.00  0.00    +0.000 C 
ATOM     16  N   UNL     1      63.482 -25.640  -5.980  0.00  0.00    -0.301 N 
ATOM     17  C   UNL     1      63.297 -27.082  -5.804  0.00  0.00    -0.012 C 
ATOM     18  C   UNL     1      63.840 -25.329  -7.366  0.00  0.00    +0.024 C 
ATOM     19  H   UNL     1      62.605 -25.149  -5.806  0.00  0.00    +0.000 HD
ENDROOT
BRANCH   1  21
ATOM     20  C   UNL     1      63.071 -19.715 -10.660  0.00  0.00    +0.079 C 
ATOM     21  O   UNL     1      63.134 -19.972  -9.265  0.00  0.00    -0.491 OA
ENDBRANCH   1  21
BRANCH  10  22
ATOM     22  O   UNL     1      62.213 -20.517  -2.150  0.00  0.00    -0.388 OA
ATOM     23  H   UNL     1      61.725 -21.101  -1.548  0.00  0.00    +0.000 HD
ENDBRANCH  10  22
TORSDOF 2
ENDMDL
MODEL 15
REMARK VINA RESULT:    -5.911     24.314     27.291
REMARK INTER + INTRA:          -6.507
REMARK INTER:                  -6.427
REMARK INTRA:                  -0.080
REMARK UNBOUND:                -0.077
REMARK  Name = cpd3.pdb
REMARK  4 active torsions:
REMARK  status: ('A' for Active; 'I' for Inactive)
REMARK    1  A    between atoms: C_1  and  O_2
REMARK    2  A    between atoms: O_2  and  C_3
REMARK    3  A    between atoms: C_12  and  O_13
REMARK    4  A    between atoms: N_19  and  C_20
REMARK                            x       y       z     vdW  Elec       q    Type
REMARK                         _______ _______ _______ _____ _____    ______ ____
ROOT
ATOM      1  C   UNL     1      55.431 -35.205 -46.864  0.00  0.00    +0.162 A 
ATOM      2  C   UNL     1      56.188 -34.094 -47.232  0.00  0.00    -0.016 A 
ATOM      3  C   UNL     1      56.514 -33.865 -48.582  0.00  0.00    -0.053 A 
ATOM      4  C   UNL     1      56.056 -34.712 -49.611  0.00  0.00    -0.026 A 
ATOM      5  C   UNL     1      55.248 -35.782 -49.231  0.00  0.00    +0.016 A 
ATOM      6  C   UNL     1      54.998 -36.041 -47.885  0.00  0.00    +0.167 A 
ATOM      7  O   UNL     1      54.336 -37.224 -47.665  0.00  0.00    -0.484 OA
ATOM      8  C   UNL     1      54.358 -37.905 -48.953  0.00  0.00    +0.116 C 
ATOM      9  C   UNL     1      53.046 -38.702 -49.035  0.00  0.00    +0.015 C 
ATOM     10  C   UNL     1      52.382 -38.679 -50.407  0.00  0.00    +0.077 C 
ATOM     11  C   UNL     1      52.296 -37.277 -50.910  0.00  0.00    -0.059 C 
ATOM     12  C   UNL     1      53.307 -36.416 -50.723  0.00  0.00    -0.071 C 
ATOM     13  C   UNL     1      54.610 -36.845 -50.074  0.00  0.00    +0.056 C 
ATOM     14  C   UNL     1      55.628 -37.351 -51.115  0.00  0.00    -0.024 C 
ATOM     15  C   UNL     1      55.829 -36.431 -52.331  0.00  0.00    +0.000 C 
ATOM     16  N   UNL     1      55.713 -34.983 -52.095  0.00  0.00    -0.301 N 
ATOM     17  C   UNL     1      55.973 -34.258 -53.341  0.00  0.00    -0.012 C 
ATOM     18  C   UNL     1      56.574 -34.487 -51.018  0.00  0.00    +0.024 C 
ATOM     19  H   UNL     1      54.757 -34.813 -51.783  0.00  0.00    +0.000 HD
ENDROOT
BRANCH   1  21
ATOM     20  C   UNL     1      53.917 -35.004 -45.044  0.00  0.00    +0.079 C 
ATOM     21  O   UNL     1      55.102 -35.566 -45.589  0.00  0.00    -0.491 OA
ENDBRANCH   1  21
BRANCH  10  22
ATOM     22  O   UNL     1      51.059 -39.189 -50.312  0.00  0.00    -0.388 OA
ATOM     23  H   UNL     1      50.471 -38.500 -49.964  0.00  0.00    +0.000 HD
ENDBRANCH  10  22
TORSDOF 2
ENDMDL
MODEL 16
REMARK VINA RESULT:    -5.770     15.683     18.050
REMARK INTER + INTRA:          -6.353
REMARK INTER:                  -6.257
REMARK INTRA:                  -0.096
REMARK UNBOUND:                -0.077
REMARK  Name = cpd3.pdb
REMARK  4 active torsions:
REMARK  status: ('A' for Active; 'I' for Inactive)
REMARK    1  A    between atoms: C_1  and  O_2
REMARK    2  A    between atoms: O_2  and  C_3
REMARK    3  A    between atoms: C_12  and  O_13
REMARK    4  A    between atoms: N_19  and  C_20
REMARK                            x       y       z     vdW  Elec       q    Type
REMARK                         _______ _______ _______ _____ _____    ______ ____
ROOT
ATOM      1  C   UNL     1      39.437 -22.181 -34.027  0.00  0.00    +0.162 A 
ATOM      2  C   UNL     1      39.212 -22.974 -35.151  0.00  0.00    -0.016 A 
ATOM      3  C   UNL     1      39.931 -22.750 -36.340  0.00  0.00    -0.053 A 
ATOM      4  C   UNL     1      40.927 -21.757 -36.430  0.00  0.00    -0.026 A 
ATOM      5  C   UNL     1      41.182 -21.016 -35.278  0.00  0.00    +0.016 A 
ATOM      6  C   UNL     1      40.411 -21.196 -34.133  0.00  0.00    +0.167 A 
ATOM      7  O   UNL     1      40.666 -20.275 -33.146  0.00  0.00    -0.484 OA
ATOM      8  C   UNL     1      41.508 -19.273 -33.785  0.00  0.00    +0.116 C 
ATOM      9  C   UNL     1      42.461 -18.759 -32.693  0.00  0.00    +0.015 C 
ATOM     10  C   UNL     1      43.892 -18.531 -33.165  0.00  0.00    +0.077 C 
ATOM     11  C   UNL     1      44.382 -19.725 -33.912  0.00  0.00    -0.059 C 
ATOM     12  C   UNL     1      43.575 -20.388 -34.754  0.00  0.00    -0.071 C 
ATOM     13  C   UNL     1      42.167 -19.908 -35.052  0.00  0.00    +0.056 C 
ATOM     14  C   UNL     1      42.134 -18.943 -36.253  0.00  0.00    -0.024 C 
ATOM     15  C   UNL     1      42.887 -19.430 -37.503  0.00  0.00    +0.000 C 
ATOM     16  N   UNL     1      42.886 -20.879 -37.756  0.00  0.00    -0.301 N 
ATOM     17  C   UNL     1      43.606 -21.164 -38.999  0.00  0.00    -0.012 C 
ATOM     18  C   UNL     1      41.548 -21.476 -37.785  0.00  0.00    +0.024 C 
ATOM     19  H   UNL     1      43.363 -21.314 -36.966  0.00  0.00    +0.000 HD
ENDROOT
BRANCH   1  21
ATOM     20  C   UNL     1      37.422 -21.804 -32.826  0.00  0.00    +0.079 C 
ATOM     21  O   UNL     1      38.766 -22.261 -32.841  0.00  0.00    -0.491 OA
ENDBRANCH   1  21
BRANCH  10  22
ATOM     22  O   UNL     1      44.746 -18.338 -32.045  0.00  0.00    -0.388 OA
ATOM     23  H   UNL     1      45.671 -18.384 -32.333  0.00  0.00    +0.000 HD
ENDBRANCH  10  22
TORSDOF 2
ENDMDL
MODEL 17
REMARK VINA RESULT:    -5.768     18.342     20.946
REMARK INTER + INTRA:          -6.352
REMARK INTER:                  -6.255
REMARK INTRA:                  -0.097
REMARK UNBOUND:                -0.077
REMARK  Name = cpd3.pdb
REMARK  4 active torsions:
REMARK  status: ('A' for Active; 'I' for Inactive)
REMARK    1  A    between atoms: C_1  and  O_2
REMARK    2  A    between atoms: O_2  and  C_3
REMARK    3  A    between atoms: C_12  and  O_13
REMARK    4  A    between atoms: N_19  and  C_20
REMARK                            x       y       z     vdW  Elec       q    Type
REMARK                         _______ _______ _______ _____ _____    ______ ____
ROOT
ATOM      1  C   UNL     1      41.696 -21.014 -40.043  0.00  0.00    +0.162 A 
ATOM      2  C   UNL     1      41.871 -21.699 -41.244  0.00  0.00    -0.016 A 
ATOM      3  C   UNL     1      43.127 -21.719 -41.880  0.00  0.00    -0.053 A 
ATOM      4  C   UNL     1      44.256 -21.095 -41.314  0.00  0.00    -0.026 A 
ATOM      5  C   UNL     1      44.077 -20.468 -40.082  0.00  0.00    +0.016 A 
ATOM      6  C   UNL     1      42.813 -20.391 -39.502  0.00  0.00    +0.167 A 
ATOM      7  O   UNL     1      42.768 -19.594 -38.384  0.00  0.00    -0.484 OA
ATOM      8  C   UNL     1      44.055 -18.914 -38.362  0.00  0.00    +0.116 C 
ATOM      9  C   UNL     1      44.412 -18.725 -36.879  0.00  0.00    +0.015 C 
ATOM     10  C   UNL     1      45.881 -18.965 -36.551  0.00  0.00    +0.077 C 
ATOM     11  C   UNL     1      46.334 -20.256 -37.144  0.00  0.00    -0.059 C 
ATOM     12  C   UNL     1      45.927 -20.631 -38.366  0.00  0.00    -0.071 C 
ATOM     13  C   UNL     1      45.066 -19.730 -39.231  0.00  0.00    +0.056 C 
ATOM     14  C   UNL     1      45.920 -18.808 -40.125  0.00  0.00    -0.024 C 
ATOM     15  C   UNL     1      47.039 -19.514 -40.909  0.00  0.00    +0.000 C 
ATOM     16  N   UNL     1      46.770 -20.889 -41.358  0.00  0.00    -0.301 N 
ATOM     17  C   UNL     1      47.915 -21.392 -42.120  0.00  0.00    -0.012 C 
ATOM     18  C   UNL     1      45.532 -21.030 -42.130  0.00  0.00    +0.024 C 
ATOM     19  H   UNL     1      46.634 -21.450 -40.517  0.00  0.00    +0.000 HD
ENDROOT
BRANCH   1  21
ATOM     20  C   UNL     1      39.968 -22.041 -38.776  0.00  0.00    +0.079 C 
ATOM     21  O   UNL     1      40.520 -20.873 -39.364  0.00  0.00    -0.491 OA
ENDBRANCH   1  21
BRANCH  10  22
ATOM     22  O   UNL     1      46.055 -19.049 -35.143  0.00  0.00    -0.388 OA
ATOM     23  H   UNL     1      45.373 -18.518 -34.701  0.00  0.00    +0.000 HD
ENDBRANCH  10  22
TORSDOF 2
ENDMDL
MODEL 18
REMARK VINA RESULT:    -5.618     25.350     28.115
REMARK INTER + INTRA:          -6.188
REMARK INTER:                  -6.101
REMARK INTRA:                  -0.087
REMARK UNBOUND:                -0.077
REMARK  Name = cpd3.pdb
REMARK  4 active torsions:
REMARK  status: ('A' for Active; 'I' for Inactive)
REMARK    1  A    between atoms: C_1  and  O_2
REMARK    2  A    between atoms: O_2  and  C_3
REMARK    3  A    between atoms: C_12  and  O_13
REMARK    4  A    between atoms: N_19  and  C_20
REMARK                            x       y       z     vdW  Elec       q    Type
REMARK                         _______ _______ _______ _____ _____    ______ ____
ROOT
ATOM      1  C   UNL     1      44.789 -35.766 -54.280  0.00  0.00    +0.162 A 
ATOM      2  C   UNL     1      45.038 -35.392 -52.961  0.00  0.00    -0.016 A 
ATOM      3  C   UNL     1      45.722 -34.197 -52.673  0.00  0.00    -0.053 A 
ATOM      4  C   UNL     1      46.138 -33.315 -53.691  0.00  0.00    -0.026 A 
ATOM      5  C   UNL     1      45.824 -33.674 -55.000  0.00  0.00    +0.016 A 
ATOM      6  C   UNL     1      45.216 -34.896 -55.275  0.00  0.00    +0.167 A 
ATOM      7  O   UNL     1      45.133 -35.181 -56.616  0.00  0.00    -0.484 OA
ATOM      8  C   UNL     1      45.959 -34.170 -57.261  0.00  0.00    +0.116 C 
ATOM      9  C   UNL     1      45.298 -33.881 -58.619  0.00  0.00    +0.015 C 
ATOM     10  C   UNL     1      45.288 -32.409 -59.013  0.00  0.00    +0.077 C 
ATOM     11  C   UNL     1      44.782 -31.579 -57.881  0.00  0.00    -0.059 C 
ATOM     12  C   UNL     1      45.133 -31.855 -56.616  0.00  0.00    -0.071 C 
ATOM     13  C   UNL     1      46.119 -32.960 -56.285  0.00  0.00    +0.056 C 
ATOM     14  C   UNL     1      47.571 -32.440 -56.258  0.00  0.00    -0.024 C 
ATOM     15  C   UNL     1      47.790 -31.161 -55.432  0.00  0.00    +0.000 C 
ATOM     16  N   UNL     1      46.953 -30.990 -54.236  0.00  0.00    -0.301 N 
ATOM     17  C   UNL     1      47.320 -29.750 -53.549  0.00  0.00    -0.012 C 
ATOM     18  C   UNL     1      47.000 -32.127 -53.312  0.00  0.00    +0.024 C 
ATOM     19  H   UNL     1      45.987 -30.940 -54.560  0.00  0.00    +0.000 HD
ENDROOT
BRANCH   1  21
ATOM     20  C   UNL     1      42.772 -36.936 -54.736  0.00  0.00    +0.079 C 
ATOM     21  O   UNL     1      44.190 -36.924 -54.687  0.00  0.00    -0.491 OA
ENDBRANCH   1  21
BRANCH  10  22
ATOM     22  O   UNL     1      44.419 -32.210 -60.119  0.00  0.00    -0.388 OA
ATOM     23  H   UNL     1      43.512 -32.440 -59.864  0.00  0.00    +0.000 HD
ENDBRANCH  10  22
TORSDOF 2
ENDMDL
MODEL 19
REMARK VINA RESULT:    -5.541     16.986     19.384
REMARK INTER + INTRA:          -6.105
REMARK INTER:                  -6.006
REMARK INTRA:                  -0.099
REMARK UNBOUND:                -0.077
REMARK  Name = cpd3.pdb
REMARK  4 active torsions:
REMARK  status: ('A' for Active; 'I' for Inactive)
REMARK    1  A    between atoms: C_1  and  O_2
REMARK    2  A    between atoms: O_2  and  C_3
REMARK    3  A    between atoms: C_12  and  O_13
REMARK    4  A    between atoms: N_19  and  C_20
REMARK                            x       y       z     vdW  Elec       q    Type
REMARK                         _______ _______ _______ _____ _____    ______ ____
ROOT
ATOM      1  C   UNL     1      41.336 -21.342 -34.695  0.00  0.00    +0.162 A 
ATOM      2  C   UNL     1      40.849 -22.203 -35.678  0.00  0.00    -0.016 A 
ATOM      3  C   UNL     1      41.415 -22.211 -36.966  0.00  0.00    -0.053 A 
ATOM      4  C   UNL     1      42.514 -21.394 -37.300  0.00  0.00    -0.026 A 
ATOM      5  C   UNL     1      43.027 -20.586 -36.288  0.00  0.00    +0.016 A 
ATOM      6  C   UNL     1      42.409 -20.531 -35.041  0.00  0.00    +0.167 A 
ATOM      7  O   UNL     1      42.923 -19.563 -34.213  0.00  0.00    -0.484 OA
ATOM      8  C   UNL     1      43.794 -18.769 -35.069  0.00  0.00    +0.116 C 
ATOM      9  C   UNL     1      44.952 -18.295 -34.176  0.00  0.00    +0.015 C 
ATOM     10  C   UNL     1      46.320 -18.334 -34.848  0.00  0.00    +0.077 C 
ATOM     11  C   UNL     1      46.533 -19.658 -35.500  0.00  0.00    -0.059 C 
ATOM     12  C   UNL     1      45.533 -20.275 -36.148  0.00  0.00    -0.071 C 
ATOM     13  C   UNL     1      44.174 -19.622 -36.323  0.00  0.00    +0.056 C 
ATOM     14  C   UNL     1      44.102 -18.790 -37.618  0.00  0.00    -0.024 C 
ATOM     15  C   UNL     1      44.597 -19.510 -38.884  0.00  0.00    +0.000 C 
ATOM     16  N   UNL     1      44.365 -20.960 -38.958  0.00  0.00    -0.301 N 
ATOM     17  C   UNL     1      44.857 -21.474 -40.237  0.00  0.00    -0.012 C 
ATOM     18  C   UNL     1      42.968 -21.349 -38.746  0.00  0.00    +0.024 C 
ATOM     19  H   UNL     1      44.886 -21.379 -38.187  0.00  0.00    +0.000 HD
ENDROOT
BRANCH   1  21
ATOM     20  C   UNL     1      41.170 -22.204 -32.488  0.00  0.00    +0.079 C 
ATOM     21  O   UNL     1      40.835 -21.199 -33.433  0.00  0.00    -0.491 OA
ENDBRANCH   1  21
BRANCH  10  22
ATOM     22  O   UNL     1      47.341 -18.159 -33.876  0.00  0.00    -0.388 OA
ATOM     23  H   UNL     1      46.942 -17.905 -33.029  0.00  0.00    +0.000 HD
ENDBRANCH  10  22
TORSDOF 2
ENDMDL
MODEL 20
REMARK VINA RESULT:    -5.455     15.332     17.500
REMARK INTER + INTRA:          -6.011
REMARK INTER:                  -5.921
REMARK INTRA:                  -0.090
REMARK UNBOUND:                -0.077
REMARK  Name = cpd3.pdb
REMARK  4 active torsions:
REMARK  status: ('A' for Active; 'I' for Inactive)
REMARK    1  A    between atoms: C_1  and  O_2
REMARK    2  A    between atoms: O_2  and  C_3
REMARK    3  A    between atoms: C_12  and  O_13
REMARK    4  A    between atoms: N_19  and  C_20
REMARK                            x       y       z     vdW  Elec       q    Type
REMARK                         _______ _______ _______ _____ _____    ______ ____
ROOT
ATOM      1  C   UNL     1      36.822 -18.449 -32.817  0.00  0.00    +0.162 A 
ATOM      2  C   UNL     1      37.390 -17.203 -32.557  0.00  0.00    -0.016 A 
ATOM      3  C   UNL     1      38.784 -17.025 -32.622  0.00  0.00    -0.053 A 
ATOM      4  C   UNL     1      39.651 -18.072 -32.993  0.00  0.00    -0.026 A 
ATOM      5  C   UNL     1      39.060 -19.294 -33.310  0.00  0.00    +0.016 A 
ATOM      6  C   UNL     1      37.687 -19.477 -33.166  0.00  0.00    +0.167 A 
ATOM      7  O   UNL     1      37.283 -20.778 -33.347  0.00  0.00    -0.484 OA
ATOM      8  C   UNL     1      38.519 -21.547 -33.385  0.00  0.00    +0.116 C 
ATOM      9  C   UNL     1      38.266 -22.713 -34.354  0.00  0.00    +0.015 C 
ATOM     10  C   UNL     1      39.440 -23.035 -35.270  0.00  0.00    +0.077 C 
ATOM     11  C   UNL     1      39.948 -21.788 -35.910  0.00  0.00    -0.059 C 
ATOM     12  C   UNL     1      40.030 -20.643 -35.216  0.00  0.00    -0.071 C 
ATOM     13  C   UNL     1      39.697 -20.582 -33.737  0.00  0.00    +0.056 C 
ATOM     14  C   UNL     1      40.936 -20.855 -32.860  0.00  0.00    -0.024 C 
ATOM     15  C   UNL     1      42.190 -20.046 -33.234  0.00  0.00    +0.000 C 
ATOM     16  N   UNL     1      41.974 -18.689 -33.757  0.00  0.00    -0.301 N 
ATOM     17  C   UNL     1      43.266 -18.050 -34.020  0.00  0.00    -0.012 C 
ATOM     18  C   UNL     1      41.146 -17.844 -32.892  0.00  0.00    +0.024 C 
ATOM     19  H   UNL     1      41.449 -18.790 -34.626  0.00  0.00    +0.000 HD
ENDROOT
BRANCH   1  21
ATOM     20  C   UNL     1      34.591 -17.950 -33.462  0.00  0.00    +0.079 C 
ATOM     21  O   UNL     1      35.495 -18.761 -32.728  0.00  0.00    -0.491 OA
ENDBRANCH   1  21
BRANCH  10  22
ATOM     22  O   UNL     1      39.020 -23.915 -36.304  0.00  0.00    -0.388 OA
ATOM     23  H   UNL     1      38.534 -23.414 -36.977  0.00  0.00    +0.000 HD
ENDBRANCH  10  22
TORSDOF 2
ENDMDL
