@<TRIPOS>MOLECULE
*****
 21 24 0 0 0
SMALL
GASTEIGER

@<TRIPOS>ATOM
      1 C          -0.7871    4.3723    0.0000 C.3     1  UNL1        0.2526
      2 O          -0.2500    3.6084    0.0000 O.3     1  UNL1       -0.4684
      3 C          -0.2645    2.6747    0.0000 C.ar    1  UNL1        0.1721
      4 C          -1.0804    2.2203    0.0000 C.ar    1  UNL1        0.0397
      5 C          -1.0949    1.2861    0.0000 C.ar    1  UNL1        0.0001
      6 C          -0.2936    0.8066    0.0000 C.ar    1  UNL1       -0.0066
      7 C           0.5227    1.2609    0.0000 C.ar    1  UNL1        0.0187
      8 C           0.5373    2.1952    0.0000 C.ar    1  UNL1        0.1682
      9 O           1.3531    2.6495    0.0000 O.3     1  UNL1       -0.4757
     10 C           2.1549    2.1700    0.0000 C.3     1  UNL1        0.1762
     11 C           2.9712    2.6244    0.0000 C.3     1  UNL1        0.0816
     12 C           3.7726    2.1449    0.0000 C.3     1  UNL1        0.1773
     13 O           4.6020    2.6067    0.0000 O.3     1  UNL1       -0.2182
     14 C           3.7580    1.2106    0.0000 C.2     1  UNL1        0.0021
     15 C           2.9422    0.7563    0.0000 C.2     1  UNL1       -0.0211
     16 C           2.1404    1.2358    0.0000 C.3     1  UNL1        0.0780
     17 C           2.1404    0.3774    0.0000 C.3     1  UNL1        0.0290
     18 C           1.5887   -0.2801    0.0000 C.3     1  UNL1        0.0732
     19 N           0.7434   -0.4292    0.0000 N.3     1  UNL1       -0.2677
     20 C           0.5732   -1.3940    0.0000 C.3     1  UNL1        0.0899
     21 C           0.0000   -0.0000    0.0000 C.3     1  UNL1        0.0990
@<TRIPOS>BOND
     1     1     2    1
     2     2     3    1
     3     3     4   ar
     4     4     5   ar
     5     5     6   ar
     6     6     7   ar
     7     7     8   ar
     8     3     8   ar
     9     8     9    1
    10     9    10    1
    11    10    11    1
    12    11    12    1
    13    12    13    1
    14    12    14    1
    15    14    15    2
    16    15    16    1
    17     7    16    1
    18    10    16    1
    19    16    17    1
    20    17    18    1
    21    18    19    1
    22    19    20    1
    23    19    21    1
    24     6    21    1
