REMARK  Name = cpd3.pdb
REMARK  4 active torsions:
REMARK  status: ('A' for Active; 'I' for Inactive)
REMARK    1  A    between atoms: C_1  and  O_2
REMARK    2  A    between atoms: O_2  and  C_3
REMARK    3  A    between atoms: C_12  and  O_13
REMARK    4  A    between atoms: N_19  and  C_20
REMARK                            x       y       z     vdW  Elec       q    Type
REMARK                         _______ _______ _______ _____ _____    ______ ____
ROOT
ATOM      1  C   UNL     1      -0.705   3.646   0.126  0.00  0.00    +0.162 A 
ATOM      2  C   UNL     1      -1.821   2.831   0.310  0.00  0.00    -0.016 A 
ATOM      3  C   UNL     1      -1.700   1.430   0.258  0.00  0.00    -0.053 A 
ATOM      4  C   UNL     1      -0.455   0.798   0.067  0.00  0.00    -0.026 A 
ATOM      5  C   UNL     1       0.659   1.627  -0.052  0.00  0.00    +0.016 A 
ATOM      6  C   UNL     1       0.514   3.012  -0.076  0.00  0.00    +0.167 A 
ATOM      7  O   UNL     1       1.675   3.682  -0.375  0.00  0.00    -0.484 OA
ATOM      8  C   UNL     1       2.601   2.644  -0.806  0.00  0.00    +0.116 C 
ATOM      9  C   UNL     1       3.997   3.103  -0.354  0.00  0.00    +0.015 C 
ATOM     10  C   UNL     1       4.877   1.988   0.198  0.00  0.00    +0.077 C 
ATOM     11  C   UNL     1       4.122   1.192   1.208  0.00  0.00    -0.059 C 
ATOM     12  C   UNL     1       2.828   0.892   1.020  0.00  0.00    -0.071 C 
ATOM     13  C   UNL     1       2.100   1.269  -0.257  0.00  0.00    +0.056 C 
ATOM     14  C   UNL     1       2.204   0.160  -1.323  0.00  0.00    -0.024 C 
ATOM     15  C   UNL     1       1.866  -1.256  -0.826  0.00  0.00    +0.000 C 
ATOM     16  N   UNL     1       0.833  -1.366   0.215  0.00  0.00    -0.301 N 
ATOM     17  C   UNL     1       0.607  -2.776   0.539  0.00  0.00    -0.012 C 
ATOM     18  C   UNL     1      -0.429  -0.705  -0.129  0.00  0.00    +0.024 C 
ATOM     19  H   UNL     1       1.188  -0.870   1.033  0.00  0.00    +0.000 HD
ENDROOT
BRANCH   1  21
ATOM     20  C   UNL     1      -1.928   5.665   0.394  0.00  0.00    +0.079 C 
ATOM     21  O   UNL     1      -0.704   5.011   0.095  0.00  0.00    -0.491 OA
ENDBRANCH   1  21
BRANCH  10  22
ATOM     22  O   UNL     1       6.014   2.544   0.844  0.00  0.00    -0.388 OA
ATOM     23  H   UNL     1       5.725   3.106   1.580  0.00  0.00    +0.000 HD
ENDBRANCH  10  22
TORSDOF 2
