REMARK  Name = cpd250.pdb
REMARK  10 active torsions:
REMARK  status: ('A' for Active; 'I' for Inactive)
REMARK    1  A    between atoms: C_2  and  C_3
REMARK    2  A    between atoms: C_2  and  C_4
REMARK    3  A    between atoms: C_7  and  C_8
REMARK    4  A    between atoms: C_14  and  C_15
REMARK    5  A    between atoms: C_18  and  O_19
REMARK    6  A    between atoms: C_20  and  C_21
REMARK    7  A    between atoms: C_20  and  C_22
REMARK    8  A    between atoms: C_26  and  C_27
REMARK    9  A    between atoms: C_28  and  C_29
REMARK   10  A    between atoms: C_31  and  O_32
REMARK                            x       y       z     vdW  Elec       q    Type
REMARK                         _______ _______ _______ _____ _____    ______ ____
ROOT
ATOM      1  C   UNL A   1      -3.256  -1.296  -0.684  0.00  0.00    -0.017 C 
ATOM      2  C   UNL A   1      -3.499  -0.231  -1.781  0.00  0.00    -0.046 C 
ATOM      3  C   UNL A   1      -2.394   0.807  -1.622  0.00  0.00    -0.044 C 
ATOM      4  C   UNL A   1      -2.069   0.801  -0.119  0.00  0.00    -0.002 C 
ATOM      5  C   UNL A   1      -3.185   1.550   0.654  0.00  0.00    -0.057 C 
ATOM      6  C   UNL A   1      -2.093  -0.722   0.212  0.00  0.00    -0.023 C 
ATOM      7  C   UNL A   1      -0.736  -1.449  -0.104  0.00  0.00    -0.031 C 
ATOM      8  C   UNL A   1      -0.753  -2.920   0.344  0.00  0.00    -0.049 C 
ATOM      9  C   UNL A   1       0.517  -3.671  -0.053  0.00  0.00    -0.049 C 
ATOM     10  C   UNL A   1       1.793  -3.005   0.500  0.00  0.00    -0.029 C 
ATOM     11  C   UNL A   1       3.105  -3.915   0.391  0.00  0.00    -0.025 C 
ATOM     12  C   UNL A   1       2.945  -4.943   1.572  0.00  0.00    -0.059 C 
ATOM     13  C   UNL A   1       3.169  -4.738  -0.918  0.00  0.00    -0.045 C 
ATOM     14  C   UNL A   1       4.352  -5.706  -1.023  0.00  0.00    -0.026 C 
ATOM     15  C   UNL A   1       5.590  -5.311  -0.218  0.00  0.00    +0.061 C 
ATOM     16  C   UNL A   1       5.764  -3.779  -0.069  0.00  0.00    -0.006 C 
ATOM     17  C   UNL A   1       6.123  -3.166  -1.448  0.00  0.00    -0.057 C 
ATOM     18  C   UNL A   1       6.986  -3.515   0.849  0.00  0.00    -0.057 C 
ATOM     19  C   UNL A   1       4.467  -3.124   0.609  0.00  0.00    -0.028 C 
ATOM     20  C   UNL A   1       4.415  -1.605   0.332  0.00  0.00    -0.049 C 
ATOM     21  C   UNL A   1       3.123  -0.923   0.750  0.00  0.00    -0.047 C 
ATOM     22  C   UNL A   1       1.883  -1.513   0.034  0.00  0.00    -0.023 C 
ATOM     23  C   UNL A   1       2.095  -1.418  -1.503  0.00  0.00    -0.059 C 
ATOM     24  C   UNL A   1       0.531  -0.711   0.456  0.00  0.00    -0.021 C 
ATOM     25  C   UNL A   1       0.435  -0.570   2.007  0.00  0.00    -0.059 C 
ATOM     26  C   UNL A   1       0.511   0.719  -0.150  0.00  0.00    -0.020 C 
ATOM     27  C   UNL A   1      -0.740   1.517   0.212  0.00  0.00    +0.061 C 
ENDROOT
BRANCH   1  29
ATOM     28  C   UNL A   1      -5.695  -1.244   0.110  0.00  0.00    -0.099 C 
ATOM     29  C   UNL A   1      -4.464  -1.786   0.120  0.00  0.00    -0.076 C 
ATOM     30  C   UNL A   1      -4.230  -3.024   0.954  0.00  0.00    -0.044 C 
ENDBRANCH   1  29
BRANCH  15  31
ATOM     31  O   UNL A   1       6.740  -5.940  -0.790  0.00  0.00    -0.391 OA
ATOM     32  H   UNL A   1       6.862  -5.625  -1.699  0.00  0.00    +0.000 HD
ENDBRANCH  15  31
BRANCH  27  33
ATOM     33  O   UNL A   1      -0.691   2.775  -0.467  0.00  0.00    -0.391 OA
ATOM     34  H   UNL A   1      -0.699   2.626  -1.425  0.00  0.00    +0.000 HD
ENDBRANCH  27  33
TORSDOF 3
