MODEL 1
REMARK VINA RESULT:    -8.893      0.000      0.000
REMARK INTER + INTRA:         -10.434
REMARK INTER:                  -9.933
REMARK INTRA:                  -0.502
REMARK UNBOUND:                -0.502
REMARK  Name = cpd250.pdb
REMARK  10 active torsions:
REMARK  status: ('A' for Active; 'I' for Inactive)
REMARK    1  A    between atoms: C_2  and  C_3
REMARK    2  A    between atoms: C_2  and  C_4
REMARK    3  A    between atoms: C_7  and  C_8
REMARK    4  A    between atoms: C_14  and  C_15
REMARK    5  A    between atoms: C_18  and  O_19
REMARK    6  A    between atoms: C_20  and  C_21
REMARK    7  A    between atoms: C_20  and  C_22
REMARK    8  A    between atoms: C_26  and  C_27
REMARK    9  A    between atoms: C_28  and  C_29
REMARK   10  A    between atoms: C_31  and  O_32
REMARK                            x       y       z     vdW  Elec       q    Type
REMARK                         _______ _______ _______ _____ _____    ______ ____
ROOT
ATOM      1  C   UNL A   1      45.603 -21.769 -40.506  0.00  0.00    -0.017 C 
ATOM      2  C   UNL A   1      47.035 -21.660 -39.927  0.00  0.00    -0.046 C 
ATOM      3  C   UNL A   1      47.030 -20.453 -38.996  0.00  0.00    -0.044 C 
ATOM      4  C   UNL A   1      45.993 -19.496 -39.607  0.00  0.00    -0.002 C 
ATOM      5  C   UNL A   1      46.599 -18.806 -40.856  0.00  0.00    -0.057 C 
ATOM      6  C   UNL A   1      44.850 -20.474 -40.015  0.00  0.00    -0.023 C 
ATOM      7  C   UNL A   1      43.870 -20.813 -38.834  0.00  0.00    -0.031 C 
ATOM      8  C   UNL A   1      42.688 -21.682 -39.298  0.00  0.00    -0.049 C 
ATOM      9  C   UNL A   1      41.785 -22.112 -38.143  0.00  0.00    -0.049 C 
ATOM     10  C   UNL A   1      41.229 -20.911 -37.351  0.00  0.00    -0.029 C 
ATOM     11  C   UNL A   1      40.038 -21.284 -36.350  0.00  0.00    -0.025 C 
ATOM     12  C   UNL A   1      38.789 -21.434 -37.296  0.00  0.00    -0.059 C 
ATOM     13  C   UNL A   1      40.237 -22.647 -35.646  0.00  0.00    -0.045 C 
ATOM     14  C   UNL A   1      39.073 -23.100 -34.758  0.00  0.00    -0.026 C 
ATOM     15  C   UNL A   1      38.220 -21.972 -34.178  0.00  0.00    +0.061 C 
ATOM     16  C   UNL A   1      39.015 -20.666 -33.926  0.00  0.00    -0.006 C 
ATOM     17  C   UNL A   1      40.012 -20.889 -32.759  0.00  0.00    -0.057 C 
ATOM     18  C   UNL A   1      38.022 -19.578 -33.441  0.00  0.00    -0.057 C 
ATOM     19  C   UNL A   1      39.709 -20.156 -35.278  0.00  0.00    -0.028 C 
ATOM     20  C   UNL A   1      40.858 -19.172 -34.963  0.00  0.00    -0.049 C 
ATOM     21  C   UNL A   1      41.717 -18.789 -36.157  0.00  0.00    -0.047 C 
ATOM     22  C   UNL A   1      42.396 -20.015 -36.815  0.00  0.00    -0.023 C 
ATOM     23  C   UNL A   1      43.232 -20.767 -35.742  0.00  0.00    -0.059 C 
ATOM     24  C   UNL A   1      43.360 -19.556 -38.044  0.00  0.00    -0.021 C 
ATOM     25  C   UNL A   1      42.606 -18.583 -39.002  0.00  0.00    -0.059 C 
ATOM     26  C   UNL A   1      44.625 -18.821 -37.524  0.00  0.00    -0.020 C 
ATOM     27  C   UNL A   1      45.569 -18.370 -38.637  0.00  0.00    +0.061 C 
ENDROOT
BRANCH   1  29
ATOM     28  C   UNL A   1      44.505 -21.519 -42.811  0.00  0.00    -0.099 C 
ATOM     29  C   UNL A   1      45.453 -22.033 -42.007  0.00  0.00    -0.076 C 
ATOM     30  C   UNL A   1      46.514 -22.917 -42.619  0.00  0.00    -0.044 C 
ENDBRANCH   1  29
BRANCH  15  31
ATOM     31  O   UNL A   1      37.556 -22.445 -33.002  0.00  0.00    -0.391 OA
ATOM     32  H   UNL A   1      38.194 -22.509 -32.275  0.00  0.00    +0.000 HD
ENDBRANCH  15  31
BRANCH  27  33
ATOM     33  O   UNL A   1      46.732 -17.787 -38.042  0.00  0.00    -0.391 OA
ATOM     34  H   UNL A   1      47.161 -18.439 -37.466  0.00  0.00    +0.000 HD
ENDBRANCH  27  33
TORSDOF 3
ENDMDL
MODEL 2
REMARK VINA RESULT:    -8.313     17.014     18.986
REMARK INTER + INTRA:          -9.787
REMARK INTER:                  -9.264
REMARK INTRA:                  -0.522
REMARK UNBOUND:                -0.502
REMARK  Name = cpd250.pdb
REMARK  10 active torsions:
REMARK  status: ('A' for Active; 'I' for Inactive)
REMARK    1  A    between atoms: C_2  and  C_3
REMARK    2  A    between atoms: C_2  and  C_4
REMARK    3  A    between atoms: C_7  and  C_8
REMARK    4  A    between atoms: C_14  and  C_15
REMARK    5  A    between atoms: C_18  and  O_19
REMARK    6  A    between atoms: C_20  and  C_21
REMARK    7  A    between atoms: C_20  and  C_22
REMARK    8  A    between atoms: C_26  and  C_27
REMARK    9  A    between atoms: C_28  and  C_29
REMARK   10  A    between atoms: C_31  and  O_32
REMARK                            x       y       z     vdW  Elec       q    Type
REMARK                         _______ _______ _______ _____ _____    ______ ____
ROOT
ATOM      1  C   UNL A   1      35.211 -35.886 -28.801  0.00  0.00    -0.017 C 
ATOM      2  C   UNL A   1      36.463 -35.675 -29.686  0.00  0.00    -0.046 C 
ATOM      3  C   UNL A   1      35.953 -35.479 -31.109  0.00  0.00    -0.044 C 
ATOM      4  C   UNL A   1      34.661 -36.310 -31.177  0.00  0.00    -0.002 C 
ATOM      5  C   UNL A   1      35.019 -37.815 -31.279  0.00  0.00    -0.057 C 
ATOM      6  C   UNL A   1      33.998 -35.991 -29.802  0.00  0.00    -0.023 C 
ATOM      7  C   UNL A   1      33.164 -34.658 -29.808  0.00  0.00    -0.031 C 
ATOM      8  C   UNL A   1      32.428 -34.435 -28.477  0.00  0.00    -0.049 C 
ATOM      9  C   UNL A   1      31.700 -33.092 -28.425  0.00  0.00    -0.049 C 
ATOM     10  C   UNL A   1      30.691 -32.923 -29.578  0.00  0.00    -0.029 C 
ATOM     11  C   UNL A   1      29.683 -31.694 -29.391  0.00  0.00    -0.025 C 
ATOM     12  C   UNL A   1      28.634 -32.228 -28.346  0.00  0.00    -0.059 C 
ATOM     13  C   UNL A   1      30.352 -30.448 -28.762  0.00  0.00    -0.045 C 
ATOM     14  C   UNL A   1      29.406 -29.281 -28.463  0.00  0.00    -0.026 C 
ATOM     15  C   UNL A   1      28.160 -29.209 -29.345  0.00  0.00    +0.061 C 
ATOM     16  C   UNL A   1      28.385 -29.769 -30.772  0.00  0.00    -0.006 C 
ATOM     17  C   UNL A   1      29.332 -28.821 -31.553  0.00  0.00    -0.057 C 
ATOM     18  C   UNL A   1      27.029 -29.737 -31.526  0.00  0.00    -0.057 C 
ATOM     19  C   UNL A   1      28.898 -31.287 -30.712  0.00  0.00    -0.028 C 
ATOM     20  C   UNL A   1      29.568 -31.689 -32.044  0.00  0.00    -0.049 C 
ATOM     21  C   UNL A   1      30.274 -33.035 -32.024  0.00  0.00    -0.047 C 
ATOM     22  C   UNL A   1      31.401 -33.097 -30.963  0.00  0.00    -0.023 C 
ATOM     23  C   UNL A   1      32.406 -31.941 -31.226  0.00  0.00    -0.059 C 
ATOM     24  C   UNL A   1      32.176 -34.527 -31.020  0.00  0.00    -0.021 C 
ATOM     25  C   UNL A   1      31.156 -35.708 -31.019  0.00  0.00    -0.059 C 
ATOM     26  C   UNL A   1      33.039 -34.650 -32.306  0.00  0.00    -0.020 C 
ATOM     27  C   UNL A   1      33.793 -35.974 -32.410  0.00  0.00    +0.061 C 
ENDROOT
BRANCH   1  29
ATOM     28  C   UNL A   1      34.220 -37.415 -26.994  0.00  0.00    -0.099 C 
ATOM     29  C   UNL A   1      35.247 -37.013 -27.764  0.00  0.00    -0.076 C 
ATOM     30  C   UNL A   1      36.560 -37.752 -27.654  0.00  0.00    -0.044 C 
ENDBRANCH   1  29
BRANCH  15  31
ATOM     31  O   UNL A   1      27.670 -27.866 -29.355  0.00  0.00    -0.391 OA
ATOM     32  H   UNL A   1      26.712 -27.873 -29.504  0.00  0.00    +0.000 HD
ENDBRANCH  15  31
BRANCH  27  33
ATOM     33  O   UNL A   1      34.615 -35.940 -33.580  0.00  0.00    -0.391 OA
ATOM     34  H   UNL A   1      35.464 -35.524 -33.367  0.00  0.00    +0.000 HD
ENDBRANCH  27  33
TORSDOF 3
ENDMDL
MODEL 3
REMARK VINA RESULT:    -7.766      1.393      8.458
REMARK INTER + INTRA:          -9.176
REMARK INTER:                  -8.934
REMARK INTRA:                  -0.242
REMARK UNBOUND:                -0.502
REMARK  Name = cpd250.pdb
REMARK  10 active torsions:
REMARK  status: ('A' for Active; 'I' for Inactive)
REMARK    1  A    between atoms: C_2  and  C_3
REMARK    2  A    between atoms: C_2  and  C_4
REMARK    3  A    between atoms: C_7  and  C_8
REMARK    4  A    between atoms: C_14  and  C_15
REMARK    5  A    between atoms: C_18  and  O_19
REMARK    6  A    between atoms: C_20  and  C_21
REMARK    7  A    between atoms: C_20  and  C_22
REMARK    8  A    between atoms: C_26  and  C_27
REMARK    9  A    between atoms: C_28  and  C_29
REMARK   10  A    between atoms: C_31  and  O_32
REMARK                            x       y       z     vdW  Elec       q    Type
REMARK                         _______ _______ _______ _____ _____    ______ ____
ROOT
ATOM      1  C   UNL A   1      39.055 -19.375 -33.109  0.00  0.00    -0.017 C 
ATOM      2  C   UNL A   1      39.408 -20.455 -32.057  0.00  0.00    -0.046 C 
ATOM      3  C   UNL A   1      39.637 -21.748 -32.832  0.00  0.00    -0.044 C 
ATOM      4  C   UNL A   1      38.712 -21.636 -34.056  0.00  0.00    -0.002 C 
ATOM      5  C   UNL A   1      37.247 -21.898 -33.622  0.00  0.00    -0.057 C 
ATOM      6  C   UNL A   1      38.908 -20.147 -34.475  0.00  0.00    -0.023 C 
ATOM      7  C   UNL A   1      40.170 -19.917 -35.383  0.00  0.00    -0.031 C 
ATOM      8  C   UNL A   1      40.267 -18.464 -35.876  0.00  0.00    -0.049 C 
ATOM      9  C   UNL A   1      41.544 -18.196 -36.670  0.00  0.00    -0.049 C 
ATOM     10  C   UNL A   1      41.693 -19.136 -37.883  0.00  0.00    -0.029 C 
ATOM     11  C   UNL A   1      42.829 -18.691 -38.920  0.00  0.00    -0.025 C 
ATOM     12  C   UNL A   1      42.161 -17.512 -39.721  0.00  0.00    -0.059 C 
ATOM     13  C   UNL A   1      44.089 -18.113 -38.232  0.00  0.00    -0.045 C 
ATOM     14  C   UNL A   1      45.162 -17.574 -39.184  0.00  0.00    -0.026 C 
ATOM     15  C   UNL A   1      45.181 -18.213 -40.572  0.00  0.00    +0.061 C 
ATOM     16  C   UNL A   1      44.715 -19.690 -40.577  0.00  0.00    -0.006 C 
ATOM     17  C   UNL A   1      45.772 -20.565 -39.854  0.00  0.00    -0.057 C 
ATOM     18  C   UNL A   1      44.680 -20.185 -42.046  0.00  0.00    -0.057 C 
ATOM     19  C   UNL A   1      43.240 -19.821 -39.960  0.00  0.00    -0.028 C 
ATOM     20  C   UNL A   1      42.961 -21.276 -39.520  0.00  0.00    -0.049 C 
ATOM     21  C   UNL A   1      41.675 -21.469 -38.733  0.00  0.00    -0.047 C 
ATOM     22  C   UNL A   1      41.646 -20.634 -37.430  0.00  0.00    -0.023 C 
ATOM     23  C   UNL A   1      42.890 -20.997 -36.570  0.00  0.00    -0.059 C 
ATOM     24  C   UNL A   1      40.286 -20.922 -36.584  0.00  0.00    -0.021 C 
ATOM     25  C   UNL A   1      39.031 -20.814 -37.504  0.00  0.00    -0.059 C 
ATOM     26  C   UNL A   1      40.297 -22.347 -35.966  0.00  0.00    -0.020 C 
ATOM     27  C   UNL A   1      39.043 -22.670 -35.156  0.00  0.00    +0.061 C 
ENDROOT
BRANCH   1  29
ATOM     28  C   UNL A   1      36.602 -18.803 -32.621  0.00  0.00    -0.099 C 
ATOM     29  C   UNL A   1      37.883 -18.436 -32.807  0.00  0.00    -0.076 C 
ATOM     30  C   UNL A   1      38.241 -16.976 -32.662  0.00  0.00    -0.044 C 
ENDBRANCH   1  29
BRANCH  15  31
ATOM     31  O   UNL A   1      46.481 -18.047 -41.145  0.00  0.00    -0.391 OA
ATOM     32  H   UNL A   1      46.395 -17.861 -42.093  0.00  0.00    +0.000 HD
ENDBRANCH  15  31
BRANCH  27  33
ATOM     33  O   UNL A   1      39.201 -23.963 -34.567  0.00  0.00    -0.391 OA
ATOM     34  H   UNL A   1      40.029 -23.990 -34.063  0.00  0.00    +0.000 HD
ENDBRANCH  27  33
TORSDOF 3
ENDMDL
MODEL 4
REMARK VINA RESULT:    -7.635      3.093      4.713
REMARK INTER + INTRA:          -9.030
REMARK INTER:                  -8.583
REMARK INTRA:                  -0.447
REMARK UNBOUND:                -0.502
REMARK  Name = cpd250.pdb
REMARK  10 active torsions:
REMARK  status: ('A' for Active; 'I' for Inactive)
REMARK    1  A    between atoms: C_2  and  C_3
REMARK    2  A    between atoms: C_2  and  C_4
REMARK    3  A    between atoms: C_7  and  C_8
REMARK    4  A    between atoms: C_14  and  C_15
REMARK    5  A    between atoms: C_18  and  O_19
REMARK    6  A    between atoms: C_20  and  C_21
REMARK    7  A    between atoms: C_20  and  C_22
REMARK    8  A    between atoms: C_26  and  C_27
REMARK    9  A    between atoms: C_28  and  C_29
REMARK   10  A    between atoms: C_31  and  O_32
REMARK                            x       y       z     vdW  Elec       q    Type
REMARK                         _______ _______ _______ _____ _____    ______ ____
ROOT
ATOM      1  C   UNL A   1      46.327 -16.809 -37.379  0.00  0.00    -0.017 C 
ATOM      2  C   UNL A   1      47.177 -17.859 -38.136  0.00  0.00    -0.046 C 
ATOM      3  C   UNL A   1      47.196 -19.107 -37.260  0.00  0.00    -0.044 C 
ATOM      4  C   UNL A   1      47.097 -18.572 -35.822  0.00  0.00    -0.002 C 
ATOM      5  C   UNL A   1      48.466 -17.984 -35.394  0.00  0.00    -0.057 C 
ATOM      6  C   UNL A   1      46.031 -17.444 -35.967  0.00  0.00    -0.023 C 
ATOM      7  C   UNL A   1      44.552 -17.972 -35.894  0.00  0.00    -0.031 C 
ATOM      8  C   UNL A   1      43.529 -16.824 -35.920  0.00  0.00    -0.049 C 
ATOM      9  C   UNL A   1      42.086 -17.323 -35.959  0.00  0.00    -0.049 C 
ATOM     10  C   UNL A   1      41.750 -18.251 -34.774  0.00  0.00    -0.029 C 
ATOM     11  C   UNL A   1      40.187 -18.536 -34.589  0.00  0.00    -0.025 C 
ATOM     12  C   UNL A   1      39.645 -17.222 -33.912  0.00  0.00    -0.059 C 
ATOM     13  C   UNL A   1      39.433 -18.695 -35.932  0.00  0.00    -0.045 C 
ATOM     14  C   UNL A   1      37.915 -18.863 -35.812  0.00  0.00    -0.026 C 
ATOM     15  C   UNL A   1      37.429 -19.476 -34.499  0.00  0.00    +0.061 C 
ATOM     16  C   UNL A   1      38.440 -20.469 -33.872  0.00  0.00    -0.006 C 
ATOM     17  C   UNL A   1      38.527 -21.740 -34.756  0.00  0.00    -0.057 C 
ATOM     18  C   UNL A   1      37.879 -20.935 -32.503  0.00  0.00    -0.057 C 
ATOM     19  C   UNL A   1      39.856 -19.757 -33.626  0.00  0.00    -0.028 C 
ATOM     20  C   UNL A   1      40.975 -20.810 -33.466  0.00  0.00    -0.049 C 
ATOM     21  C   UNL A   1      42.385 -20.244 -33.437  0.00  0.00    -0.047 C 
ATOM     22  C   UNL A   1      42.738 -19.465 -34.728  0.00  0.00    -0.023 C 
ATOM     23  C   UNL A   1      42.534 -20.400 -35.953  0.00  0.00    -0.059 C 
ATOM     24  C   UNL A   1      44.276 -18.936 -34.686  0.00  0.00    -0.021 C 
ATOM     25  C   UNL A   1      44.575 -18.213 -33.336  0.00  0.00    -0.059 C 
ATOM     26  C   UNL A   1      45.281 -20.112 -34.824  0.00  0.00    -0.020 C 
ATOM     27  C   UNL A   1      46.743 -19.672 -34.795  0.00  0.00    +0.061 C 
ENDROOT
BRANCH   1  29
ATOM     28  C   UNL A   1      48.021 -14.933 -37.821  0.00  0.00    -0.099 C 
ATOM     29  C   UNL A   1      46.859 -15.375 -37.306  0.00  0.00    -0.076 C 
ATOM     30  C   UNL A   1      45.947 -14.378 -36.630  0.00  0.00    -0.044 C 
ENDBRANCH   1  29
BRANCH  15  31
ATOM     31  O   UNL A   1      36.141 -20.063 -34.704  0.00  0.00    -0.391 OA
ATOM     32  H   UNL A   1      35.623 -20.001 -33.887  0.00  0.00    +0.000 HD
ENDBRANCH  15  31
BRANCH  27  33
ATOM     33  O   UNL A   1      47.570 -20.818 -35.016  0.00  0.00    -0.391 OA
ATOM     34  H   UNL A   1      47.614 -21.346 -34.204  0.00  0.00    +0.000 HD
ENDBRANCH  27  33
TORSDOF 3
ENDMDL
MODEL 5
REMARK VINA RESULT:    -7.419     22.401     25.718
REMARK INTER + INTRA:          -8.788
REMARK INTER:                  -8.249
REMARK INTRA:                  -0.538
REMARK UNBOUND:                -0.502
REMARK  Name = cpd250.pdb
REMARK  10 active torsions:
REMARK  status: ('A' for Active; 'I' for Inactive)
REMARK    1  A    between atoms: C_2  and  C_3
REMARK    2  A    between atoms: C_2  and  C_4
REMARK    3  A    between atoms: C_7  and  C_8
REMARK    4  A    between atoms: C_14  and  C_15
REMARK    5  A    between atoms: C_18  and  O_19
REMARK    6  A    between atoms: C_20  and  C_21
REMARK    7  A    between atoms: C_20  and  C_22
REMARK    8  A    between atoms: C_26  and  C_27
REMARK    9  A    between atoms: C_28  and  C_29
REMARK   10  A    between atoms: C_31  and  O_32
REMARK                            x       y       z     vdW  Elec       q    Type
REMARK                         _______ _______ _______ _____ _____    ______ ____
ROOT
ATOM      1  C   UNL A   1      68.710 -15.554 -27.659  0.00  0.00    -0.017 C 
ATOM      2  C   UNL A   1      68.627 -16.170 -26.241  0.00  0.00    -0.046 C 
ATOM      3  C   UNL A   1      67.878 -15.159 -25.379  0.00  0.00    -0.044 C 
ATOM      4  C   UNL A   1      68.232 -13.792 -25.988  0.00  0.00    -0.002 C 
ATOM      5  C   UNL A   1      69.676 -13.402 -25.577  0.00  0.00    -0.057 C 
ATOM      6  C   UNL A   1      68.152 -14.087 -27.516  0.00  0.00    -0.023 C 
ATOM      7  C   UNL A   1      66.694 -13.988 -28.094  0.00  0.00    -0.031 C 
ATOM      8  C   UNL A   1      66.665 -14.165 -29.621  0.00  0.00    -0.049 C 
ATOM      9  C   UNL A   1      65.246 -14.180 -30.186  0.00  0.00    -0.049 C 
ATOM     10  C   UNL A   1      64.455 -12.907 -29.826  0.00  0.00    -0.029 C 
ATOM     11  C   UNL A   1      63.096 -12.726 -30.652  0.00  0.00    -0.025 C 
ATOM     12  C   UNL A   1      63.580 -12.213 -32.059  0.00  0.00    -0.059 C 
ATOM     13  C   UNL A   1      62.346 -14.059 -30.891  0.00  0.00    -0.045 C 
ATOM     14  C   UNL A   1      61.095 -13.955 -31.768  0.00  0.00    -0.026 C 
ATOM     15  C   UNL A   1      60.402 -12.592 -31.756  0.00  0.00    +0.061 C 
ATOM     16  C   UNL A   1      60.556 -11.836 -30.413  0.00  0.00    -0.006 C 
ATOM     17  C   UNL A   1      59.744 -12.570 -29.314  0.00  0.00    -0.057 C 
ATOM     18  C   UNL A   1      59.905 -10.437 -30.565  0.00  0.00    -0.057 C 
ATOM     19  C   UNL A   1      62.105 -11.640 -30.047  0.00  0.00    -0.028 C 
ATOM     20  C   UNL A   1      62.275 -11.338 -28.541  0.00  0.00    -0.049 C 
ATOM     21  C   UNL A   1      63.712 -11.341 -28.048  0.00  0.00    -0.047 C 
ATOM     22  C   UNL A   1      64.414 -12.703 -28.274  0.00  0.00    -0.023 C 
ATOM     23  C   UNL A   1      63.581 -13.820 -27.584  0.00  0.00    -0.059 C 
ATOM     24  C   UNL A   1      65.925 -12.686 -27.670  0.00  0.00    -0.021 C 
ATOM     25  C   UNL A   1      66.697 -11.419 -28.152  0.00  0.00    -0.059 C 
ATOM     26  C   UNL A   1      65.912 -12.669 -26.117  0.00  0.00    -0.020 C 
ATOM     27  C   UNL A   1      67.307 -12.656 -25.496  0.00  0.00    +0.061 C 
ENDROOT
BRANCH   1  29
ATOM     28  C   UNL A   1      70.903 -16.671 -28.385  0.00  0.00    -0.099 C 
ATOM     29  C   UNL A   1      70.051 -15.630 -28.396  0.00  0.00    -0.076 C 
ATOM     30  C   UNL A   1      70.395 -14.428 -29.243  0.00  0.00    -0.044 C 
ENDBRANCH   1  29
BRANCH  15  31
ATOM     31  O   UNL A   1      59.034 -12.760 -32.137  0.00  0.00    -0.391 OA
ATOM     32  H   UNL A   1      58.508 -12.995 -31.357  0.00  0.00    +0.000 HD
ENDBRANCH  15  31
BRANCH  27  33
ATOM     33  O   UNL A   1      67.173 -12.729 -24.073  0.00  0.00    -0.391 OA
ATOM     34  H   UNL A   1      67.997 -12.435 -23.656  0.00  0.00    +0.000 HD
ENDBRANCH  27  33
TORSDOF 3
ENDMDL
MODEL 6
REMARK VINA RESULT:    -7.279     18.048     22.579
REMARK INTER + INTRA:          -8.632
REMARK INTER:                  -8.134
REMARK INTRA:                  -0.498
REMARK UNBOUND:                -0.502
REMARK  Name = cpd250.pdb
REMARK  10 active torsions:
REMARK  status: ('A' for Active; 'I' for Inactive)
REMARK    1  A    between atoms: C_2  and  C_3
REMARK    2  A    between atoms: C_2  and  C_4
REMARK    3  A    between atoms: C_7  and  C_8
REMARK    4  A    between atoms: C_14  and  C_15
REMARK    5  A    between atoms: C_18  and  O_19
REMARK    6  A    between atoms: C_20  and  C_21
REMARK    7  A    between atoms: C_20  and  C_22
REMARK    8  A    between atoms: C_26  and  C_27
REMARK    9  A    between atoms: C_28  and  C_29
REMARK   10  A    between atoms: C_31  and  O_32
REMARK                            x       y       z     vdW  Elec       q    Type
REMARK                         _______ _______ _______ _____ _____    ______ ____
ROOT
ATOM      1  C   UNL A   1      35.636 -35.901 -29.365  0.00  0.00    -0.017 C 
ATOM      2  C   UNL A   1      35.224 -34.489 -29.847  0.00  0.00    -0.046 C 
ATOM      3  C   UNL A   1      33.704 -34.428 -29.744  0.00  0.00    -0.044 C 
ATOM      4  C   UNL A   1      33.241 -35.874 -29.985  0.00  0.00    -0.002 C 
ATOM      5  C   UNL A   1      33.343 -36.204 -31.497  0.00  0.00    -0.057 C 
ATOM      6  C   UNL A   1      34.287 -36.691 -29.168  0.00  0.00    -0.023 C 
ATOM      7  C   UNL A   1      33.929 -36.810 -27.642  0.00  0.00    -0.031 C 
ATOM      8  C   UNL A   1      34.914 -37.720 -26.889  0.00  0.00    -0.049 C 
ATOM      9  C   UNL A   1      34.646 -37.760 -25.386  0.00  0.00    -0.049 C 
ATOM     10  C   UNL A   1      33.209 -38.214 -25.055  0.00  0.00    -0.029 C 
ATOM     11  C   UNL A   1      32.978 -38.582 -23.515  0.00  0.00    -0.025 C 
ATOM     12  C   UNL A   1      33.626 -40.009 -23.371  0.00  0.00    -0.059 C 
ATOM     13  C   UNL A   1      33.735 -37.644 -22.544  0.00  0.00    -0.045 C 
ATOM     14  C   UNL A   1      33.633 -38.019 -21.062  0.00  0.00    -0.026 C 
ATOM     15  C   UNL A   1      32.374 -38.794 -20.671  0.00  0.00    +0.061 C 
ATOM     16  C   UNL A   1      31.140 -38.441 -21.539  0.00  0.00    -0.006 C 
ATOM     17  C   UNL A   1      30.685 -36.993 -21.220  0.00  0.00    -0.057 C 
ATOM     18  C   UNL A   1      29.967 -39.363 -21.116  0.00  0.00    -0.057 C 
ATOM     19  C   UNL A   1      31.449 -38.691 -23.093  0.00  0.00    -0.028 C 
ATOM     20  C   UNL A   1      30.449 -37.917 -23.979  0.00  0.00    -0.049 C 
ATOM     21  C   UNL A   1      30.778 -37.916 -25.463  0.00  0.00    -0.047 C 
ATOM     22  C   UNL A   1      32.162 -37.289 -25.763  0.00  0.00    -0.023 C 
ATOM     23  C   UNL A   1      32.202 -35.849 -25.179  0.00  0.00    -0.059 C 
ATOM     24  C   UNL A   1      32.446 -37.245 -27.365  0.00  0.00    -0.021 C 
ATOM     25  C   UNL A   1      32.157 -38.633 -28.015  0.00  0.00    -0.059 C 
ATOM     26  C   UNL A   1      31.541 -36.197 -28.069  0.00  0.00    -0.020 C 
ATOM     27  C   UNL A   1      31.769 -36.110 -29.577  0.00  0.00    +0.061 C 
ENDROOT
BRANCH   1  29
ATOM     28  C   UNL A   1      36.655 -37.978 -30.474  0.00  0.00    -0.099 C 
ATOM     29  C   UNL A   1      36.679 -36.664 -30.187  0.00  0.00    -0.076 C 
ATOM     30  C   UNL A   1      37.799 -35.824 -30.756  0.00  0.00    -0.044 C 
ENDBRANCH   1  29
BRANCH  15  31
ATOM     31  O   UNL A   1      32.130 -38.615 -19.274  0.00  0.00    -0.391 OA
ATOM     32  H   UNL A   1      32.784 -39.118 -18.764  0.00  0.00    +0.000 HD
ENDBRANCH  15  31
BRANCH  27  33
ATOM     33  O   UNL A   1      30.951 -35.060 -30.101  0.00  0.00    -0.391 OA
ATOM     34  H   UNL A   1      31.093 -34.987 -31.058  0.00  0.00    +0.000 HD
ENDBRANCH  27  33
TORSDOF 3
ENDMDL
MODEL 7
REMARK VINA RESULT:    -7.170      2.608      8.257
REMARK INTER + INTRA:          -8.511
REMARK INTER:                  -8.006
REMARK INTRA:                  -0.504
REMARK UNBOUND:                -0.502
REMARK  Name = cpd250.pdb
REMARK  10 active torsions:
REMARK  status: ('A' for Active; 'I' for Inactive)
REMARK    1  A    between atoms: C_2  and  C_3
REMARK    2  A    between atoms: C_2  and  C_4
REMARK    3  A    between atoms: C_7  and  C_8
REMARK    4  A    between atoms: C_14  and  C_15
REMARK    5  A    between atoms: C_18  and  O_19
REMARK    6  A    between atoms: C_20  and  C_21
REMARK    7  A    between atoms: C_20  and  C_22
REMARK    8  A    between atoms: C_26  and  C_27
REMARK    9  A    between atoms: C_28  and  C_29
REMARK   10  A    between atoms: C_31  and  O_32
REMARK                            x       y       z     vdW  Elec       q    Type
REMARK                         _______ _______ _______ _____ _____    ______ ____
ROOT
ATOM      1  C   UNL A   1      39.982 -16.153 -37.331  0.00  0.00    -0.017 C 
ATOM      2  C   UNL A   1      39.958 -16.288 -35.789  0.00  0.00    -0.046 C 
ATOM      3  C   UNL A   1      40.038 -17.780 -35.488  0.00  0.00    -0.044 C 
ATOM      4  C   UNL A   1      39.343 -18.454 -36.682  0.00  0.00    -0.002 C 
ATOM      5  C   UNL A   1      37.807 -18.287 -36.548  0.00  0.00    -0.057 C 
ATOM      6  C   UNL A   1      39.887 -17.625 -37.885  0.00  0.00    -0.023 C 
ATOM      7  C   UNL A   1      41.288 -18.119 -38.398  0.00  0.00    -0.031 C 
ATOM      8  C   UNL A   1      41.741 -17.360 -39.656  0.00  0.00    -0.049 C 
ATOM      9  C   UNL A   1      43.148 -17.750 -40.105  0.00  0.00    -0.049 C 
ATOM     10  C   UNL A   1      43.284 -19.263 -40.370  0.00  0.00    -0.029 C 
ATOM     11  C   UNL A   1      44.624 -19.673 -41.143  0.00  0.00    -0.025 C 
ATOM     12  C   UNL A   1      44.326 -19.283 -42.638  0.00  0.00    -0.059 C 
ATOM     13  C   UNL A   1      45.859 -18.853 -40.699  0.00  0.00    -0.045 C 
ATOM     14  C   UNL A   1      47.145 -19.134 -41.484  0.00  0.00    -0.026 C 
ATOM     15  C   UNL A   1      47.240 -20.529 -42.100  0.00  0.00    +0.061 C 
ATOM     16  C   UNL A   1      46.498 -21.615 -41.281  0.00  0.00    -0.006 C 
ATOM     17  C   UNL A   1      47.245 -21.851 -39.943  0.00  0.00    -0.057 C 
ATOM     18  C   UNL A   1      46.581 -22.954 -42.060  0.00  0.00    -0.057 C 
ATOM     19  C   UNL A   1      44.953 -21.228 -41.097  0.00  0.00    -0.028 C 
ATOM     20  C   UNL A   1      44.331 -22.014 -39.921  0.00  0.00    -0.049 C 
ATOM     21  C   UNL A   1      42.931 -21.572 -39.527  0.00  0.00    -0.047 C 
ATOM     22  C   UNL A   1      42.878 -20.084 -39.100  0.00  0.00    -0.023 C 
ATOM     23  C   UNL A   1      43.886 -19.855 -37.939  0.00  0.00    -0.059 C 
ATOM     24  C   UNL A   1      41.379 -19.670 -38.620  0.00  0.00    -0.021 C 
ATOM     25  C   UNL A   1      40.318 -20.130 -39.668  0.00  0.00    -0.059 C 
ATOM     26  C   UNL A   1      41.018 -20.331 -37.262  0.00  0.00    -0.020 C 
ATOM     27  C   UNL A   1      39.621 -19.973 -36.761  0.00  0.00    +0.061 C 
ENDROOT
BRANCH   1  29
ATOM     28  C   UNL A   1      38.390 -15.351 -39.176  0.00  0.00    -0.099 C 
ATOM     29  C   UNL A   1      38.986 -15.188 -37.982  0.00  0.00    -0.076 C 
ATOM     30  C   UNL A   1      38.625 -13.974 -37.158  0.00  0.00    -0.044 C 
ENDBRANCH   1  29
BRANCH  15  31
ATOM     31  O   UNL A   1      48.617 -20.852 -42.316  0.00  0.00    -0.391 OA
ATOM     32  H   UNL A   1      49.021 -20.180 -42.886  0.00  0.00    +0.000 HD
ENDBRANCH  15  31
BRANCH  27  33
ATOM     33  O   UNL A   1      39.433 -20.562 -35.471  0.00  0.00    -0.391 OA
ATOM     34  H   UNL A   1      40.282 -20.596 -35.005  0.00  0.00    +0.000 HD
ENDBRANCH  27  33
TORSDOF 3
ENDMDL
MODEL 8
REMARK VINA RESULT:    -7.140      1.677      8.389
REMARK INTER + INTRA:          -8.476
REMARK INTER:                  -7.978
REMARK INTRA:                  -0.499
REMARK UNBOUND:                -0.502
REMARK  Name = cpd250.pdb
REMARK  10 active torsions:
REMARK  status: ('A' for Active; 'I' for Inactive)
REMARK    1  A    between atoms: C_2  and  C_3
REMARK    2  A    between atoms: C_2  and  C_4
REMARK    3  A    between atoms: C_7  and  C_8
REMARK    4  A    between atoms: C_14  and  C_15
REMARK    5  A    between atoms: C_18  and  O_19
REMARK    6  A    between atoms: C_20  and  C_21
REMARK    7  A    between atoms: C_20  and  C_22
REMARK    8  A    between atoms: C_26  and  C_27
REMARK    9  A    between atoms: C_28  and  C_29
REMARK   10  A    between atoms: C_31  and  O_32
REMARK                            x       y       z     vdW  Elec       q    Type
REMARK                         _______ _______ _______ _____ _____    ______ ____
ROOT
ATOM      1  C   UNL A   1      40.019 -18.210 -33.552  0.00  0.00    -0.017 C 
ATOM      2  C   UNL A   1      40.094 -19.301 -32.457  0.00  0.00    -0.046 C 
ATOM      3  C   UNL A   1      39.941 -20.638 -33.173  0.00  0.00    -0.044 C 
ATOM      4  C   UNL A   1      39.049 -20.329 -34.387  0.00  0.00    -0.002 C 
ATOM      5  C   UNL A   1      37.580 -20.162 -33.919  0.00  0.00    -0.057 C 
ATOM      6  C   UNL A   1      39.631 -18.969 -34.878  0.00  0.00    -0.023 C 
ATOM      7  C   UNL A   1      40.882 -19.129 -35.815  0.00  0.00    -0.031 C 
ATOM      8  C   UNL A   1      41.357 -17.779 -36.378  0.00  0.00    -0.049 C 
ATOM      9  C   UNL A   1      42.638 -17.903 -37.203  0.00  0.00    -0.049 C 
ATOM     10  C   UNL A   1      42.492 -18.898 -38.372  0.00  0.00    -0.029 C 
ATOM     11  C   UNL A   1      43.677 -18.823 -39.445  0.00  0.00    -0.025 C 
ATOM     12  C   UNL A   1      43.334 -17.541 -40.291  0.00  0.00    -0.059 C 
ATOM     13  C   UNL A   1      45.065 -18.583 -38.804  0.00  0.00    -0.045 C 
ATOM     14  C   UNL A   1      46.218 -18.397 -39.796  0.00  0.00    -0.026 C 
ATOM     15  C   UNL A   1      46.025 -19.074 -41.153  0.00  0.00    +0.061 C 
ATOM     16  C   UNL A   1      45.174 -20.366 -41.081  0.00  0.00    -0.006 C 
ATOM     17  C   UNL A   1      45.973 -21.466 -40.334  0.00  0.00    -0.057 C 
ATOM     18  C   UNL A   1      44.966 -20.893 -42.525  0.00  0.00    -0.057 C 
ATOM     19  C   UNL A   1      43.737 -20.064 -40.437  0.00  0.00    -0.028 C 
ATOM     20  C   UNL A   1      43.084 -21.368 -39.925  0.00  0.00    -0.049 C 
ATOM     21  C   UNL A   1      41.817 -21.170 -39.111  0.00  0.00    -0.047 C 
ATOM     22  C   UNL A   1      42.052 -20.306 -37.847  0.00  0.00    -0.023 C 
ATOM     23  C   UNL A   1      43.172 -20.959 -36.990  0.00  0.00    -0.059 C 
ATOM     24  C   UNL A   1      40.688 -20.176 -36.969  0.00  0.00    -0.021 C 
ATOM     25  C   UNL A   1      39.485 -19.768 -37.874  0.00  0.00    -0.059 C 
ATOM     26  C   UNL A   1      40.328 -21.523 -36.284  0.00  0.00    -0.020 C 
ATOM     27  C   UNL A   1      39.056 -21.458 -35.442  0.00  0.00    +0.061 C 
ENDROOT
BRANCH   1  29
ATOM     28  C   UNL A   1      38.368 -16.345 -34.167  0.00  0.00    -0.099 C 
ATOM     29  C   UNL A   1      39.155 -16.975 -33.277  0.00  0.00    -0.076 C 
ATOM     30  C   UNL A   1      39.175 -16.474 -31.852  0.00  0.00    -0.044 C 
ENDBRANCH   1  29
BRANCH  15  31
ATOM     31  O   UNL A   1      47.305 -19.293 -41.753  0.00  0.00    -0.391 OA
ATOM     32  H   UNL A   1      47.935 -18.636 -41.418  0.00  0.00    +0.000 HD
ENDBRANCH  15  31
BRANCH  27  33
ATOM     33  O   UNL A   1      38.872 -22.720 -34.794  0.00  0.00    -0.391 OA
ATOM     34  H   UNL A   1      39.722 -23.184 -34.743  0.00  0.00    +0.000 HD
ENDBRANCH  27  33
TORSDOF 3
ENDMDL
MODEL 9
REMARK VINA RESULT:    -6.968      4.109      6.656
REMARK INTER + INTRA:          -8.285
REMARK INTER:                  -7.777
REMARK INTRA:                  -0.508
REMARK UNBOUND:                -0.502
REMARK  Name = cpd250.pdb
REMARK  10 active torsions:
REMARK  status: ('A' for Active; 'I' for Inactive)
REMARK    1  A    between atoms: C_2  and  C_3
REMARK    2  A    between atoms: C_2  and  C_4
REMARK    3  A    between atoms: C_7  and  C_8
REMARK    4  A    between atoms: C_14  and  C_15
REMARK    5  A    between atoms: C_18  and  O_19
REMARK    6  A    between atoms: C_20  and  C_21
REMARK    7  A    between atoms: C_20  and  C_22
REMARK    8  A    between atoms: C_26  and  C_27
REMARK    9  A    between atoms: C_28  and  C_29
REMARK   10  A    between atoms: C_31  and  O_32
REMARK                            x       y       z     vdW  Elec       q    Type
REMARK                         _______ _______ _______ _____ _____    ______ ____
ROOT
ATOM      1  C   UNL A   1      48.084 -13.813 -41.562  0.00  0.00    -0.017 C 
ATOM      2  C   UNL A   1      47.831 -12.322 -41.230  0.00  0.00    -0.046 C 
ATOM      3  C   UNL A   1      46.347 -12.202 -40.902  0.00  0.00    -0.044 C 
ATOM      4  C   UNL A   1      45.672 -13.289 -41.755  0.00  0.00    -0.002 C 
ATOM      5  C   UNL A   1      45.608 -12.823 -43.232  0.00  0.00    -0.057 C 
ATOM      6  C   UNL A   1      46.659 -14.486 -41.594  0.00  0.00    -0.023 C 
ATOM      7  C   UNL A   1      46.410 -15.326 -40.290  0.00  0.00    -0.031 C 
ATOM      8  C   UNL A   1      47.319 -16.565 -40.222  0.00  0.00    -0.049 C 
ATOM      9  C   UNL A   1      47.168 -17.335 -38.910  0.00  0.00    -0.049 C 
ATOM     10  C   UNL A   1      45.714 -17.778 -38.650  0.00  0.00    -0.029 C 
ATOM     11  C   UNL A   1      45.559 -18.850 -37.473  0.00  0.00    -0.025 C 
ATOM     12  C   UNL A   1      46.014 -20.202 -38.137  0.00  0.00    -0.059 C 
ATOM     13  C   UNL A   1      46.511 -18.590 -36.281  0.00  0.00    -0.045 C 
ATOM     14  C   UNL A   1      46.477 -19.649 -35.175  0.00  0.00    -0.026 C 
ATOM     15  C   UNL A   1      45.159 -20.413 -35.045  0.00  0.00    +0.061 C 
ATOM     16  C   UNL A   1      43.920 -19.576 -35.450  0.00  0.00    -0.006 C 
ATOM     17  C   UNL A   1      43.694 -18.454 -34.404  0.00  0.00    -0.057 C 
ATOM     18  C   UNL A   1      42.670 -20.491 -35.376  0.00  0.00    -0.057 C 
ATOM     19  C   UNL A   1      44.067 -19.036 -36.953  0.00  0.00    -0.028 C 
ATOM     20  C   UNL A   1      43.115 -17.845 -37.200  0.00  0.00    -0.049 C 
ATOM     21  C   UNL A   1      43.322 -17.125 -38.522  0.00  0.00    -0.047 C 
ATOM     22  C   UNL A   1      44.750 -16.544 -38.664  0.00  0.00    -0.023 C 
ATOM     23  C   UNL A   1      45.032 -15.600 -37.461  0.00  0.00    -0.059 C 
ATOM     24  C   UNL A   1      44.909 -15.723 -40.060  0.00  0.00    -0.021 C 
ATOM     25  C   UNL A   1      44.382 -16.570 -41.260  0.00  0.00    -0.059 C 
ATOM     26  C   UNL A   1      44.103 -14.396 -40.029  0.00  0.00    -0.020 C 
ATOM     27  C   UNL A   1      44.219 -13.582 -41.316  0.00  0.00    +0.061 C 
ENDROOT
BRANCH   1  29
ATOM     28  C   UNL A   1      49.371 -15.361 -43.152  0.00  0.00    -0.099 C 
ATOM     29  C   UNL A   1      48.943 -14.139 -42.787  0.00  0.00    -0.076 C 
ATOM     30  C   UNL A   1      49.283 -12.964 -43.674  0.00  0.00    -0.044 C 
ENDBRANCH   1  29
BRANCH  15  31
ATOM     31  O   UNL A   1      45.054 -20.942 -33.720  0.00  0.00    -0.391 OA
ATOM     32  H   UNL A   1      45.579 -20.399 -33.113  0.00  0.00    +0.000 HD
ENDBRANCH  15  31
BRANCH  27  33
ATOM     33  O   UNL A   1      43.514 -12.350 -41.142  0.00  0.00    -0.391 OA
ATOM     34  H   UNL A   1      43.934 -11.658 -41.677  0.00  0.00    +0.000 HD
ENDBRANCH  27  33
TORSDOF 3
ENDMDL
MODEL 10
REMARK VINA RESULT:    -6.830      2.361      7.967
REMARK INTER + INTRA:          -8.131
REMARK INTER:                  -7.613
REMARK INTRA:                  -0.518
REMARK UNBOUND:                -0.502
REMARK  Name = cpd250.pdb
REMARK  10 active torsions:
REMARK  status: ('A' for Active; 'I' for Inactive)
REMARK    1  A    between atoms: C_2  and  C_3
REMARK    2  A    between atoms: C_2  and  C_4
REMARK    3  A    between atoms: C_7  and  C_8
REMARK    4  A    between atoms: C_14  and  C_15
REMARK    5  A    between atoms: C_18  and  O_19
REMARK    6  A    between atoms: C_20  and  C_21
REMARK    7  A    between atoms: C_20  and  C_22
REMARK    8  A    between atoms: C_26  and  C_27
REMARK    9  A    between atoms: C_28  and  C_29
REMARK   10  A    between atoms: C_31  and  O_32
REMARK                            x       y       z     vdW  Elec       q    Type
REMARK                         _______ _______ _______ _____ _____    ______ ____
ROOT
ATOM      1  C   UNL A   1      38.426 -17.588 -35.766  0.00  0.00    -0.017 C 
ATOM      2  C   UNL A   1      38.668 -16.277 -34.979  0.00  0.00    -0.046 C 
ATOM      3  C   UNL A   1      39.984 -16.463 -34.233  0.00  0.00    -0.044 C 
ATOM      4  C   UNL A   1      40.057 -17.972 -33.945  0.00  0.00    -0.002 C 
ATOM      5  C   UNL A   1      39.095 -18.323 -32.781  0.00  0.00    -0.057 C 
ATOM      6  C   UNL A   1      39.551 -18.583 -35.286  0.00  0.00    -0.023 C 
ATOM      7  C   UNL A   1      40.677 -18.716 -36.374  0.00  0.00    -0.031 C 
ATOM      8  C   UNL A   1      40.174 -19.430 -37.640  0.00  0.00    -0.049 C 
ATOM      9  C   UNL A   1      41.224 -19.472 -38.749  0.00  0.00    -0.049 C 
ATOM     10  C   UNL A   1      42.534 -20.145 -38.295  0.00  0.00    -0.029 C 
ATOM     11  C   UNL A   1      43.534 -20.503 -39.493  0.00  0.00    -0.025 C 
ATOM     12  C   UNL A   1      42.908 -21.800 -40.127  0.00  0.00    -0.059 C 
ATOM     13  C   UNL A   1      43.564 -19.426 -40.604  0.00  0.00    -0.045 C 
ATOM     14  C   UNL A   1      44.424 -19.771 -41.824  0.00  0.00    -0.026 C 
ATOM     15  C   UNL A   1      45.583 -20.730 -41.553  0.00  0.00    +0.061 C 
ATOM     16  C   UNL A   1      46.160 -20.609 -40.120  0.00  0.00    -0.006 C 
ATOM     17  C   UNL A   1      46.887 -19.247 -39.973  0.00  0.00    -0.057 C 
ATOM     18  C   UNL A   1      47.249 -21.699 -39.940  0.00  0.00    -0.057 C 
ATOM     19  C   UNL A   1      45.014 -20.849 -39.025  0.00  0.00    -0.028 C 
ATOM     20  C   UNL A   1      45.439 -20.274 -37.656  0.00  0.00    -0.049 C 
ATOM     21  C   UNL A   1      44.346 -20.261 -36.600  0.00  0.00    -0.047 C 
ATOM     22  C   UNL A   1      43.116 -19.425 -37.032  0.00  0.00    -0.023 C 
ATOM     23  C   UNL A   1      43.581 -17.982 -37.374  0.00  0.00    -0.059 C 
ATOM     24  C   UNL A   1      41.999 -19.380 -35.849  0.00  0.00    -0.021 C 
ATOM     25  C   UNL A   1      41.708 -20.815 -35.310  0.00  0.00    -0.059 C 
ATOM     26  C   UNL A   1      42.480 -18.515 -34.652  0.00  0.00    -0.020 C 
ATOM     27  C   UNL A   1      41.467 -18.434 -33.512  0.00  0.00    +0.061 C 
ENDROOT
BRANCH   1  29
ATOM     28  C   UNL A   1      35.870 -17.538 -35.976  0.00  0.00    -0.099 C 
ATOM     29  C   UNL A   1      37.019 -18.193 -35.735  0.00  0.00    -0.076 C 
ATOM     30  C   UNL A   1      36.956 -19.676 -35.454  0.00  0.00    -0.044 C 
ENDBRANCH   1  29
BRANCH  15  31
ATOM     31  O   UNL A   1      46.581 -20.555 -42.562  0.00  0.00    -0.391 OA
ATOM     32  H   UNL A   1      46.765 -19.609 -42.674  0.00  0.00    +0.000 HD
ENDBRANCH  15  31
BRANCH  27  33
ATOM     33  O   UNL A   1      41.976 -17.548 -32.511  0.00  0.00    -0.391 OA
ATOM     34  H   UNL A   1      42.760 -17.090 -32.852  0.00  0.00    +0.000 HD
ENDBRANCH  27  33
TORSDOF 3
ENDMDL
MODEL 11
REMARK VINA RESULT:    -6.819     17.616     20.632
REMARK INTER + INTRA:          -8.119
REMARK INTER:                  -7.582
REMARK INTRA:                  -0.536
REMARK UNBOUND:                -0.502
REMARK  Name = cpd250.pdb
REMARK  10 active torsions:
REMARK  status: ('A' for Active; 'I' for Inactive)
REMARK    1  A    between atoms: C_2  and  C_3
REMARK    2  A    between atoms: C_2  and  C_4
REMARK    3  A    between atoms: C_7  and  C_8
REMARK    4  A    between atoms: C_14  and  C_15
REMARK    5  A    between atoms: C_18  and  O_19
REMARK    6  A    between atoms: C_20  and  C_21
REMARK    7  A    between atoms: C_20  and  C_22
REMARK    8  A    between atoms: C_26  and  C_27
REMARK    9  A    between atoms: C_28  and  C_29
REMARK   10  A    between atoms: C_31  and  O_32
REMARK                            x       y       z     vdW  Elec       q    Type
REMARK                         _______ _______ _______ _____ _____    ______ ____
ROOT
ATOM      1  C   UNL A   1      28.281 -33.285 -30.898  0.00  0.00    -0.017 C 
ATOM      2  C   UNL A   1      28.449 -32.294 -32.076  0.00  0.00    -0.046 C 
ATOM      3  C   UNL A   1      29.797 -31.613 -31.873  0.00  0.00    -0.044 C 
ATOM      4  C   UNL A   1      29.991 -31.583 -30.347  0.00  0.00    -0.002 C 
ATOM      5  C   UNL A   1      29.094 -30.478 -29.734  0.00  0.00    -0.057 C 
ATOM      6  C   UNL A   1      29.491 -32.998 -29.929  0.00  0.00    -0.023 C 
ATOM      7  C   UNL A   1      30.590 -34.113 -30.066  0.00  0.00    -0.031 C 
ATOM      8  C   UNL A   1      30.103 -35.471 -29.534  0.00  0.00    -0.049 C 
ATOM      9  C   UNL A   1      31.118 -36.590 -29.759  0.00  0.00    -0.049 C 
ATOM     10  C   UNL A   1      32.489 -36.279 -29.125  0.00  0.00    -0.029 C 
ATOM     11  C   UNL A   1      33.475 -37.537 -29.050  0.00  0.00    -0.025 C 
ATOM     12  C   UNL A   1      32.928 -38.368 -27.830  0.00  0.00    -0.059 C 
ATOM     13  C   UNL A   1      33.390 -38.453 -30.295  0.00  0.00    -0.045 C 
ATOM     14  C   UNL A   1      34.236 -39.729 -30.225  0.00  0.00    -0.026 C 
ATOM     15  C   UNL A   1      35.471 -39.642 -29.328  0.00  0.00    +0.061 C 
ATOM     16  C   UNL A   1      36.081 -38.220 -29.256  0.00  0.00    -0.006 C 
ATOM     17  C   UNL A   1      36.709 -37.860 -30.628  0.00  0.00    -0.057 C 
ATOM     18  C   UNL A   1      37.254 -38.245 -28.241  0.00  0.00    -0.057 C 
ATOM     19  C   UNL A   1      34.990 -37.160 -28.749  0.00  0.00    -0.028 C 
ATOM     20  C   UNL A   1      35.413 -35.722 -29.121  0.00  0.00    -0.049 C 
ATOM     21  C   UNL A   1      34.355 -34.660 -28.873  0.00  0.00    -0.047 C 
ATOM     22  C   UNL A   1      33.053 -34.924 -29.670  0.00  0.00    -0.023 C 
ATOM     23  C   UNL A   1      33.399 -35.028 -31.181  0.00  0.00    -0.059 C 
ATOM     24  C   UNL A   1      31.973 -33.730 -29.431  0.00  0.00    -0.021 C 
ATOM     25  C   UNL A   1      31.807 -33.433 -27.908  0.00  0.00    -0.059 C 
ATOM     26  C   UNL A   1      32.425 -32.414 -30.121  0.00  0.00    -0.020 C 
ATOM     27  C   UNL A   1      31.444 -31.258 -29.932  0.00  0.00    +0.061 C 
ENDROOT
BRANCH   1  29
ATOM     28  C   UNL A   1      25.718 -33.328 -30.782  0.00  0.00    -0.099 C 
ATOM     29  C   UNL A   1      26.925 -33.331 -30.187  0.00  0.00    -0.076 C 
ATOM     30  C   UNL A   1      26.984 -33.437 -28.681  0.00  0.00    -0.044 C 
ENDBRANCH   1  29
BRANCH  15  31
ATOM     31  O   UNL A   1      36.422 -40.626 -29.746  0.00  0.00    -0.391 OA
ATOM     32  H   UNL A   1      35.955 -41.429 -30.023  0.00  0.00    +0.000 HD
ENDBRANCH  15  31
BRANCH  27  33
ATOM     33  O   UNL A   1      31.916 -30.133 -30.678  0.00  0.00    -0.391 OA
ATOM     34  H   UNL A   1      31.207 -29.477 -30.757  0.00  0.00    +0.000 HD
ENDBRANCH  27  33
TORSDOF 3
ENDMDL
MODEL 12
REMARK VINA RESULT:    -6.794     17.414     21.027
REMARK INTER + INTRA:          -8.090
REMARK INTER:                  -7.577
REMARK INTRA:                  -0.513
REMARK UNBOUND:                -0.502
REMARK  Name = cpd250.pdb
REMARK  10 active torsions:
REMARK  status: ('A' for Active; 'I' for Inactive)
REMARK    1  A    between atoms: C_2  and  C_3
REMARK    2  A    between atoms: C_2  and  C_4
REMARK    3  A    between atoms: C_7  and  C_8
REMARK    4  A    between atoms: C_14  and  C_15
REMARK    5  A    between atoms: C_18  and  O_19
REMARK    6  A    between atoms: C_20  and  C_21
REMARK    7  A    between atoms: C_20  and  C_22
REMARK    8  A    between atoms: C_26  and  C_27
REMARK    9  A    between atoms: C_28  and  C_29
REMARK   10  A    between atoms: C_31  and  O_32
REMARK                            x       y       z     vdW  Elec       q    Type
REMARK                         _______ _______ _______ _____ _____    ______ ____
ROOT
ATOM      1  C   UNL A   1      30.069 -32.019 -29.044  0.00  0.00    -0.017 C 
ATOM      2  C   UNL A   1      28.698 -32.365 -28.413  0.00  0.00    -0.046 C 
ATOM      3  C   UNL A   1      28.259 -33.683 -29.040  0.00  0.00    -0.044 C 
ATOM      4  C   UNL A   1      28.871 -33.665 -30.451  0.00  0.00    -0.002 C 
ATOM      5  C   UNL A   1      28.052 -32.709 -31.357  0.00  0.00    -0.057 C 
ATOM      6  C   UNL A   1      30.293 -33.088 -30.180  0.00  0.00    -0.023 C 
ATOM      7  C   UNL A   1      31.330 -34.178 -29.724  0.00  0.00    -0.031 C 
ATOM      8  C   UNL A   1      32.748 -33.599 -29.581  0.00  0.00    -0.049 C 
ATOM      9  C   UNL A   1      33.747 -34.617 -29.034  0.00  0.00    -0.049 C 
ATOM     10  C   UNL A   1      33.822 -35.892 -29.898  0.00  0.00    -0.029 C 
ATOM     11  C   UNL A   1      35.068 -36.838 -29.560  0.00  0.00    -0.025 C 
ATOM     12  C   UNL A   1      36.284 -36.114 -30.250  0.00  0.00    -0.059 C 
ATOM     13  C   UNL A   1      35.386 -36.911 -28.047  0.00  0.00    -0.045 C 
ATOM     14  C   UNL A   1      36.635 -37.718 -27.681  0.00  0.00    -0.026 C 
ATOM     15  C   UNL A   1      37.014 -38.818 -28.672  0.00  0.00    +0.061 C 
ATOM     16  C   UNL A   1      35.794 -39.436 -29.401  0.00  0.00    -0.006 C 
ATOM     17  C   UNL A   1      34.950 -40.253 -28.388  0.00  0.00    -0.057 C 
ATOM     18  C   UNL A   1      36.317 -40.456 -30.446  0.00  0.00    -0.057 C 
ATOM     19  C   UNL A   1      34.959 -38.303 -30.169  0.00  0.00    -0.028 C 
ATOM     20  C   UNL A   1      33.529 -38.797 -30.482  0.00  0.00    -0.049 C 
ATOM     21  C   UNL A   1      32.589 -37.732 -31.020  0.00  0.00    -0.047 C 
ATOM     22  C   UNL A   1      32.408 -36.549 -30.038  0.00  0.00    -0.023 C 
ATOM     23  C   UNL A   1      31.908 -37.099 -28.672  0.00  0.00    -0.059 C 
ATOM     24  C   UNL A   1      31.342 -35.466 -30.621  0.00  0.00    -0.021 C 
ATOM     25  C   UNL A   1      31.684 -35.095 -32.097  0.00  0.00    -0.059 C 
ATOM     26  C   UNL A   1      29.895 -36.030 -30.599  0.00  0.00    -0.020 C 
ATOM     27  C   UNL A   1      28.851 -35.052 -31.133  0.00  0.00    +0.061 C 
ENDROOT
BRANCH   1  29
ATOM     28  C   UNL A   1      31.189 -30.177 -30.434  0.00  0.00    -0.099 C 
ATOM     29  C   UNL A   1      30.304 -30.577 -29.504  0.00  0.00    -0.076 C 
ATOM     30  C   UNL A   1      29.408 -29.539 -28.869  0.00  0.00    -0.044 C 
ENDBRANCH   1  29
BRANCH  15  31
ATOM     31  O   UNL A   1      37.805 -39.802 -27.999  0.00  0.00    -0.391 OA
ATOM     32  H   UNL A   1      38.168 -39.422 -27.184  0.00  0.00    +0.000 HD
ENDBRANCH  15  31
BRANCH  27  33
ATOM     33  O   UNL A   1      27.556 -35.641 -30.985  0.00  0.00    -0.391 OA
ATOM     34  H   UNL A   1      27.130 -35.289 -30.187  0.00  0.00    +0.000 HD
ENDBRANCH  27  33
TORSDOF 3
ENDMDL
MODEL 13
REMARK VINA RESULT:    -6.792      1.629      2.306
REMARK INTER + INTRA:          -8.088
REMARK INTER:                  -7.550
REMARK INTRA:                  -0.538
REMARK UNBOUND:                -0.502
REMARK  Name = cpd250.pdb
REMARK  10 active torsions:
REMARK  status: ('A' for Active; 'I' for Inactive)
REMARK    1  A    between atoms: C_2  and  C_3
REMARK    2  A    between atoms: C_2  and  C_4
REMARK    3  A    between atoms: C_7  and  C_8
REMARK    4  A    between atoms: C_14  and  C_15
REMARK    5  A    between atoms: C_18  and  O_19
REMARK    6  A    between atoms: C_20  and  C_21
REMARK    7  A    between atoms: C_20  and  C_22
REMARK    8  A    between atoms: C_26  and  C_27
REMARK    9  A    between atoms: C_28  and  C_29
REMARK   10  A    between atoms: C_31  and  O_32
REMARK                            x       y       z     vdW  Elec       q    Type
REMARK                         _______ _______ _______ _____ _____    ______ ____
ROOT
ATOM      1  C   UNL A   1      45.292 -19.777 -39.746  0.00  0.00    -0.017 C 
ATOM      2  C   UNL A   1      46.147 -18.503 -39.542  0.00  0.00    -0.046 C 
ATOM      3  C   UNL A   1      45.165 -17.349 -39.384  0.00  0.00    -0.044 C 
ATOM      4  C   UNL A   1      43.947 -17.757 -40.230  0.00  0.00    -0.002 C 
ATOM      5  C   UNL A   1      44.274 -17.562 -41.734  0.00  0.00    -0.057 C 
ATOM      6  C   UNL A   1      43.806 -19.270 -39.887  0.00  0.00    -0.023 C 
ATOM      7  C   UNL A   1      43.000 -19.536 -38.564  0.00  0.00    -0.031 C 
ATOM      8  C   UNL A   1      42.776 -21.037 -38.317  0.00  0.00    -0.049 C 
ATOM      9  C   UNL A   1      42.089 -21.318 -36.982  0.00  0.00    -0.049 C 
ATOM     10  C   UNL A   1      40.735 -20.593 -36.851  0.00  0.00    -0.029 C 
ATOM     11  C   UNL A   1      39.836 -21.102 -35.628  0.00  0.00    -0.025 C 
ATOM     12  C   UNL A   1      39.233 -22.459 -36.149  0.00  0.00    -0.059 C 
ATOM     13  C   UNL A   1      40.661 -21.432 -34.361  0.00  0.00    -0.045 C 
ATOM     14  C   UNL A   1      39.860 -22.025 -33.197  0.00  0.00    -0.026 C 
ATOM     15  C   UNL A   1      38.382 -21.638 -33.160  0.00  0.00    +0.061 C 
ATOM     16  C   UNL A   1      38.099 -20.234 -33.750  0.00  0.00    -0.006 C 
ATOM     17  C   UNL A   1      38.693 -19.152 -32.810  0.00  0.00    -0.057 C 
ATOM     18  C   UNL A   1      36.564 -20.006 -33.750  0.00  0.00    -0.057 C 
ATOM     19  C   UNL A   1      38.628 -20.136 -35.260  0.00  0.00    -0.028 C 
ATOM     20  C   UNL A   1      38.793 -18.660 -35.686  0.00  0.00    -0.049 C 
ATOM     21  C   UNL A   1      39.485 -18.454 -37.023  0.00  0.00    -0.047 C 
ATOM     22  C   UNL A   1      40.914 -19.050 -37.049  0.00  0.00    -0.023 C 
ATOM     23  C   UNL A   1      41.741 -18.428 -35.888  0.00  0.00    -0.059 C 
ATOM     24  C   UNL A   1      41.645 -18.748 -38.471  0.00  0.00    -0.021 C 
ATOM     25  C   UNL A   1      40.713 -19.130 -39.662  0.00  0.00    -0.059 C 
ATOM     26  C   UNL A   1      42.001 -17.243 -38.614  0.00  0.00    -0.020 C 
ATOM     27  C   UNL A   1      42.694 -16.903 -39.932  0.00  0.00    +0.061 C 
ENDROOT
BRANCH   1  29
ATOM     28  C   UNL A   1      46.975 -21.083 -41.176  0.00  0.00    -0.099 C 
ATOM     29  C   UNL A   1      45.713 -20.755 -40.848  0.00  0.00    -0.076 C 
ATOM     30  C   UNL A   1      44.579 -21.432 -41.582  0.00  0.00    -0.044 C 
ENDBRANCH   1  29
BRANCH  15  31
ATOM     31  O   UNL A   1      37.896 -21.778 -31.822  0.00  0.00    -0.391 OA
ATOM     32  H   UNL A   1      37.536 -20.930 -31.519  0.00  0.00    +0.000 HD
ENDBRANCH  15  31
BRANCH  27  33
ATOM     33  O   UNL A   1      43.050 -15.518 -39.917  0.00  0.00    -0.391 OA
ATOM     34  H   UNL A   1      42.392 -15.020 -39.407  0.00  0.00    +0.000 HD
ENDBRANCH  27  33
TORSDOF 3
ENDMDL
MODEL 14
REMARK VINA RESULT:    -6.760      1.989      3.579
REMARK INTER + INTRA:          -8.053
REMARK INTER:                  -7.633
REMARK INTRA:                  -0.420
REMARK UNBOUND:                -0.502
REMARK  Name = cpd250.pdb
REMARK  10 active torsions:
REMARK  status: ('A' for Active; 'I' for Inactive)
REMARK    1  A    between atoms: C_2  and  C_3
REMARK    2  A    between atoms: C_2  and  C_4
REMARK    3  A    between atoms: C_7  and  C_8
REMARK    4  A    between atoms: C_14  and  C_15
REMARK    5  A    between atoms: C_18  and  O_19
REMARK    6  A    between atoms: C_20  and  C_21
REMARK    7  A    between atoms: C_20  and  C_22
REMARK    8  A    between atoms: C_26  and  C_27
REMARK    9  A    between atoms: C_28  and  C_29
REMARK   10  A    between atoms: C_31  and  O_32
REMARK                            x       y       z     vdW  Elec       q    Type
REMARK                         _______ _______ _______ _____ _____    ______ ____
ROOT
ATOM      1  C   UNL A   1      43.445 -17.008 -40.744  0.00  0.00    -0.017 C 
ATOM      2  C   UNL A   1      44.296 -17.895 -41.684  0.00  0.00    -0.046 C 
ATOM      3  C   UNL A   1      45.236 -18.691 -40.786  0.00  0.00    -0.044 C 
ATOM      4  C   UNL A   1      45.489 -17.774 -39.578  0.00  0.00    -0.002 C 
ATOM      5  C   UNL A   1      46.475 -16.648 -39.982  0.00  0.00    -0.057 C 
ATOM      6  C   UNL A   1      44.068 -17.194 -39.308  0.00  0.00    -0.023 C 
ATOM      7  C   UNL A   1      43.168 -18.136 -38.428  0.00  0.00    -0.031 C 
ATOM      8  C   UNL A   1      41.819 -17.484 -38.081  0.00  0.00    -0.049 C 
ATOM      9  C   UNL A   1      40.889 -18.427 -37.319  0.00  0.00    -0.049 C 
ATOM     10  C   UNL A   1      41.525 -18.959 -36.019  0.00  0.00    -0.029 C 
ATOM     11  C   UNL A   1      40.491 -19.680 -35.033  0.00  0.00    -0.025 C 
ATOM     12  C   UNL A   1      39.730 -18.484 -34.351  0.00  0.00    -0.059 C 
ATOM     13  C   UNL A   1      39.429 -20.526 -35.776  0.00  0.00    -0.045 C 
ATOM     14  C   UNL A   1      38.351 -21.150 -34.884  0.00  0.00    -0.026 C 
ATOM     15  C   UNL A   1      38.775 -21.415 -33.439  0.00  0.00    +0.061 C 
ATOM     16  C   UNL A   1      40.283 -21.733 -33.288  0.00  0.00    -0.006 C 
ATOM     17  C   UNL A   1      40.582 -23.117 -33.922  0.00  0.00    -0.057 C 
ATOM     18  C   UNL A   1      40.602 -21.875 -31.777  0.00  0.00    -0.057 C 
ATOM     19  C   UNL A   1      41.176 -20.544 -33.887  0.00  0.00    -0.028 C 
ATOM     20  C   UNL A   1      42.612 -21.034 -34.181  0.00  0.00    -0.049 C 
ATOM     21  C   UNL A   1      43.481 -20.048 -34.943  0.00  0.00    -0.047 C 
ATOM     22  C   UNL A   1      42.884 -19.675 -36.323  0.00  0.00    -0.023 C 
ATOM     23  C   UNL A   1      42.661 -20.976 -37.144  0.00  0.00    -0.059 C 
ATOM     24  C   UNL A   1      43.877 -18.673 -37.135  0.00  0.00    -0.021 C 
ATOM     25  C   UNL A   1      44.322 -17.484 -36.228  0.00  0.00    -0.059 C 
ATOM     26  C   UNL A   1      45.158 -19.411 -37.609  0.00  0.00    -0.020 C 
ATOM     27  C   UNL A   1      46.126 -18.516 -38.382  0.00  0.00    +0.061 C 
ENDROOT
BRANCH   1  29
ATOM     28  C   UNL A   1      44.109 -14.768 -41.805  0.00  0.00    -0.099 C 
ATOM     29  C   UNL A   1      43.235 -15.542 -41.136  0.00  0.00    -0.076 C 
ATOM     30  C   UNL A   1      41.894 -14.956 -40.763  0.00  0.00    -0.044 C 
ENDBRANCH   1  29
BRANCH  15  31
ATOM     31  O   UNL A   1      37.941 -22.437 -32.887  0.00  0.00    -0.391 OA
ATOM     32  H   UNL A   1      37.341 -22.047 -32.232  0.00  0.00    +0.000 HD
ENDBRANCH  15  31
BRANCH  27  33
ATOM     33  O   UNL A   1      47.219 -19.316 -38.841  0.00  0.00    -0.391 OA
ATOM     34  H   UNL A   1      48.054 -18.852 -38.670  0.00  0.00    +0.000 HD
ENDBRANCH  27  33
TORSDOF 3
ENDMDL
MODEL 15
REMARK VINA RESULT:    -6.707      2.083      4.309
REMARK INTER + INTRA:          -7.993
REMARK INTER:                  -7.522
REMARK INTRA:                  -0.471
REMARK UNBOUND:                -0.502
REMARK  Name = cpd250.pdb
REMARK  10 active torsions:
REMARK  status: ('A' for Active; 'I' for Inactive)
REMARK    1  A    between atoms: C_2  and  C_3
REMARK    2  A    between atoms: C_2  and  C_4
REMARK    3  A    between atoms: C_7  and  C_8
REMARK    4  A    between atoms: C_14  and  C_15
REMARK    5  A    between atoms: C_18  and  O_19
REMARK    6  A    between atoms: C_20  and  C_21
REMARK    7  A    between atoms: C_20  and  C_22
REMARK    8  A    between atoms: C_26  and  C_27
REMARK    9  A    between atoms: C_28  and  C_29
REMARK   10  A    between atoms: C_31  and  O_32
REMARK                            x       y       z     vdW  Elec       q    Type
REMARK                         _______ _______ _______ _____ _____    ______ ____
ROOT
ATOM      1  C   UNL A   1      45.538 -15.843 -38.721  0.00  0.00    -0.017 C 
ATOM      2  C   UNL A   1      45.050 -15.476 -40.144  0.00  0.00    -0.046 C 
ATOM      3  C   UNL A   1      44.568 -16.776 -40.779  0.00  0.00    -0.044 C 
ATOM      4  C   UNL A   1      45.444 -17.867 -40.142  0.00  0.00    -0.002 C 
ATOM      5  C   UNL A   1      46.860 -17.827 -40.774  0.00  0.00    -0.057 C 
ATOM      6  C   UNL A   1      45.490 -17.417 -38.651  0.00  0.00    -0.023 C 
ATOM      7  C   UNL A   1      44.249 -17.899 -37.816  0.00  0.00    -0.031 C 
ATOM      8  C   UNL A   1      44.383 -17.542 -36.326  0.00  0.00    -0.049 C 
ATOM      9  C   UNL A   1      43.138 -17.906 -35.519  0.00  0.00    -0.049 C 
ATOM     10  C   UNL A   1      42.777 -19.401 -35.635  0.00  0.00    -0.029 C 
ATOM     11  C   UNL A   1      41.692 -19.895 -34.568  0.00  0.00    -0.025 C 
ATOM     12  C   UNL A   1      42.517 -20.040 -33.235  0.00  0.00    -0.059 C 
ATOM     13  C   UNL A   1      40.581 -18.852 -34.299  0.00  0.00    -0.045 C 
ATOM     14  C   UNL A   1      39.577 -19.233 -33.207  0.00  0.00    -0.026 C 
ATOM     15  C   UNL A   1      39.388 -20.735 -32.992  0.00  0.00    +0.061 C 
ATOM     16  C   UNL A   1      39.591 -21.571 -34.280  0.00  0.00    -0.006 C 
ATOM     17  C   UNL A   1      38.431 -21.284 -35.268  0.00  0.00    -0.057 C 
ATOM     18  C   UNL A   1      39.477 -23.072 -33.909  0.00  0.00    -0.057 C 
ATOM     19  C   UNL A   1      41.046 -21.310 -34.902  0.00  0.00    -0.028 C 
ATOM     20  C   UNL A   1      41.090 -21.736 -36.386  0.00  0.00    -0.049 C 
ATOM     21  C   UNL A   1      42.355 -21.340 -37.128  0.00  0.00    -0.047 C 
ATOM     22  C   UNL A   1      42.584 -19.808 -37.134  0.00  0.00    -0.023 C 
ATOM     23  C   UNL A   1      41.335 -19.114 -37.746  0.00  0.00    -0.059 C 
ATOM     24  C   UNL A   1      43.909 -19.421 -37.996  0.00  0.00    -0.021 C 
ATOM     25  C   UNL A   1      45.123 -20.302 -37.566  0.00  0.00    -0.059 C 
ATOM     26  C   UNL A   1      43.679 -19.644 -39.515  0.00  0.00    -0.020 C 
ATOM     27  C   UNL A   1      44.893 -19.292 -40.374  0.00  0.00    +0.061 C 
ENDROOT
BRANCH   1  29
ATOM     28  C   UNL A   1      47.554 -14.260 -38.845  0.00  0.00    -0.099 C 
ATOM     29  C   UNL A   1      46.867 -15.248 -38.244  0.00  0.00    -0.076 C 
ATOM     30  C   UNL A   1      47.403 -15.813 -36.949  0.00  0.00    -0.044 C 
ENDBRANCH   1  29
BRANCH  15  31
ATOM     31  O   UNL A   1      38.112 -20.963 -32.387  0.00  0.00    -0.391 OA
ATOM     32  H   UNL A   1      38.092 -20.549 -31.510  0.00  0.00    +0.000 HD
ENDBRANCH  15  31
BRANCH  27  33
ATOM     33  O   UNL A   1      44.539 -19.452 -41.751  0.00  0.00    -0.391 OA
ATOM     34  H   UNL A   1      44.159 -20.333 -41.887  0.00  0.00    +0.000 HD
ENDBRANCH  27  33
TORSDOF 3
ENDMDL
MODEL 16
REMARK VINA RESULT:    -6.574      2.094      4.150
REMARK INTER + INTRA:          -7.844
REMARK INTER:                  -7.321
REMARK INTRA:                  -0.523
REMARK UNBOUND:                -0.502
REMARK  Name = cpd250.pdb
REMARK  10 active torsions:
REMARK  status: ('A' for Active; 'I' for Inactive)
REMARK    1  A    between atoms: C_2  and  C_3
REMARK    2  A    between atoms: C_2  and  C_4
REMARK    3  A    between atoms: C_7  and  C_8
REMARK    4  A    between atoms: C_14  and  C_15
REMARK    5  A    between atoms: C_18  and  O_19
REMARK    6  A    between atoms: C_20  and  C_21
REMARK    7  A    between atoms: C_20  and  C_22
REMARK    8  A    between atoms: C_26  and  C_27
REMARK    9  A    between atoms: C_28  and  C_29
REMARK   10  A    between atoms: C_31  and  O_32
REMARK                            x       y       z     vdW  Elec       q    Type
REMARK                         _______ _______ _______ _____ _____    ______ ____
ROOT
ATOM      1  C   UNL A   1      44.821 -17.395 -39.060  0.00  0.00    -0.017 C 
ATOM      2  C   UNL A   1      44.458 -17.273 -40.560  0.00  0.00    -0.046 C 
ATOM      3  C   UNL A   1      43.604 -18.491 -40.894  0.00  0.00    -0.044 C 
ATOM      4  C   UNL A   1      44.115 -19.594 -39.951  0.00  0.00    -0.002 C 
ATOM      5  C   UNL A   1      45.473 -20.130 -40.471  0.00  0.00    -0.057 C 
ATOM      6  C   UNL A   1      44.302 -18.815 -38.614  0.00  0.00    -0.023 C 
ATOM      7  C   UNL A   1      42.978 -18.687 -37.777  0.00  0.00    -0.031 C 
ATOM      8  C   UNL A   1      43.221 -18.021 -36.413  0.00  0.00    -0.049 C 
ATOM      9  C   UNL A   1      41.928 -17.789 -35.632  0.00  0.00    -0.049 C 
ATOM     10  C   UNL A   1      41.134 -19.092 -35.407  0.00  0.00    -0.029 C 
ATOM     11  C   UNL A   1      39.955 -18.961 -34.332  0.00  0.00    -0.025 C 
ATOM     12  C   UNL A   1      40.706 -19.000 -32.950  0.00  0.00    -0.059 C 
ATOM     13  C   UNL A   1      39.212 -17.606 -34.405  0.00  0.00    -0.045 C 
ATOM     14  C   UNL A   1      38.145 -17.389 -33.326  0.00  0.00    -0.026 C 
ATOM     15  C   UNL A   1      37.514 -18.664 -32.768  0.00  0.00    +0.061 C 
ATOM     16  C   UNL A   1      37.450 -19.820 -33.798  0.00  0.00    -0.006 C 
ATOM     17  C   UNL A   1      36.424 -19.465 -34.906  0.00  0.00    -0.057 C 
ATOM     18  C   UNL A   1      36.891 -21.078 -33.083  0.00  0.00    -0.057 C 
ATOM     19  C   UNL A   1      38.912 -20.161 -34.359  0.00  0.00    -0.028 C 
ATOM     20  C   UNL A   1      38.818 -20.941 -35.689  0.00  0.00    -0.049 C 
ATOM     21  C   UNL A   1      40.140 -21.133 -36.413  0.00  0.00    -0.047 C 
ATOM     22  C   UNL A   1      40.819 -19.789 -36.774  0.00  0.00    -0.023 C 
ATOM     23  C   UNL A   1      39.834 -18.938 -37.623  0.00  0.00    -0.059 C 
ATOM     24  C   UNL A   1      42.195 -20.036 -37.607  0.00  0.00    -0.021 C 
ATOM     25  C   UNL A   1      43.090 -21.096 -36.891  0.00  0.00    -0.059 C 
ATOM     26  C   UNL A   1      41.900 -20.558 -39.040  0.00  0.00    -0.020 C 
ATOM     27  C   UNL A   1      43.159 -20.805 -39.870  0.00  0.00    +0.061 C 
ENDROOT
BRANCH   1  29
ATOM     28  C   UNL A   1      46.806 -17.340 -37.435  0.00  0.00    -0.099 C 
ATOM     29  C   UNL A   1      46.269 -17.115 -38.647  0.00  0.00    -0.076 C 
ATOM     30  C   UNL A   1      47.164 -16.582 -39.742  0.00  0.00    -0.044 C 
ENDBRANCH   1  29
BRANCH  15  31
ATOM     31  O   UNL A   1      36.232 -18.349 -32.218  0.00  0.00    -0.391 OA
ATOM     32  H   UNL A   1      36.052 -17.404 -32.338  0.00  0.00    +0.000 HD
ENDBRANCH  15  31
BRANCH  27  33
ATOM     33  O   UNL A   1      42.767 -21.196 -41.188  0.00  0.00    -0.391 OA
ATOM     34  H   UNL A   1      42.069 -20.603 -41.508  0.00  0.00    +0.000 HD
ENDBRANCH  27  33
TORSDOF 3
ENDMDL
MODEL 17
REMARK VINA RESULT:    -6.543      2.147      8.070
REMARK INTER + INTRA:          -7.809
REMARK INTER:                  -7.353
REMARK INTRA:                  -0.457
REMARK UNBOUND:                -0.502
REMARK  Name = cpd250.pdb
REMARK  10 active torsions:
REMARK  status: ('A' for Active; 'I' for Inactive)
REMARK    1  A    between atoms: C_2  and  C_3
REMARK    2  A    between atoms: C_2  and  C_4
REMARK    3  A    between atoms: C_7  and  C_8
REMARK    4  A    between atoms: C_14  and  C_15
REMARK    5  A    between atoms: C_18  and  O_19
REMARK    6  A    between atoms: C_20  and  C_21
REMARK    7  A    between atoms: C_20  and  C_22
REMARK    8  A    between atoms: C_26  and  C_27
REMARK    9  A    between atoms: C_28  and  C_29
REMARK   10  A    between atoms: C_31  and  O_32
REMARK                            x       y       z     vdW  Elec       q    Type
REMARK                         _______ _______ _______ _____ _____    ______ ____
ROOT
ATOM      1  C   UNL A   1      38.489 -20.705 -34.840  0.00  0.00    -0.017 C 
ATOM      2  C   UNL A   1      37.217 -19.866 -35.111  0.00  0.00    -0.046 C 
ATOM      3  C   UNL A   1      37.685 -18.428 -35.304  0.00  0.00    -0.044 C 
ATOM      4  C   UNL A   1      38.940 -18.307 -34.423  0.00  0.00    -0.002 C 
ATOM      5  C   UNL A   1      38.519 -18.202 -32.935  0.00  0.00    -0.057 C 
ATOM      6  C   UNL A   1      39.662 -19.661 -34.700  0.00  0.00    -0.023 C 
ATOM      7  C   UNL A   1      40.547 -19.640 -35.998  0.00  0.00    -0.031 C 
ATOM      8  C   UNL A   1      41.337 -20.947 -36.177  0.00  0.00    -0.049 C 
ATOM      9  C   UNL A   1      42.119 -20.988 -37.490  0.00  0.00    -0.049 C 
ATOM     10  C   UNL A   1      43.094 -19.802 -37.632  0.00  0.00    -0.029 C 
ATOM     11  C   UNL A   1      44.155 -19.967 -38.818  0.00  0.00    -0.025 C 
ATOM     12  C   UNL A   1      45.218 -20.969 -38.231  0.00  0.00    -0.059 C 
ATOM     13  C   UNL A   1      43.558 -20.632 -40.082  0.00  0.00    -0.045 C 
ATOM     14  C   UNL A   1      44.560 -20.911 -41.208  0.00  0.00    -0.026 C 
ATOM     15  C   UNL A   1      45.777 -19.986 -41.240  0.00  0.00    +0.061 C 
ATOM     16  C   UNL A   1      45.481 -18.562 -40.707  0.00  0.00    -0.006 C 
ATOM     17  C   UNL A   1      44.546 -17.824 -41.700  0.00  0.00    -0.057 C 
ATOM     18  C   UNL A   1      46.810 -17.762 -40.694  0.00  0.00    -0.057 C 
ATOM     19  C   UNL A   1      44.910 -18.624 -39.210  0.00  0.00    -0.028 C 
ATOM     20  C   UNL A   1      44.179 -17.312 -38.850  0.00  0.00    -0.049 C 
ATOM     21  C   UNL A   1      43.421 -17.342 -37.533  0.00  0.00    -0.047 C 
ATOM     22  C   UNL A   1      42.330 -18.441 -37.503  0.00  0.00    -0.023 C 
ATOM     23  C   UNL A   1      41.364 -18.225 -38.701  0.00  0.00    -0.059 C 
ATOM     24  C   UNL A   1      41.497 -18.396 -36.105  0.00  0.00    -0.021 C 
ATOM     25  C   UNL A   1      42.469 -18.349 -34.886  0.00  0.00    -0.059 C 
ATOM     26  C   UNL A   1      40.587 -17.139 -36.032  0.00  0.00    -0.020 C 
ATOM     27  C   UNL A   1      39.778 -17.048 -34.740  0.00  0.00    +0.061 C 
ENDROOT
BRANCH   1  29
ATOM     28  C   UNL A   1      37.367 -22.041 -32.959  0.00  0.00    -0.099 C 
ATOM     29  C   UNL A   1      38.443 -21.731 -33.704  0.00  0.00    -0.076 C 
ATOM     30  C   UNL A   1      39.731 -22.481 -33.454  0.00  0.00    -0.044 C 
ENDBRANCH   1  29
BRANCH  15  31
ATOM     31  O   UNL A   1      46.319 -19.973 -42.564  0.00  0.00    -0.391 OA
ATOM     32  H   UNL A   1      45.634 -19.696 -43.191  0.00  0.00    +0.000 HD
ENDBRANCH  15  31
BRANCH  27  33
ATOM     33  O   UNL A   1      38.918 -15.908 -34.820  0.00  0.00    -0.391 OA
ATOM     34  H   UNL A   1      38.662 -15.632 -33.926  0.00  0.00    +0.000 HD
ENDBRANCH  27  33
TORSDOF 3
ENDMDL
MODEL 18
REMARK VINA RESULT:    -6.511     17.194     20.127
REMARK INTER + INTRA:          -7.774
REMARK INTER:                  -7.235
REMARK INTRA:                  -0.539
REMARK UNBOUND:                -0.502
REMARK  Name = cpd250.pdb
REMARK  10 active torsions:
REMARK  status: ('A' for Active; 'I' for Inactive)
REMARK    1  A    between atoms: C_2  and  C_3
REMARK    2  A    between atoms: C_2  and  C_4
REMARK    3  A    between atoms: C_7  and  C_8
REMARK    4  A    between atoms: C_14  and  C_15
REMARK    5  A    between atoms: C_18  and  O_19
REMARK    6  A    between atoms: C_20  and  C_21
REMARK    7  A    between atoms: C_20  and  C_22
REMARK    8  A    between atoms: C_26  and  C_27
REMARK    9  A    between atoms: C_28  and  C_29
REMARK   10  A    between atoms: C_31  and  O_32
REMARK                            x       y       z     vdW  Elec       q    Type
REMARK                         _______ _______ _______ _____ _____    ______ ____
ROOT
ATOM      1  C   UNL A   1      29.171 -30.397 -30.361  0.00  0.00    -0.017 C 
ATOM      2  C   UNL A   1      28.756 -29.884 -28.961  0.00  0.00    -0.046 C 
ATOM      3  C   UNL A   1      28.579 -31.121 -28.087  0.00  0.00    -0.044 C 
ATOM      4  C   UNL A   1      28.120 -32.220 -29.059  0.00  0.00    -0.002 C 
ATOM      5  C   UNL A   1      26.630 -31.997 -29.425  0.00  0.00    -0.057 C 
ATOM      6  C   UNL A   1      29.037 -31.966 -30.294  0.00  0.00    -0.023 C 
ATOM      7  C   UNL A   1      30.451 -32.641 -30.169  0.00  0.00    -0.031 C 
ATOM      8  C   UNL A   1      31.285 -32.472 -31.450  0.00  0.00    -0.049 C 
ATOM      9  C   UNL A   1      32.701 -33.027 -31.307  0.00  0.00    -0.049 C 
ATOM     10  C   UNL A   1      32.714 -34.516 -30.907  0.00  0.00    -0.029 C 
ATOM     11  C   UNL A   1      34.142 -35.222 -31.059  0.00  0.00    -0.025 C 
ATOM     12  C   UNL A   1      34.267 -35.478 -32.607  0.00  0.00    -0.059 C 
ATOM     13  C   UNL A   1      35.321 -34.304 -30.657  0.00  0.00    -0.045 C 
ATOM     14  C   UNL A   1      36.716 -34.896 -30.886  0.00  0.00    -0.026 C 
ATOM     15  C   UNL A   1      36.789 -36.422 -30.850  0.00  0.00    +0.061 C 
ATOM     16  C   UNL A   1      35.744 -37.067 -29.906  0.00  0.00    -0.006 C 
ATOM     17  C   UNL A   1      36.108 -36.737 -28.435  0.00  0.00    -0.057 C 
ATOM     18  C   UNL A   1      35.852 -38.608 -30.041  0.00  0.00    -0.057 C 
ATOM     19  C   UNL A   1      34.259 -36.623 -30.317  0.00  0.00    -0.028 C 
ATOM     20  C   UNL A   1      33.279 -36.848 -29.144  0.00  0.00    -0.049 C 
ATOM     21  C   UNL A   1      31.889 -36.269 -29.353  0.00  0.00    -0.047 C 
ATOM     22  C   UNL A   1      31.914 -34.737 -29.579  0.00  0.00    -0.023 C 
ATOM     23  C   UNL A   1      32.628 -34.060 -28.375  0.00  0.00    -0.059 C 
ATOM     24  C   UNL A   1      30.404 -34.146 -29.728  0.00  0.00    -0.021 C 
ATOM     25  C   UNL A   1      29.583 -34.986 -30.755  0.00  0.00    -0.059 C 
ATOM     26  C   UNL A   1      29.646 -34.186 -28.373  0.00  0.00    -0.020 C 
ATOM     27  C   UNL A   1      28.223 -33.639 -28.455  0.00  0.00    +0.061 C 
ENDROOT
BRANCH   1  29
ATOM     28  C   UNL A   1      28.186 -28.475 -31.746  0.00  0.00    -0.099 C 
ATOM     29  C   UNL A   1      28.489 -29.775 -31.584  0.00  0.00    -0.076 C 
ATOM     30  C   UNL A   1      28.185 -30.731 -32.714  0.00  0.00    -0.044 C 
ENDBRANCH   1  29
BRANCH  15  31
ATOM     31  O   UNL A   1      38.128 -36.819 -30.538  0.00  0.00    -0.391 OA
ATOM     32  H   UNL A   1      38.578 -37.102 -31.349  0.00  0.00    +0.000 HD
ENDBRANCH  15  31
BRANCH  27  33
ATOM     33  O   UNL A   1      27.656 -33.643 -27.142  0.00  0.00    -0.391 OA
ATOM     34  H   UNL A   1      27.498 -34.557 -26.860  0.00  0.00    +0.000 HD
ENDBRANCH  27  33
TORSDOF 3
ENDMDL
MODEL 19
REMARK VINA RESULT:    -6.211      3.192      8.512
REMARK INTER + INTRA:          -7.439
REMARK INTER:                  -6.917
REMARK INTRA:                  -0.522
REMARK UNBOUND:                -0.502
REMARK  Name = cpd250.pdb
REMARK  10 active torsions:
REMARK  status: ('A' for Active; 'I' for Inactive)
REMARK    1  A    between atoms: C_2  and  C_3
REMARK    2  A    between atoms: C_2  and  C_4
REMARK    3  A    between atoms: C_7  and  C_8
REMARK    4  A    between atoms: C_14  and  C_15
REMARK    5  A    between atoms: C_18  and  O_19
REMARK    6  A    between atoms: C_20  and  C_21
REMARK    7  A    between atoms: C_20  and  C_22
REMARK    8  A    between atoms: C_26  and  C_27
REMARK    9  A    between atoms: C_28  and  C_29
REMARK   10  A    between atoms: C_31  and  O_32
REMARK                            x       y       z     vdW  Elec       q    Type
REMARK                         _______ _______ _______ _____ _____    ______ ____
ROOT
ATOM      1  C   UNL A   1      41.438 -19.952 -36.566  0.00  0.00    -0.017 C 
ATOM      2  C   UNL A   1      40.597 -19.331 -35.424  0.00  0.00    -0.046 C 
ATOM      3  C   UNL A   1      41.588 -18.668 -34.474  0.00  0.00    -0.044 C 
ATOM      4  C   UNL A   1      42.864 -19.518 -34.590  0.00  0.00    -0.002 C 
ATOM      5  C   UNL A   1      42.672 -20.847 -33.814  0.00  0.00    -0.057 C 
ATOM      6  C   UNL A   1      42.942 -19.779 -36.124  0.00  0.00    -0.023 C 
ATOM      7  C   UNL A   1      43.625 -18.610 -36.921  0.00  0.00    -0.031 C 
ATOM      8  C   UNL A   1      43.794 -18.950 -38.411  0.00  0.00    -0.049 C 
ATOM      9  C   UNL A   1      44.357 -17.783 -39.221  0.00  0.00    -0.049 C 
ATOM     10  C   UNL A   1      45.710 -17.285 -38.676  0.00  0.00    -0.029 C 
ATOM     11  C   UNL A   1      46.489 -16.296 -39.664  0.00  0.00    -0.025 C 
ATOM     12  C   UNL A   1      47.105 -17.259 -40.746  0.00  0.00    -0.059 C 
ATOM     13  C   UNL A   1      45.552 -15.318 -40.411  0.00  0.00    -0.045 C 
ATOM     14  C   UNL A   1      46.236 -14.422 -41.448  0.00  0.00    -0.026 C 
ATOM     15  C   UNL A   1      47.714 -14.133 -41.185  0.00  0.00    +0.061 C 
ATOM     16  C   UNL A   1      48.078 -14.110 -39.680  0.00  0.00    -0.006 C 
ATOM     17  C   UNL A   1      47.430 -12.869 -39.012  0.00  0.00    -0.057 C 
ATOM     18  C   UNL A   1      49.611 -13.914 -39.552  0.00  0.00    -0.057 C 
ATOM     19  C   UNL A   1      47.683 -15.498 -38.980  0.00  0.00    -0.028 C 
ATOM     20  C   UNL A   1      47.588 -15.328 -37.447  0.00  0.00    -0.049 C 
ATOM     21  C   UNL A   1      47.018 -16.526 -36.706  0.00  0.00    -0.047 C 
ATOM     22  C   UNL A   1      45.583 -16.881 -37.168  0.00  0.00    -0.023 C 
ATOM     23  C   UNL A   1      44.674 -15.632 -36.998  0.00  0.00    -0.059 C 
ATOM     24  C   UNL A   1      44.984 -18.123 -36.304  0.00  0.00    -0.021 C 
ATOM     25  C   UNL A   1      46.006 -19.300 -36.248  0.00  0.00    -0.059 C 
ATOM     26  C   UNL A   1      44.675 -17.696 -34.843  0.00  0.00    -0.020 C 
ATOM     27  C   UNL A   1      44.106 -18.824 -33.985  0.00  0.00    +0.061 C 
ENDROOT
BRANCH   1  29
ATOM     28  C   UNL A   1      41.763 -22.099 -37.933  0.00  0.00    -0.099 C 
ATOM     29  C   UNL A   1      41.092 -21.373 -37.020  0.00  0.00    -0.076 C 
ATOM     30  C   UNL A   1      39.912 -22.008 -36.323  0.00  0.00    -0.044 C 
ENDBRANCH   1  29
BRANCH  15  31
ATOM     31  O   UNL A   1      48.081 -12.923 -41.855  0.00  0.00    -0.391 OA
ATOM     32  H   UNL A   1      48.172 -13.095 -42.805  0.00  0.00    +0.000 HD
ENDBRANCH  15  31
BRANCH  27  33
ATOM     33  O   UNL A   1      43.780 -18.298 -32.696  0.00  0.00    -0.391 OA
ATOM     34  H   UNL A   1      43.138 -17.578 -32.793  0.00  0.00    +0.000 HD
ENDBRANCH  27  33
TORSDOF 3
ENDMDL
MODEL 20
REMARK VINA RESULT:    -6.163      2.790      8.408
REMARK INTER + INTRA:          -7.385
REMARK INTER:                  -6.925
REMARK INTRA:                  -0.460
REMARK UNBOUND:                -0.502
REMARK  Name = cpd250.pdb
REMARK  10 active torsions:
REMARK  status: ('A' for Active; 'I' for Inactive)
REMARK    1  A    between atoms: C_2  and  C_3
REMARK    2  A    between atoms: C_2  and  C_4
REMARK    3  A    between atoms: C_7  and  C_8
REMARK    4  A    between atoms: C_14  and  C_15
REMARK    5  A    between atoms: C_18  and  O_19
REMARK    6  A    between atoms: C_20  and  C_21
REMARK    7  A    between atoms: C_20  and  C_22
REMARK    8  A    between atoms: C_26  and  C_27
REMARK    9  A    between atoms: C_28  and  C_29
REMARK   10  A    between atoms: C_31  and  O_32
REMARK                            x       y       z     vdW  Elec       q    Type
REMARK                         _______ _______ _______ _____ _____    ______ ____
ROOT
ATOM      1  C   UNL A   1      40.270 -20.629 -34.430  0.00  0.00    -0.017 C 
ATOM      2  C   UNL A   1      38.913 -19.883 -34.427  0.00  0.00    -0.046 C 
ATOM      3  C   UNL A   1      39.225 -18.427 -34.100  0.00  0.00    -0.044 C 
ATOM      4  C   UNL A   1      40.471 -18.490 -33.202  0.00  0.00    -0.002 C 
ATOM      5  C   UNL A   1      40.060 -18.949 -31.779  0.00  0.00    -0.057 C 
ATOM      6  C   UNL A   1      41.328 -19.582 -33.910  0.00  0.00    -0.023 C 
ATOM      7  C   UNL A   1      42.189 -19.023 -35.099  0.00  0.00    -0.031 C 
ATOM      8  C   UNL A   1      43.111 -20.099 -35.698  0.00  0.00    -0.049 C 
ATOM      9  C   UNL A   1      43.876 -19.603 -36.924  0.00  0.00    -0.049 C 
ATOM     10  C   UNL A   1      44.719 -18.347 -36.625  0.00  0.00    -0.029 C 
ATOM     11  C   UNL A   1      45.777 -17.983 -37.769  0.00  0.00    -0.025 C 
ATOM     12  C   UNL A   1      46.946 -19.011 -37.537  0.00  0.00    -0.059 C 
ATOM     13  C   UNL A   1      45.238 -18.228 -39.199  0.00  0.00    -0.045 C 
ATOM     14  C   UNL A   1      46.249 -17.996 -40.326  0.00  0.00    -0.026 C 
ATOM     15  C   UNL A   1      47.361 -16.996 -40.008  0.00  0.00    +0.061 C 
ATOM     16  C   UNL A   1      46.924 -15.883 -39.024  0.00  0.00    -0.006 C 
ATOM     17  C   UNL A   1      45.904 -14.948 -39.725  0.00  0.00    -0.057 C 
ATOM     18  C   UNL A   1      48.161 -15.004 -38.703  0.00  0.00    -0.057 C 
ATOM     19  C   UNL A   1      46.382 -16.517 -37.654  0.00  0.00    -0.028 C 
ATOM     20  C   UNL A   1      45.521 -15.492 -36.882  0.00  0.00    -0.049 C 
ATOM     21  C   UNL A   1      44.787 -16.054 -35.676  0.00  0.00    -0.047 C 
ATOM     22  C   UNL A   1      43.818 -17.201 -36.054  0.00  0.00    -0.023 C 
ATOM     23  C   UNL A   1      42.819 -16.686 -37.127  0.00  0.00    -0.059 C 
ATOM     24  C   UNL A   1      43.002 -17.728 -34.747  0.00  0.00    -0.021 C 
ATOM     25  C   UNL A   1      43.979 -18.005 -33.562  0.00  0.00    -0.059 C 
ATOM     26  C   UNL A   1      41.966 -16.675 -34.268  0.00  0.00    -0.020 C 
ATOM     27  C   UNL A   1      41.168 -17.119 -33.044  0.00  0.00    +0.061 C 
ENDROOT
BRANCH   1  29
ATOM     28  C   UNL A   1      41.213 -22.319 -32.747  0.00  0.00    -0.099 C 
ATOM     29  C   UNL A   1      40.346 -21.983 -33.719  0.00  0.00    -0.076 C 
ATOM     30  C   UNL A   1      39.306 -22.996 -34.137  0.00  0.00    -0.044 C 
ENDBRANCH   1  29
BRANCH  15  31
ATOM     31  O   UNL A   1      47.883 -16.472 -41.232  0.00  0.00    -0.391 OA
ATOM     32  H   UNL A   1      47.402 -15.663 -41.468  0.00  0.00    +0.000 HD
ENDBRANCH  15  31
BRANCH  27  33
ATOM     33  O   UNL A   1      40.191 -16.116 -32.747  0.00  0.00    -0.391 OA
ATOM     34  H   UNL A   1      40.383 -15.317 -33.261  0.00  0.00    +0.000 HD
ENDBRANCH  27  33
TORSDOF 3
ENDMDL
