MODEL 1
REMARK VINA RESULT:    -8.231      0.000      0.000
REMARK INTER + INTRA:         -16.879
REMARK INTER:                 -13.524
REMARK INTRA:                  -3.355
REMARK UNBOUND:                -3.355
REMARK  Name = cpd180.pdb
REMARK  13 active torsions:
REMARK  status: ('A' for Active; 'I' for Inactive)
REMARK    1  A    between atoms: C_1  and  C_2
REMARK    2  A    between atoms: C_6  and  N_7
REMARK    3  A    between atoms: N_7  and  C_8
REMARK    4  A    between atoms: C_13  and  C_14
REMARK    5  A    between atoms: N_16  and  C_17
REMARK    6  A    between atoms: C_17  and  C_18
REMARK    7  A    between atoms: C_18  and  C_19
REMARK    8  A    between atoms: N_21  and  C_22
REMARK    9  A    between atoms: C_22  and  C_23
REMARK   10  A    between atoms: C_23  and  C_24
REMARK   11  A    between atoms: C_24  and  N_25
REMARK   12  A    between atoms: N_25  and  C_26
REMARK   13  A    between atoms: C_40  and  C_41
REMARK                            x       y       z     vdW  Elec       q    Type
REMARK                         _______ _______ _______ _____ _____    ______ ____
ROOT
ATOM      1  C   UNL A   1      45.367 -17.189 -34.256  0.00  0.00    +0.215 C 
ATOM      2  O   UNL A   1      44.994 -16.789 -35.353  0.00  0.00    -0.276 OA
ATOM      3  N   UNL A   1      46.568 -17.836 -34.055  0.00  0.00    -0.315 N 
ATOM      4  H   UNL A   1      46.836 -18.060 -33.135  0.00  0.00    +0.000 HD
ENDROOT
BRANCH   1   5
ATOM      5  C   UNL A   1      44.572 -17.011 -32.982  0.00  0.00    +0.039 C 
BRANCH   5   6
ATOM      6  C   UNL A   1      43.675 -18.212 -32.720  0.00  0.00    +0.020 C 
BRANCH   6   9
ATOM      7  C   UNL A   1      43.329 -19.869 -34.513  0.00  0.00    +0.246 C 
ATOM      8  O   UNL A   1      44.131 -20.662 -34.029  0.00  0.00    -0.270 OA
ATOM      9  N   UNL A   1      43.002 -18.662 -33.927  0.00  0.00    -0.311 N 
ATOM     10  H   UNL A   1      42.304 -18.099 -34.332  0.00  0.00    +0.000 HD
BRANCH   7  16
ATOM     11  C   UNL A   1      41.669 -21.141 -35.902  0.00  0.00    +0.044 A 
ATOM     12  C   UNL A   1      41.088 -21.387 -37.156  0.00  0.00    -0.040 A 
ATOM     13  C   UNL A   1      41.490 -20.681 -38.292  0.00  0.00    -0.060 A 
ATOM     14  C   UNL A   1      42.482 -19.710 -38.197  0.00  0.00    -0.061 A 
ATOM     15  C   UNL A   1      43.079 -19.446 -36.964  0.00  0.00    -0.048 A 
ATOM     16  C   UNL A   1      42.683 -20.163 -35.822  0.00  0.00    +0.058 A 
BRANCH  11  17
ATOM     17  N   UNL A   1      41.273 -21.884 -34.767  0.00  0.00    -0.314 N 
ATOM     18  H   UNL A   1      42.017 -22.175 -34.190  0.00  0.00    +0.000 HD
BRANCH  17  24
ATOM     19  C   UNL A   1      36.877 -20.743 -32.658  0.00  0.00    -0.039 C 
ATOM     20  C   UNL A   1      37.834 -21.716 -33.294  0.00  0.00    -0.046 A 
ATOM     21  C   UNL A   1      37.434 -23.052 -33.432  0.00  0.00    -0.058 A 
ATOM     22  C   UNL A   1      38.284 -23.990 -34.006  0.00  0.00    -0.060 A 
ATOM     23  C   UNL A   1      39.550 -23.607 -34.442  0.00  0.00    -0.040 A 
ATOM     24  C   UNL A   1      39.992 -22.281 -34.318  0.00  0.00    +0.035 A 
ATOM     25  C   UNL A   1      39.107 -21.315 -33.770  0.00  0.00    -0.026 A 
ATOM     26  C   UNL A   1      39.551 -19.875 -33.649  0.00  0.00    -0.038 C 
ENDBRANCH  17  24
ENDBRANCH  11  17
ENDBRANCH   7  16
ENDBRANCH   6   9
ENDBRANCH   5   6
ENDBRANCH   1   5
BRANCH   3  27
ATOM     27  C   UNL A   1      47.451 -18.198 -35.147  0.00  0.00    +0.013 C 
BRANCH  27  28
ATOM     28  C   UNL A   1      47.409 -19.686 -35.492  0.00  0.00    -0.022 C 
BRANCH  28  29
ATOM     29  C   UNL A   1      46.638 -19.972 -36.782  0.00  0.00    +0.011 C 
BRANCH  29  30
ATOM     30  N   UNL A   1      47.430 -19.669 -37.989  0.00  0.00    -0.343 N 
ATOM     31  H   UNL A   1      48.379 -19.412 -37.937  0.00  0.00    +0.000 HD
BRANCH  30  32
ATOM     32  C   UNL A   1      46.746 -19.769 -39.228  0.00  0.00    +0.041 A 
ATOM     33  C   UNL A   1      45.916 -18.712 -39.665  0.00  0.00    -0.005 A 
ATOM     34  C   UNL A   1      45.326 -18.827 -40.927  0.00  0.00    +0.047 A 
ATOM     35  N   UNL A   1      45.549 -19.870 -41.759  0.00  0.00    -0.251 NA
ATOM     36  C   UNL A   1      46.317 -20.883 -41.340  0.00  0.00    +0.073 A 
ATOM     37  C   UNL A   1      46.495 -21.961 -42.199  0.00  0.00    -0.036 A 
ATOM     38  C   UNL A   1      47.245 -23.080 -41.837  0.00  0.00    -0.060 A 
ATOM     39  C   UNL A   1      47.823 -23.136 -40.579  0.00  0.00    -0.061 A 
ATOM     40  C   UNL A   1      47.660 -22.062 -39.703  0.00  0.00    -0.051 A 
ATOM     41  C   UNL A   1      46.932 -20.902 -40.073  0.00  0.00    +0.021 A 
ATOM     42  C   UNL A   1      44.432 -17.752 -41.490  0.00  0.00    -0.010 C 
ATOM     43  C   UNL A   1      43.831 -16.850 -40.420  0.00  0.00    -0.047 C 
ATOM     44  C   UNL A   1      44.932 -16.355 -39.497  0.00  0.00    -0.049 C 
ATOM     45  C   UNL A   1      45.598 -17.528 -38.780  0.00  0.00    -0.024 C 
ENDBRANCH  30  32
ENDBRANCH  29  30
ENDBRANCH  28  29
ENDBRANCH  27  28
ENDBRANCH   3  27
TORSDOF 11
ENDMDL
MODEL 2
REMARK VINA RESULT:    -8.071      2.158      6.305
REMARK INTER + INTRA:         -16.617
REMARK INTER:                 -11.877
REMARK INTRA:                  -4.740
REMARK UNBOUND:                -3.355
REMARK  Name = cpd180.pdb
REMARK  13 active torsions:
REMARK  status: ('A' for Active; 'I' for Inactive)
REMARK    1  A    between atoms: C_1  and  C_2
REMARK    2  A    between atoms: C_6  and  N_7
REMARK    3  A    between atoms: N_7  and  C_8
REMARK    4  A    between atoms: C_13  and  C_14
REMARK    5  A    between atoms: N_16  and  C_17
REMARK    6  A    between atoms: C_17  and  C_18
REMARK    7  A    between atoms: C_18  and  C_19
REMARK    8  A    between atoms: N_21  and  C_22
REMARK    9  A    between atoms: C_22  and  C_23
REMARK   10  A    between atoms: C_23  and  C_24
REMARK   11  A    between atoms: C_24  and  N_25
REMARK   12  A    between atoms: N_25  and  C_26
REMARK   13  A    between atoms: C_40  and  C_41
REMARK                            x       y       z     vdW  Elec       q    Type
REMARK                         _______ _______ _______ _____ _____    ______ ____
ROOT
ATOM      1  C   UNL A   1      40.752 -21.816 -36.466  0.00  0.00    +0.215 C 
ATOM      2  O   UNL A   1      41.228 -22.932 -36.642  0.00  0.00    -0.276 OA
ATOM      3  N   UNL A   1      40.083 -21.115 -37.448  0.00  0.00    -0.315 N 
ATOM      4  H   UNL A   1      39.661 -20.258 -37.213  0.00  0.00    +0.000 HD
ENDROOT
BRANCH   1   5
ATOM      5  C   UNL A   1      40.819 -21.071 -35.152  0.00  0.00    +0.039 C 
BRANCH   5   6
ATOM      6  C   UNL A   1      42.191 -21.211 -34.509  0.00  0.00    +0.020 C 
BRANCH   6   9
ATOM      7  C   UNL A   1      44.431 -20.213 -34.773  0.00  0.00    +0.246 C 
ATOM      8  O   UNL A   1      44.715 -20.367 -33.588  0.00  0.00    -0.270 OA
ATOM      9  N   UNL A   1      43.239 -20.632 -35.332  0.00  0.00    -0.311 N 
ATOM     10  H   UNL A   1      43.099 -20.536 -36.301  0.00  0.00    +0.000 HD
BRANCH   7  16
ATOM     11  C   UNL A   1      45.339 -18.097 -35.771  0.00  0.00    +0.044 A 
ATOM     12  C   UNL A   1      46.244 -17.469 -36.641  0.00  0.00    -0.040 A 
ATOM     13  C   UNL A   1      47.160 -18.210 -37.393  0.00  0.00    -0.060 A 
ATOM     14  C   UNL A   1      47.190 -19.598 -37.286  0.00  0.00    -0.061 A 
ATOM     15  C   UNL A   1      46.301 -20.248 -36.431  0.00  0.00    -0.048 A 
ATOM     16  C   UNL A   1      45.373 -19.505 -35.682  0.00  0.00    +0.058 A 
BRANCH  11  17
ATOM     17  N   UNL A   1      44.399 -17.336 -35.039  0.00  0.00    -0.314 N 
ATOM     18  H   UNL A   1      43.503 -17.296 -35.445  0.00  0.00    +0.000 HD
BRANCH  17  24
ATOM     19  C   UNL A   1      43.843 -13.103 -32.423  0.00  0.00    -0.039 C 
ATOM     20  C   UNL A   1      44.243 -14.550 -32.542  0.00  0.00    -0.046 A 
ATOM     21  C   UNL A   1      44.762 -15.194 -31.410  0.00  0.00    -0.058 A 
ATOM     22  C   UNL A   1      45.152 -16.527 -31.471  0.00  0.00    -0.060 A 
ATOM     23  C   UNL A   1      45.037 -17.231 -32.667  0.00  0.00    -0.040 A 
ATOM     24  C   UNL A   1      44.527 -16.623 -33.824  0.00  0.00    +0.035 A 
ATOM     25  C   UNL A   1      44.090 -15.275 -33.750  0.00  0.00    -0.026 A 
ATOM     26  C   UNL A   1      43.514 -14.605 -34.977  0.00  0.00    -0.038 C 
ENDBRANCH  17  24
ENDBRANCH  11  17
ENDBRANCH   7  16
ENDBRANCH   6   9
ENDBRANCH   5   6
ENDBRANCH   1   5
BRANCH   3  27
ATOM     27  C   UNL A   1      39.978 -21.594 -38.813  0.00  0.00    +0.013 C 
BRANCH  27  28
ATOM     28  C   UNL A   1      40.978 -20.938 -39.764  0.00  0.00    -0.022 C 
BRANCH  28  29
ATOM     29  C   UNL A   1      42.290 -21.718 -39.872  0.00  0.00    +0.011 C 
BRANCH  29  30
ATOM     30  N   UNL A   1      43.335 -21.184 -38.978  0.00  0.00    -0.343 N 
ATOM     31  H   UNL A   1      43.406 -21.464 -38.036  0.00  0.00    +0.000 HD
BRANCH  30  32
ATOM     32  C   UNL A   1      44.231 -20.246 -39.552  0.00  0.00    +0.041 A 
ATOM     33  C   UNL A   1      45.311 -20.693 -40.347  0.00  0.00    -0.005 A 
ATOM     34  C   UNL A   1      46.118 -19.726 -40.952  0.00  0.00    +0.047 A 
ATOM     35  N   UNL A   1      45.889 -18.397 -40.851  0.00  0.00    -0.251 NA
ATOM     36  C   UNL A   1      44.881 -17.969 -40.081  0.00  0.00    +0.073 A 
ATOM     37  C   UNL A   1      44.693 -16.598 -39.961  0.00  0.00    -0.036 A 
ATOM     38  C   UNL A   1      43.695 -16.054 -39.151  0.00  0.00    -0.060 A 
ATOM     39  C   UNL A   1      42.869 -16.900 -38.428  0.00  0.00    -0.061 A 
ATOM     40  C   UNL A   1      43.038 -18.280 -38.538  0.00  0.00    -0.051 A 
ATOM     41  C   UNL A   1      44.024 -18.845 -39.387  0.00  0.00    +0.021 A 
ATOM     42  C   UNL A   1      47.289 -20.098 -41.826  0.00  0.00    -0.010 C 
ATOM     43  C   UNL A   1      47.808 -21.506 -41.568  0.00  0.00    -0.047 C 
ATOM     44  C   UNL A   1      46.647 -22.487 -41.592  0.00  0.00    -0.049 C 
ATOM     45  C   UNL A   1      45.647 -22.161 -40.484  0.00  0.00    -0.024 C 
ENDBRANCH  30  32
ENDBRANCH  29  30
ENDBRANCH  28  29
ENDBRANCH  27  28
ENDBRANCH   3  27
TORSDOF 11
ENDMDL
MODEL 3
REMARK VINA RESULT:    -7.933      2.217      4.596
REMARK INTER + INTRA:         -16.390
REMARK INTER:                 -11.317
REMARK INTRA:                  -5.073
REMARK UNBOUND:                -3.355
REMARK  Name = cpd180.pdb
REMARK  13 active torsions:
REMARK  status: ('A' for Active; 'I' for Inactive)
REMARK    1  A    between atoms: C_1  and  C_2
REMARK    2  A    between atoms: C_6  and  N_7
REMARK    3  A    between atoms: N_7  and  C_8
REMARK    4  A    between atoms: C_13  and  C_14
REMARK    5  A    between atoms: N_16  and  C_17
REMARK    6  A    between atoms: C_17  and  C_18
REMARK    7  A    between atoms: C_18  and  C_19
REMARK    8  A    between atoms: N_21  and  C_22
REMARK    9  A    between atoms: C_22  and  C_23
REMARK   10  A    between atoms: C_23  and  C_24
REMARK   11  A    between atoms: C_24  and  N_25
REMARK   12  A    between atoms: N_25  and  C_26
REMARK   13  A    between atoms: C_40  and  C_41
REMARK                            x       y       z     vdW  Elec       q    Type
REMARK                         _______ _______ _______ _____ _____    ______ ____
ROOT
ATOM      1  C   UNL A   1      44.349 -18.338 -33.407  0.00  0.00    +0.215 C 
ATOM      2  O   UNL A   1      45.233 -18.150 -32.578  0.00  0.00    -0.276 OA
ATOM      3  N   UNL A   1      44.454 -19.259 -34.428  0.00  0.00    -0.315 N 
ATOM      4  H   UNL A   1      43.674 -19.411 -35.010  0.00  0.00    +0.000 HD
ENDROOT
BRANCH   1   5
ATOM      5  C   UNL A   1      43.028 -17.604 -33.407  0.00  0.00    +0.039 C 
BRANCH   5   6
ATOM      6  C   UNL A   1      43.159 -16.233 -34.054  0.00  0.00    +0.020 C 
BRANCH   6   9
ATOM      7  C   UNL A   1      43.678 -16.352 -36.462  0.00  0.00    +0.246 C 
ATOM      8  O   UNL A   1      44.879 -16.513 -36.266  0.00  0.00    -0.270 OA
ATOM      9  N   UNL A   1      42.746 -16.248 -35.448  0.00  0.00    -0.311 N 
ATOM     10  H   UNL A   1      41.790 -16.183 -35.672  0.00  0.00    +0.000 HD
BRANCH   7  16
ATOM     11  C   UNL A   1      42.994 -17.356 -38.659  0.00  0.00    +0.044 A 
ATOM     12  C   UNL A   1      42.503 -17.178 -39.962  0.00  0.00    -0.040 A 
ATOM     13  C   UNL A   1      42.176 -15.909 -40.447  0.00  0.00    -0.060 A 
ATOM     14  C   UNL A   1      42.332 -14.789 -39.634  0.00  0.00    -0.061 A 
ATOM     15  C   UNL A   1      42.820 -14.937 -38.336  0.00  0.00    -0.048 A 
ATOM     16  C   UNL A   1      43.159 -16.211 -37.850  0.00  0.00    +0.058 A 
BRANCH  11  17
ATOM     17  N   UNL A   1      43.348 -18.642 -38.193  0.00  0.00    -0.314 N 
ATOM     18  H   UNL A   1      44.144 -18.661 -37.613  0.00  0.00    +0.000 HD
BRANCH  17  24
ATOM     19  C   UNL A   1      40.275 -22.308 -36.712  0.00  0.00    -0.039 C 
ATOM     20  C   UNL A   1      41.239 -21.696 -37.693  0.00  0.00    -0.046 A 
ATOM     21  C   UNL A   1      41.556 -22.415 -38.855  0.00  0.00    -0.058 A 
ATOM     22  C   UNL A   1      42.447 -21.898 -39.787  0.00  0.00    -0.060 A 
ATOM     23  C   UNL A   1      43.040 -20.657 -39.568  0.00  0.00    -0.040 A 
ATOM     24  C   UNL A   1      42.755 -19.907 -38.417  0.00  0.00    +0.035 A 
ATOM     25  C   UNL A   1      41.813 -20.418 -37.485  0.00  0.00    -0.026 A 
ATOM     26  C   UNL A   1      41.471 -19.617 -36.249  0.00  0.00    -0.038 C 
ENDBRANCH  17  24
ENDBRANCH  11  17
ENDBRANCH   7  16
ENDBRANCH   6   9
ENDBRANCH   5   6
ENDBRANCH   1   5
BRANCH   3  27
ATOM     27  C   UNL A   1      45.668 -20.010 -34.679  0.00  0.00    +0.013 C 
BRANCH  27  28
ATOM     28  C   UNL A   1      45.999 -20.151 -36.164  0.00  0.00    -0.022 C 
BRANCH  28  29
ATOM     29  C   UNL A   1      47.025 -19.121 -36.640  0.00  0.00    +0.011 C 
BRANCH  29  30
ATOM     30  N   UNL A   1      47.724 -19.551 -37.867  0.00  0.00    -0.343 N 
ATOM     31  H   UNL A   1      48.570 -20.053 -37.834  0.00  0.00    +0.000 HD
BRANCH  30  32
ATOM     32  C   UNL A   1      47.107 -19.197 -39.095  0.00  0.00    +0.041 A 
ATOM     33  C   UNL A   1      46.703 -20.205 -39.999  0.00  0.00    -0.005 A 
ATOM     34  C   UNL A   1      46.032 -19.809 -41.159  0.00  0.00    +0.047 A 
ATOM     35  N   UNL A   1      45.714 -18.522 -41.430  0.00  0.00    -0.251 NA
ATOM     36  C   UNL A   1      46.114 -17.563 -40.587  0.00  0.00    +0.073 A 
ATOM     37  C   UNL A   1      45.810 -16.246 -40.911  0.00  0.00    -0.036 A 
ATOM     38  C   UNL A   1      46.218 -15.175 -40.116  0.00  0.00    -0.060 A 
ATOM     39  C   UNL A   1      46.963 -15.418 -38.974  0.00  0.00    -0.061 A 
ATOM     40  C   UNL A   1      47.275 -16.733 -38.628  0.00  0.00    -0.051 A 
ATOM     41  C   UNL A   1      46.834 -17.834 -39.407  0.00  0.00    +0.021 A 
ATOM     42  C   UNL A   1      45.552 -20.806 -42.183  0.00  0.00    -0.010 C 
ATOM     43  C   UNL A   1      46.288 -22.136 -42.118  0.00  0.00    -0.047 C 
ATOM     44  C   UNL A   1      46.301 -22.639 -40.684  0.00  0.00    -0.049 C 
ATOM     45  C   UNL A   1      47.049 -21.662 -39.779  0.00  0.00    -0.024 C 
ENDBRANCH  30  32
ENDBRANCH  29  30
ENDBRANCH  28  29
ENDBRANCH  27  28
ENDBRANCH   3  27
TORSDOF 11
ENDMDL
MODEL 4
REMARK VINA RESULT:    -7.917      1.768      8.021
REMARK INTER + INTRA:         -16.363
REMARK INTER:                 -13.258
REMARK INTRA:                  -3.105
REMARK UNBOUND:                -3.355
REMARK  Name = cpd180.pdb
REMARK  13 active torsions:
REMARK  status: ('A' for Active; 'I' for Inactive)
REMARK    1  A    between atoms: C_1  and  C_2
REMARK    2  A    between atoms: C_6  and  N_7
REMARK    3  A    between atoms: N_7  and  C_8
REMARK    4  A    between atoms: C_13  and  C_14
REMARK    5  A    between atoms: N_16  and  C_17
REMARK    6  A    between atoms: C_17  and  C_18
REMARK    7  A    between atoms: C_18  and  C_19
REMARK    8  A    between atoms: N_21  and  C_22
REMARK    9  A    between atoms: C_22  and  C_23
REMARK   10  A    between atoms: C_23  and  C_24
REMARK   11  A    between atoms: C_24  and  N_25
REMARK   12  A    between atoms: N_25  and  C_26
REMARK   13  A    between atoms: C_40  and  C_41
REMARK                            x       y       z     vdW  Elec       q    Type
REMARK                         _______ _______ _______ _____ _____    ______ ____
ROOT
ATOM      1  C   UNL A   1      42.901 -20.034 -34.151  0.00  0.00    +0.215 C 
ATOM      2  O   UNL A   1      42.270 -21.015 -33.777  0.00  0.00    -0.276 OA
ATOM      3  N   UNL A   1      42.579 -18.743 -33.786  0.00  0.00    -0.315 N 
ATOM      4  H   UNL A   1      43.177 -18.010 -34.062  0.00  0.00    +0.000 HD
ENDROOT
BRANCH   1   5
ATOM      5  C   UNL A   1      44.121 -20.108 -35.042  0.00  0.00    +0.039 C 
BRANCH   5   6
ATOM      6  C   UNL A   1      45.000 -18.877 -34.877  0.00  0.00    +0.020 C 
BRANCH   6   9
ATOM      7  C   UNL A   1      46.488 -18.623 -36.827  0.00  0.00    +0.246 C 
ATOM      8  O   UNL A   1      47.253 -19.504 -36.444  0.00  0.00    -0.270 OA
ATOM      9  N   UNL A   1      45.334 -18.271 -36.155  0.00  0.00    -0.311 N 
ATOM     10  H   UNL A   1      44.729 -17.601 -36.547  0.00  0.00    +0.000 HD
BRANCH   7  16
ATOM     11  C   UNL A   1      46.672 -18.436 -39.323  0.00  0.00    +0.044 A 
ATOM     12  C   UNL A   1      46.981 -17.659 -40.452  0.00  0.00    -0.040 A 
ATOM     13  C   UNL A   1      47.396 -16.331 -40.326  0.00  0.00    -0.060 A 
ATOM     14  C   UNL A   1      47.509 -15.750 -39.066  0.00  0.00    -0.061 A 
ATOM     15  C   UNL A   1      47.211 -16.499 -37.928  0.00  0.00    -0.048 A 
ATOM     16  C   UNL A   1      46.803 -17.838 -38.052  0.00  0.00    +0.058 A 
BRANCH  11  17
ATOM     17  N   UNL A   1      46.282 -19.786 -39.464  0.00  0.00    -0.314 N 
ATOM     18  H   UNL A   1      46.228 -20.286 -38.617  0.00  0.00    +0.000 HD
BRANCH  17  24
ATOM     19  C   UNL A   1      47.129 -23.720 -42.444  0.00  0.00    -0.039 C 
ATOM     20  C   UNL A   1      46.367 -22.478 -42.066  0.00  0.00    -0.046 A 
ATOM     21  C   UNL A   1      45.311 -22.066 -42.891  0.00  0.00    -0.058 A 
ATOM     22  C   UNL A   1      44.581 -20.922 -42.590  0.00  0.00    -0.060 A 
ATOM     23  C   UNL A   1      44.903 -20.170 -41.464  0.00  0.00    -0.040 A 
ATOM     24  C   UNL A   1      45.955 -20.543 -40.614  0.00  0.00    +0.035 A 
ATOM     25  C   UNL A   1      46.673 -21.734 -40.900  0.00  0.00    -0.026 A 
ATOM     26  C   UNL A   1      47.795 -22.171 -39.986  0.00  0.00    -0.038 C 
ENDBRANCH  17  24
ENDBRANCH  11  17
ENDBRANCH   7  16
ENDBRANCH   6   9
ENDBRANCH   5   6
ENDBRANCH   1   5
BRANCH   3  27
ATOM     27  C   UNL A   1      41.395 -18.424 -33.013  0.00  0.00    +0.013 C 
BRANCH  27  28
ATOM     28  C   UNL A   1      40.349 -17.639 -33.803  0.00  0.00    -0.022 C 
BRANCH  28  29
ATOM     29  C   UNL A   1      40.515 -17.790 -35.316  0.00  0.00    +0.011 C 
BRANCH  29  30
ATOM     30  N   UNL A   1      39.455 -18.623 -35.916  0.00  0.00    -0.343 N 
ATOM     31  H   UNL A   1      38.591 -18.243 -36.196  0.00  0.00    +0.000 HD
BRANCH  30  32
ATOM     32  C   UNL A   1      39.752 -20.003 -36.065  0.00  0.00    +0.041 A 
ATOM     33  C   UNL A   1      39.086 -20.960 -35.266  0.00  0.00    -0.005 A 
ATOM     34  C   UNL A   1      39.359 -22.310 -35.505  0.00  0.00    +0.047 A 
ATOM     35  N   UNL A   1      40.185 -22.739 -36.486  0.00  0.00    -0.251 NA
ATOM     36  C   UNL A   1      40.834 -21.835 -37.230  0.00  0.00    +0.073 A 
ATOM     37  C   UNL A   1      41.710 -22.302 -38.202  0.00  0.00    -0.036 A 
ATOM     38  C   UNL A   1      42.461 -21.439 -39.000  0.00  0.00    -0.060 A 
ATOM     39  C   UNL A   1      42.349 -20.071 -38.816  0.00  0.00    -0.061 A 
ATOM     40  C   UNL A   1      41.473 -19.580 -37.848  0.00  0.00    -0.051 A 
ATOM     41  C   UNL A   1      40.676 -20.446 -37.056  0.00  0.00    +0.021 A 
ATOM     42  C   UNL A   1      38.695 -23.409 -34.715  0.00  0.00    -0.010 C 
ATOM     43  C   UNL A   1      38.159 -22.942 -33.369  0.00  0.00    -0.047 C 
ATOM     44  C   UNL A   1      37.319 -21.691 -33.565  0.00  0.00    -0.049 C 
ATOM     45  C   UNL A   1      38.171 -20.556 -34.132  0.00  0.00    -0.024 C 
ENDBRANCH  30  32
ENDBRANCH  29  30
ENDBRANCH  28  29
ENDBRANCH  27  28
ENDBRANCH   3  27
TORSDOF 11
ENDMDL
MODEL 5
REMARK VINA RESULT:    -7.890      1.985      7.119
REMARK INTER + INTRA:         -16.319
REMARK INTER:                 -10.771
REMARK INTRA:                  -5.547
REMARK UNBOUND:                -3.355
REMARK  Name = cpd180.pdb
REMARK  13 active torsions:
REMARK  status: ('A' for Active; 'I' for Inactive)
REMARK    1  A    between atoms: C_1  and  C_2
REMARK    2  A    between atoms: C_6  and  N_7
REMARK    3  A    between atoms: N_7  and  C_8
REMARK    4  A    between atoms: C_13  and  C_14
REMARK    5  A    between atoms: N_16  and  C_17
REMARK    6  A    between atoms: C_17  and  C_18
REMARK    7  A    between atoms: C_18  and  C_19
REMARK    8  A    between atoms: N_21  and  C_22
REMARK    9  A    between atoms: C_22  and  C_23
REMARK   10  A    between atoms: C_23  and  C_24
REMARK   11  A    between atoms: C_24  and  N_25
REMARK   12  A    between atoms: N_25  and  C_26
REMARK   13  A    between atoms: C_40  and  C_41
REMARK                            x       y       z     vdW  Elec       q    Type
REMARK                         _______ _______ _______ _____ _____    ______ ____
ROOT
ATOM      1  C   UNL A   1      45.910 -19.189 -34.881  0.00  0.00    +0.215 C 
ATOM      2  O   UNL A   1      45.066 -19.943 -35.351  0.00  0.00    -0.276 OA
ATOM      3  N   UNL A   1      45.598 -17.998 -34.259  0.00  0.00    -0.315 N 
ATOM      4  H   UNL A   1      46.322 -17.481 -33.837  0.00  0.00    +0.000 HD
ENDROOT
BRANCH   1   5
ATOM      5  C   UNL A   1      47.396 -19.471 -34.904  0.00  0.00    +0.039 C 
BRANCH   5   6
ATOM      6  C   UNL A   1      48.038 -18.939 -36.177  0.00  0.00    +0.020 C 
BRANCH   6   9
ATOM      7  C   UNL A   1      46.801 -19.173 -38.297  0.00  0.00    +0.246 C 
ATOM      8  O   UNL A   1      46.393 -18.015 -38.267  0.00  0.00    -0.270 OA
ATOM      9  N   UNL A   1      47.647 -19.708 -37.346  0.00  0.00    -0.311 N 
ATOM     10  H   UNL A   1      47.989 -20.624 -37.462  0.00  0.00    +0.000 HD
BRANCH   7  16
ATOM     11  C   UNL A   1      45.028 -20.585 -39.376  0.00  0.00    +0.044 A 
ATOM     12  C   UNL A   1      44.647 -21.455 -40.410  0.00  0.00    -0.040 A 
ATOM     13  C   UNL A   1      45.545 -21.821 -41.417  0.00  0.00    -0.060 A 
ATOM     14  C   UNL A   1      46.844 -21.321 -41.410  0.00  0.00    -0.061 A 
ATOM     15  C   UNL A   1      47.250 -20.458 -40.394  0.00  0.00    -0.048 A 
ATOM     16  C   UNL A   1      46.352 -20.096 -39.375  0.00  0.00    +0.058 A 
BRANCH  11  17
ATOM     17  N   UNL A   1      44.119 -20.247 -38.348  0.00  0.00    -0.314 N 
ATOM     18  H   UNL A   1      44.520 -19.759 -37.593  0.00  0.00    +0.000 HD
BRANCH  17  24
ATOM     19  C   UNL A   1      39.382 -18.860 -39.192  0.00  0.00    -0.039 C 
ATOM     20  C   UNL A   1      40.412 -19.813 -38.645  0.00  0.00    -0.046 A 
ATOM     21  C   UNL A   1      39.968 -20.967 -37.984  0.00  0.00    -0.058 A 
ATOM     22  C   UNL A   1      40.878 -21.874 -37.454  0.00  0.00    -0.060 A 
ATOM     23  C   UNL A   1      42.245 -21.635 -37.571  0.00  0.00    -0.040 A 
ATOM     24  C   UNL A   1      42.732 -20.491 -38.220  0.00  0.00    +0.035 A 
ATOM     25  C   UNL A   1      41.802 -19.586 -38.797  0.00  0.00    -0.026 A 
ATOM     26  C   UNL A   1      42.302 -18.358 -39.523  0.00  0.00    -0.038 C 
ENDBRANCH  17  24
ENDBRANCH  11  17
ENDBRANCH   7  16
ENDBRANCH   6   9
ENDBRANCH   5   6
ENDBRANCH   1   5
BRANCH   3  27
ATOM     27  C   UNL A   1      44.245 -17.480 -34.203  0.00  0.00    +0.013 C 
BRANCH  27  28
ATOM     28  C   UNL A   1      43.566 -17.703 -32.852  0.00  0.00    -0.022 C 
BRANCH  28  29
ATOM     29  C   UNL A   1      42.710 -18.971 -32.824  0.00  0.00    +0.011 C 
BRANCH  29  30
ATOM     30  N   UNL A   1      42.410 -19.475 -34.178  0.00  0.00    -0.343 N 
ATOM     31  H   UNL A   1      43.123 -19.697 -34.821  0.00  0.00    +0.000 HD
BRANCH  30  32
ATOM     32  C   UNL A   1      41.036 -19.621 -34.502  0.00  0.00    +0.041 A 
ATOM     33  C   UNL A   1      40.346 -20.801 -34.142  0.00  0.00    -0.005 A 
ATOM     34  C   UNL A   1      38.977 -20.863 -34.415  0.00  0.00    +0.047 A 
ATOM     35  N   UNL A   1      38.280 -19.839 -34.959  0.00  0.00    -0.251 NA
ATOM     36  C   UNL A   1      38.934 -18.729 -35.321  0.00  0.00    +0.073 A 
ATOM     37  C   UNL A   1      38.202 -17.709 -35.916  0.00  0.00    -0.036 A 
ATOM     38  C   UNL A   1      38.800 -16.530 -36.363  0.00  0.00    -0.060 A 
ATOM     39  C   UNL A   1      40.169 -16.368 -36.228  0.00  0.00    -0.061 A 
ATOM     40  C   UNL A   1      40.922 -17.378 -35.630  0.00  0.00    -0.051 A 
ATOM     41  C   UNL A   1      40.321 -18.564 -35.137  0.00  0.00    +0.021 A 
ATOM     42  C   UNL A   1      38.147 -22.072 -34.063  0.00  0.00    -0.010 C 
ATOM     43  C   UNL A   1      38.974 -23.340 -33.897  0.00  0.00    -0.047 C 
ATOM     44  C   UNL A   1      40.142 -23.065 -32.965  0.00  0.00    -0.049 C 
ATOM     45  C   UNL A   1      41.062 -21.998 -33.557  0.00  0.00    -0.024 C 
ENDBRANCH  30  32
ENDBRANCH  29  30
ENDBRANCH  28  29
ENDBRANCH  27  28
ENDBRANCH   3  27
TORSDOF 11
ENDMDL
MODEL 6
REMARK VINA RESULT:    -7.879      1.696      7.932
REMARK INTER + INTRA:         -16.301
REMARK INTER:                 -13.217
REMARK INTRA:                  -3.084
REMARK UNBOUND:                -3.355
REMARK  Name = cpd180.pdb
REMARK  13 active torsions:
REMARK  status: ('A' for Active; 'I' for Inactive)
REMARK    1  A    between atoms: C_1  and  C_2
REMARK    2  A    between atoms: C_6  and  N_7
REMARK    3  A    between atoms: N_7  and  C_8
REMARK    4  A    between atoms: C_13  and  C_14
REMARK    5  A    between atoms: N_16  and  C_17
REMARK    6  A    between atoms: C_17  and  C_18
REMARK    7  A    between atoms: C_18  and  C_19
REMARK    8  A    between atoms: N_21  and  C_22
REMARK    9  A    between atoms: C_22  and  C_23
REMARK   10  A    between atoms: C_23  and  C_24
REMARK   11  A    between atoms: C_24  and  N_25
REMARK   12  A    between atoms: N_25  and  C_26
REMARK   13  A    between atoms: C_40  and  C_41
REMARK                            x       y       z     vdW  Elec       q    Type
REMARK                         _______ _______ _______ _____ _____    ______ ____
ROOT
ATOM      1  C   UNL A   1      45.956 -19.087 -34.671  0.00  0.00    +0.215 C 
ATOM      2  O   UNL A   1      46.335 -18.107 -34.039  0.00  0.00    -0.276 OA
ATOM      3  N   UNL A   1      44.654 -19.542 -34.651  0.00  0.00    -0.315 N 
ATOM      4  H   UNL A   1      44.404 -20.287 -35.244  0.00  0.00    +0.000 HD
ENDROOT
BRANCH   1   5
ATOM      5  C   UNL A   1      46.855 -19.909 -35.566  0.00  0.00    +0.039 C 
BRANCH   5   6
ATOM      6  C   UNL A   1      47.465 -19.056 -36.668  0.00  0.00    +0.020 C 
BRANCH   6   9
ATOM      7  C   UNL A   1      46.190 -20.083 -38.512  0.00  0.00    +0.246 C 
ATOM      8  O   UNL A   1      45.105 -19.821 -37.999  0.00  0.00    -0.270 OA
ATOM      9  N   UNL A   1      47.402 -19.713 -37.963  0.00  0.00    -0.311 N 
ATOM     10  H   UNL A   1      48.234 -19.898 -38.455  0.00  0.00    +0.000 HD
BRANCH   7  16
ATOM     11  C   UNL A   1      45.731 -20.339 -40.966  0.00  0.00    +0.044 A 
ATOM     12  C   UNL A   1      45.807 -21.122 -42.129  0.00  0.00    -0.040 A 
ATOM     13  C   UNL A   1      46.388 -22.393 -42.110  0.00  0.00    -0.060 A 
ATOM     14  C   UNL A   1      46.908 -22.906 -40.925  0.00  0.00    -0.061 A 
ATOM     15  C   UNL A   1      46.844 -22.151 -39.755  0.00  0.00    -0.048 A 
ATOM     16  C   UNL A   1      46.250 -20.877 -39.770  0.00  0.00    +0.058 A 
BRANCH  11  17
ATOM     17  N   UNL A   1      45.114 -19.069 -40.994  0.00  0.00    -0.314 N 
ATOM     18  H   UNL A   1      44.129 -19.093 -40.999  0.00  0.00    +0.000 HD
BRANCH  17  24
ATOM     19  C   UNL A   1      44.503 -14.099 -41.037  0.00  0.00    -0.039 C 
ATOM     20  C   UNL A   1      45.366 -15.333 -41.025  0.00  0.00    -0.046 A 
ATOM     21  C   UNL A   1      46.759 -15.173 -41.044  0.00  0.00    -0.058 A 
ATOM     22  C   UNL A   1      47.599 -16.280 -41.042  0.00  0.00    -0.060 A 
ATOM     23  C   UNL A   1      47.057 -17.563 -41.029  0.00  0.00    -0.040 A 
ATOM     24  C   UNL A   1      45.669 -17.768 -41.015  0.00  0.00    +0.035 A 
ATOM     25  C   UNL A   1      44.813 -16.636 -40.975  0.00  0.00    -0.026 A 
ATOM     26  C   UNL A   1      43.314 -16.831 -40.935  0.00  0.00    -0.038 C 
ENDBRANCH  17  24
ENDBRANCH  11  17
ENDBRANCH   7  16
ENDBRANCH   6   9
ENDBRANCH   5   6
ENDBRANCH   1   5
BRANCH   3  27
ATOM     27  C   UNL A   1      43.640 -18.964 -33.791  0.00  0.00    +0.013 C 
BRANCH  27  28
ATOM     28  C   UNL A   1      42.814 -17.875 -34.474  0.00  0.00    -0.022 C 
BRANCH  28  29
ATOM     29  C   UNL A   1      42.517 -18.192 -35.941  0.00  0.00    +0.011 C 
BRANCH  29  30
ATOM     30  N   UNL A   1      41.135 -18.669 -36.143  0.00  0.00    -0.343 N 
ATOM     31  H   UNL A   1      40.372 -18.048 -36.185  0.00  0.00    +0.000 HD
BRANCH  30  32
ATOM     32  C   UNL A   1      40.970 -20.072 -36.275  0.00  0.00    +0.041 A 
ATOM     33  C   UNL A   1      41.256 -20.706 -37.505  0.00  0.00    -0.005 A 
ATOM     34  C   UNL A   1      41.151 -22.099 -37.559  0.00  0.00    +0.047 A 
ATOM     35  N   UNL A   1      40.836 -22.863 -36.488  0.00  0.00    -0.251 NA
ATOM     36  C   UNL A   1      40.543 -22.264 -35.328  0.00  0.00    +0.073 A 
ATOM     37  C   UNL A   1      40.182 -23.070 -34.255  0.00  0.00    -0.036 A 
ATOM     38  C   UNL A   1      39.820 -22.538 -33.017  0.00  0.00    -0.060 A 
ATOM     39  C   UNL A   1      39.803 -21.163 -32.845  0.00  0.00    -0.061 A 
ATOM     40  C   UNL A   1      40.166 -20.337 -33.908  0.00  0.00    -0.051 A 
ATOM     41  C   UNL A   1      40.572 -20.866 -35.160  0.00  0.00    +0.021 A 
ATOM     42  C   UNL A   1      41.443 -22.872 -38.820  0.00  0.00    -0.010 C 
ATOM     43  C   UNL A   1      41.338 -22.025 -40.082  0.00  0.00    -0.047 C 
ATOM     44  C   UNL A   1      42.145 -20.750 -39.905  0.00  0.00    -0.049 C 
ATOM     45  C   UNL A   1      41.587 -19.917 -38.752  0.00  0.00    -0.024 C 
ENDBRANCH  30  32
ENDBRANCH  29  30
ENDBRANCH  28  29
ENDBRANCH  27  28
ENDBRANCH   3  27
TORSDOF 11
ENDMDL
MODEL 7
REMARK VINA RESULT:    -7.867      1.587      7.634
REMARK INTER + INTRA:         -16.281
REMARK INTER:                 -12.277
REMARK INTRA:                  -4.004
REMARK UNBOUND:                -3.355
REMARK  Name = cpd180.pdb
REMARK  13 active torsions:
REMARK  status: ('A' for Active; 'I' for Inactive)
REMARK    1  A    between atoms: C_1  and  C_2
REMARK    2  A    between atoms: C_6  and  N_7
REMARK    3  A    between atoms: N_7  and  C_8
REMARK    4  A    between atoms: C_13  and  C_14
REMARK    5  A    between atoms: N_16  and  C_17
REMARK    6  A    between atoms: C_17  and  C_18
REMARK    7  A    between atoms: C_18  and  C_19
REMARK    8  A    between atoms: N_21  and  C_22
REMARK    9  A    between atoms: C_22  and  C_23
REMARK   10  A    between atoms: C_23  and  C_24
REMARK   11  A    between atoms: C_24  and  N_25
REMARK   12  A    between atoms: N_25  and  C_26
REMARK   13  A    between atoms: C_40  and  C_41
REMARK                            x       y       z     vdW  Elec       q    Type
REMARK                         _______ _______ _______ _____ _____    ______ ____
ROOT
ATOM      1  C   UNL A   1      45.566 -19.263 -34.305  0.00  0.00    +0.215 C 
ATOM      2  O   UNL A   1      45.366 -20.461 -34.469  0.00  0.00    -0.276 OA
ATOM      3  N   UNL A   1      44.669 -18.426 -33.674  0.00  0.00    -0.315 N 
ATOM      4  H   UNL A   1      44.930 -17.491 -33.509  0.00  0.00    +0.000 HD
ENDROOT
BRANCH   1   5
ATOM      5  C   UNL A   1      46.823 -18.552 -34.752  0.00  0.00    +0.039 C 
BRANCH   5   6
ATOM      6  C   UNL A   1      47.119 -18.826 -36.219  0.00  0.00    +0.020 C 
BRANCH   6   9
ATOM      7  C   UNL A   1      46.185 -17.562 -38.119  0.00  0.00    +0.246 C 
ATOM      8  O   UNL A   1      47.276 -17.096 -38.435  0.00  0.00    -0.270 OA
ATOM      9  N   UNL A   1      46.008 -18.452 -37.078  0.00  0.00    -0.311 N 
ATOM     10  H   UNL A   1      45.118 -18.839 -36.916  0.00  0.00    +0.000 HD
BRANCH   7  16
ATOM     11  C   UNL A   1      44.740 -17.558 -40.172  0.00  0.00    +0.044 A 
ATOM     12  C   UNL A   1      43.566 -17.136 -40.815  0.00  0.00    -0.040 A 
ATOM     13  C   UNL A   1      42.629 -16.332 -40.160  0.00  0.00    -0.060 A 
ATOM     14  C   UNL A   1      42.846 -15.937 -38.843  0.00  0.00    -0.061 A 
ATOM     15  C   UNL A   1      44.005 -16.340 -38.180  0.00  0.00    -0.048 A 
ATOM     16  C   UNL A   1      44.953 -17.139 -38.841  0.00  0.00    +0.058 A 
BRANCH  11  17
ATOM     17  N   UNL A   1      45.693 -18.345 -40.856  0.00  0.00    -0.314 N 
ATOM     18  H   UNL A   1      46.593 -17.949 -40.902  0.00  0.00    +0.000 HD
BRANCH  17  24
ATOM     19  C   UNL A   1      46.925 -23.192 -41.117  0.00  0.00    -0.039 C 
ATOM     20  C   UNL A   1      46.172 -21.983 -41.605  0.00  0.00    -0.046 A 
ATOM     21  C   UNL A   1      45.338 -22.124 -42.724  0.00  0.00    -0.058 A 
ATOM     22  C   UNL A   1      44.627 -21.037 -43.218  0.00  0.00    -0.060 A 
ATOM     23  C   UNL A   1      44.747 -19.792 -42.605  0.00  0.00    -0.040 A 
ATOM     24  C   UNL A   1      45.574 -19.606 -41.487  0.00  0.00    +0.035 A 
ATOM     25  C   UNL A   1      46.267 -20.726 -40.958  0.00  0.00    -0.026 A 
ATOM     26  C   UNL A   1      47.145 -20.557 -39.740  0.00  0.00    -0.038 C 
ENDBRANCH  17  24
ENDBRANCH  11  17
ENDBRANCH   7  16
ENDBRANCH   6   9
ENDBRANCH   5   6
ENDBRANCH   1   5
BRANCH   3  27
ATOM     27  C   UNL A   1      43.358 -18.870 -33.245  0.00  0.00    +0.013 C 
BRANCH  27  28
ATOM     28  C   UNL A   1      42.212 -18.105 -33.907  0.00  0.00    -0.022 C 
BRANCH  28  29
ATOM     29  C   UNL A   1      42.218 -18.235 -35.431  0.00  0.00    +0.011 C 
BRANCH  29  30
ATOM     30  N   UNL A   1      40.905 -18.647 -35.965  0.00  0.00    -0.343 N 
ATOM     31  H   UNL A   1      40.179 -17.999 -36.116  0.00  0.00    +0.000 HD
BRANCH  30  32
ATOM     32  C   UNL A   1      40.749 -20.029 -36.246  0.00  0.00    +0.041 A 
ATOM     33  C   UNL A   1      41.249 -20.566 -37.454  0.00  0.00    -0.005 A 
ATOM     34  C   UNL A   1      41.137 -21.945 -37.649  0.00  0.00    +0.047 A 
ATOM     35  N   UNL A   1      40.621 -22.787 -36.723  0.00  0.00    -0.251 NA
ATOM     36  C   UNL A   1      40.127 -22.279 -35.588  0.00  0.00    +0.073 A 
ATOM     37  C   UNL A   1      39.565 -23.162 -34.673  0.00  0.00    -0.036 A 
ATOM     38  C   UNL A   1      38.989 -22.725 -33.480  0.00  0.00    -0.060 A 
ATOM     39  C   UNL A   1      38.959 -21.370 -33.194  0.00  0.00    -0.061 A 
ATOM     40  C   UNL A   1      39.521 -20.467 -34.097  0.00  0.00    -0.051 A 
ATOM     41  C   UNL A   1      40.143 -20.902 -35.296  0.00  0.00    +0.021 A 
ATOM     42  C   UNL A   1      41.646 -22.618 -38.898  0.00  0.00    -0.010 C 
ATOM     43  C   UNL A   1      41.786 -21.667 -40.078  0.00  0.00    -0.047 C 
ATOM     44  C   UNL A   1      42.562 -20.434 -39.647  0.00  0.00    -0.049 C 
ATOM     45  C   UNL A   1      41.813 -19.685 -38.547  0.00  0.00    -0.024 C 
ENDBRANCH  30  32
ENDBRANCH  29  30
ENDBRANCH  28  29
ENDBRANCH  27  28
ENDBRANCH   3  27
TORSDOF 11
ENDMDL
MODEL 8
REMARK VINA RESULT:    -7.670      1.958      7.572
REMARK INTER + INTRA:         -15.957
REMARK INTER:                 -12.374
REMARK INTRA:                  -3.583
REMARK UNBOUND:                -3.355
REMARK  Name = cpd180.pdb
REMARK  13 active torsions:
REMARK  status: ('A' for Active; 'I' for Inactive)
REMARK    1  A    between atoms: C_1  and  C_2
REMARK    2  A    between atoms: C_6  and  N_7
REMARK    3  A    between atoms: N_7  and  C_8
REMARK    4  A    between atoms: C_13  and  C_14
REMARK    5  A    between atoms: N_16  and  C_17
REMARK    6  A    between atoms: C_17  and  C_18
REMARK    7  A    between atoms: C_18  and  C_19
REMARK    8  A    between atoms: N_21  and  C_22
REMARK    9  A    between atoms: C_22  and  C_23
REMARK   10  A    between atoms: C_23  and  C_24
REMARK   11  A    between atoms: C_24  and  N_25
REMARK   12  A    between atoms: N_25  and  C_26
REMARK   13  A    between atoms: C_40  and  C_41
REMARK                            x       y       z     vdW  Elec       q    Type
REMARK                         _______ _______ _______ _____ _____    ______ ____
ROOT
ATOM      1  C   UNL A   1      44.963 -18.495 -34.069  0.00  0.00    +0.215 C 
ATOM      2  O   UNL A   1      45.054 -18.608 -32.852  0.00  0.00    -0.276 OA
ATOM      3  N   UNL A   1      43.847 -17.987 -34.700  0.00  0.00    -0.315 N 
ATOM      4  H   UNL A   1      43.874 -17.854 -35.675  0.00  0.00    +0.000 HD
ENDROOT
BRANCH   1   5
ATOM      5  C   UNL A   1      46.062 -18.879 -35.033  0.00  0.00    +0.039 C 
BRANCH   5   6
ATOM      6  C   UNL A   1      47.242 -17.923 -34.933  0.00  0.00    +0.020 C 
BRANCH   6   9
ATOM      7  C   UNL A   1      46.728 -16.446 -36.840  0.00  0.00    +0.246 C 
ATOM      8  O   UNL A   1      45.692 -16.031 -36.328  0.00  0.00    -0.270 OA
ATOM      9  N   UNL A   1      47.580 -17.340 -36.221  0.00  0.00    -0.311 N 
ATOM     10  H   UNL A   1      48.426 -17.585 -36.658  0.00  0.00    +0.000 HD
BRANCH   7  16
ATOM     11  C   UNL A   1      46.520 -16.664 -39.332  0.00  0.00    +0.044 A 
ATOM     12  C   UNL A   1      46.903 -16.236 -40.613  0.00  0.00    -0.040 A 
ATOM     13  C   UNL A   1      47.826 -15.201 -40.786  0.00  0.00    -0.060 A 
ATOM     14  C   UNL A   1      48.385 -14.571 -39.677  0.00  0.00    -0.061 A 
ATOM     15  C   UNL A   1      48.024 -14.977 -38.393  0.00  0.00    -0.048 A 
ATOM     16  C   UNL A   1      47.103 -16.025 -38.218  0.00  0.00    +0.058 A 
BRANCH  11  17
ATOM     17  N   UNL A   1      45.607 -17.731 -39.173  0.00  0.00    -0.314 N 
ATOM     18  H   UNL A   1      44.736 -17.471 -38.797  0.00  0.00    +0.000 HD
BRANCH  17  24
ATOM     19  C   UNL A   1      44.666 -21.632 -42.168  0.00  0.00    -0.039 C 
ATOM     20  C   UNL A   1      45.279 -21.018 -40.938  0.00  0.00    -0.046 A 
ATOM     21  C   UNL A   1      45.986 -21.850 -40.058  0.00  0.00    -0.058 A 
ATOM     22  C   UNL A   1      46.564 -21.332 -38.905  0.00  0.00    -0.060 A 
ATOM     23  C   UNL A   1      46.436 -19.977 -38.612  0.00  0.00    -0.040 A 
ATOM     24  C   UNL A   1      45.734 -19.110 -39.462  0.00  0.00    +0.035 A 
ATOM     25  C   UNL A   1      45.179 -19.632 -40.660  0.00  0.00    -0.026 A 
ATOM     26  C   UNL A   1      44.438 -18.714 -41.605  0.00  0.00    -0.038 C 
ENDBRANCH  17  24
ENDBRANCH  11  17
ENDBRANCH   7  16
ENDBRANCH   6   9
ENDBRANCH   5   6
ENDBRANCH   1   5
BRANCH   3  27
ATOM     27  C   UNL A   1      42.636 -17.641 -33.983  0.00  0.00    +0.013 C 
BRANCH  27  28
ATOM     28  C   UNL A   1      41.553 -17.037 -34.877  0.00  0.00    -0.022 C 
BRANCH  28  29
ATOM     29  C   UNL A   1      41.415 -17.769 -36.213  0.00  0.00    +0.011 C 
BRANCH  29  30
ATOM     30  N   UNL A   1      40.255 -18.680 -36.237  0.00  0.00    -0.343 N 
ATOM     31  H   UNL A   1      39.329 -18.343 -36.237  0.00  0.00    +0.000 HD
BRANCH  30  32
ATOM     32  C   UNL A   1      40.549 -20.068 -36.260  0.00  0.00    +0.041 A 
ATOM     33  C   UNL A   1      40.344 -20.853 -35.103  0.00  0.00    -0.005 A 
ATOM     34  C   UNL A   1      40.576 -22.228 -35.200  0.00  0.00    +0.047 A 
ATOM     35  N   UNL A   1      40.937 -22.841 -36.350  0.00  0.00    -0.251 NA
ATOM     36  C   UNL A   1      41.153 -22.098 -37.442  0.00  0.00    +0.073 A 
ATOM     37  C   UNL A   1      41.564 -22.748 -38.599  0.00  0.00    -0.036 A 
ATOM     38  C   UNL A   1      41.852 -22.056 -39.776  0.00  0.00    -0.060 A 
ATOM     39  C   UNL A   1      41.741 -20.676 -39.799  0.00  0.00    -0.061 A 
ATOM     40  C   UNL A   1      41.326 -20.004 -38.649  0.00  0.00    -0.051 A 
ATOM     41  C   UNL A   1      40.994 -20.699 -37.458  0.00  0.00    +0.021 A 
ATOM     42  C   UNL A   1      40.379 -23.155 -34.027  0.00  0.00    -0.010 C 
ATOM     43  C   UNL A   1      40.432 -22.442 -32.683  0.00  0.00    -0.047 C 
ATOM     44  C   UNL A   1      39.510 -21.234 -32.713  0.00  0.00    -0.049 C 
ATOM     45  C   UNL A   1      39.969 -20.235 -33.774  0.00  0.00    -0.024 C 
ENDBRANCH  30  32
ENDBRANCH  29  30
ENDBRANCH  28  29
ENDBRANCH  27  28
ENDBRANCH   3  27
TORSDOF 11
ENDMDL
MODEL 9
REMARK VINA RESULT:    -7.660      2.002      6.679
REMARK INTER + INTRA:         -15.942
REMARK INTER:                 -10.148
REMARK INTRA:                  -5.794
REMARK UNBOUND:                -3.355
REMARK  Name = cpd180.pdb
REMARK  13 active torsions:
REMARK  status: ('A' for Active; 'I' for Inactive)
REMARK    1  A    between atoms: C_1  and  C_2
REMARK    2  A    between atoms: C_6  and  N_7
REMARK    3  A    between atoms: N_7  and  C_8
REMARK    4  A    between atoms: C_13  and  C_14
REMARK    5  A    between atoms: N_16  and  C_17
REMARK    6  A    between atoms: C_17  and  C_18
REMARK    7  A    between atoms: C_18  and  C_19
REMARK    8  A    between atoms: N_21  and  C_22
REMARK    9  A    between atoms: C_22  and  C_23
REMARK   10  A    between atoms: C_23  and  C_24
REMARK   11  A    between atoms: C_24  and  N_25
REMARK   12  A    between atoms: N_25  and  C_26
REMARK   13  A    between atoms: C_40  and  C_41
REMARK                            x       y       z     vdW  Elec       q    Type
REMARK                         _______ _______ _______ _____ _____    ______ ____
ROOT
ATOM      1  C   UNL A   1      39.047 -20.549 -33.958  0.00  0.00    +0.215 C 
ATOM      2  O   UNL A   1      39.062 -21.447 -33.124  0.00  0.00    -0.276 OA
ATOM      3  N   UNL A   1      39.362 -20.746 -35.287  0.00  0.00    -0.315 N 
ATOM      4  H   UNL A   1      39.253 -19.996 -35.915  0.00  0.00    +0.000 HD
ENDROOT
BRANCH   1   5
ATOM      5  C   UNL A   1      38.666 -19.119 -33.648  0.00  0.00    +0.039 C 
BRANCH   5   6
ATOM      6  C   UNL A   1      39.253 -18.158 -34.672  0.00  0.00    +0.020 C 
BRANCH   6   9
ATOM      7  C   UNL A   1      41.686 -17.971 -35.025  0.00  0.00    +0.246 C 
ATOM      8  O   UNL A   1      41.648 -18.579 -36.091  0.00  0.00    -0.270 OA
ATOM      9  N   UNL A   1      40.564 -17.675 -34.275  0.00  0.00    -0.311 N 
ATOM     10  H   UNL A   1      40.655 -17.129 -33.462  0.00  0.00    +0.000 HD
BRANCH   7  16
ATOM     11  C   UNL A   1      43.976 -16.978 -35.285  0.00  0.00    +0.044 A 
ATOM     12  C   UNL A   1      45.195 -16.596 -34.702  0.00  0.00    -0.040 A 
ATOM     13  C   UNL A   1      45.430 -16.765 -33.335  0.00  0.00    -0.060 A 
ATOM     14  C   UNL A   1      44.446 -17.320 -32.521  0.00  0.00    -0.061 A 
ATOM     15  C   UNL A   1      43.227 -17.711 -33.074  0.00  0.00    -0.048 A 
ATOM     16  C   UNL A   1      42.993 -17.550 -34.450  0.00  0.00    +0.058 A 
BRANCH  11  17
ATOM     17  N   UNL A   1      43.765 -16.828 -36.674  0.00  0.00    -0.314 N 
ATOM     18  H   UNL A   1      42.853 -16.547 -36.920  0.00  0.00    +0.000 HD
BRANCH  17  24
ATOM     19  C   UNL A   1      44.468 -17.786 -41.538  0.00  0.00    -0.039 C 
ATOM     20  C   UNL A   1      44.979 -17.471 -40.157  0.00  0.00    -0.046 A 
ATOM     21  C   UNL A   1      46.364 -17.367 -39.966  0.00  0.00    -0.058 A 
ATOM     22  C   UNL A   1      46.886 -17.086 -38.710  0.00  0.00    -0.060 A 
ATOM     23  C   UNL A   1      46.031 -16.912 -37.625  0.00  0.00    -0.040 A 
ATOM     24  C   UNL A   1      44.639 -17.011 -37.771  0.00  0.00    +0.035 A 
ATOM     25  C   UNL A   1      44.105 -17.258 -39.063  0.00  0.00    -0.026 A 
ATOM     26  C   UNL A   1      42.607 -17.345 -39.251  0.00  0.00    -0.038 C 
ENDBRANCH  17  24
ENDBRANCH  11  17
ENDBRANCH   7  16
ENDBRANCH   6   9
ENDBRANCH   5   6
ENDBRANCH   1   5
BRANCH   3  27
ATOM     27  C   UNL A   1      39.845 -22.016 -35.793  0.00  0.00    +0.013 C 
BRANCH  27  28
ATOM     28  C   UNL A   1      41.353 -22.036 -36.039  0.00  0.00    -0.022 C 
BRANCH  28  29
ATOM     29  C   UNL A   1      41.711 -21.928 -37.522  0.00  0.00    +0.011 C 
BRANCH  29  30
ATOM     30  N   UNL A   1      42.403 -20.664 -37.842  0.00  0.00    -0.343 N 
ATOM     31  H   UNL A   1      41.931 -19.800 -37.847  0.00  0.00    +0.000 HD
BRANCH  30  32
ATOM     32  C   UNL A   1      43.786 -20.766 -38.144  0.00  0.00    +0.041 A 
ATOM     33  C   UNL A   1      44.204 -21.015 -39.471  0.00  0.00    -0.005 A 
ATOM     34  C   UNL A   1      45.577 -21.030 -39.729  0.00  0.00    +0.047 A 
ATOM     35  N   UNL A   1      46.513 -20.774 -38.786  0.00  0.00    -0.251 NA
ATOM     36  C   UNL A   1      46.122 -20.560 -37.524  0.00  0.00    +0.073 A 
ATOM     37  C   UNL A   1      47.106 -20.341 -36.568  0.00  0.00    -0.036 A 
ATOM     38  C   UNL A   1      46.800 -20.148 -35.220  0.00  0.00    -0.060 A 
ATOM     39  C   UNL A   1      45.477 -20.187 -34.809  0.00  0.00    -0.061 A 
ATOM     40  C   UNL A   1      44.474 -20.402 -35.754  0.00  0.00    -0.051 A 
ATOM     41  C   UNL A   1      44.769 -20.562 -37.132  0.00  0.00    +0.021 A 
ATOM     42  C   UNL A   1      46.127 -21.277 -41.111  0.00  0.00    -0.010 C 
ATOM     43  C   UNL A   1      45.147 -21.999 -42.026  0.00  0.00    -0.047 C 
ATOM     44  C   UNL A   1      43.801 -21.295 -41.983  0.00  0.00    -0.049 C 
ATOM     45  C   UNL A   1      43.218 -21.338 -40.572  0.00  0.00    -0.024 C 
ENDBRANCH  30  32
ENDBRANCH  29  30
ENDBRANCH  28  29
ENDBRANCH  27  28
ENDBRANCH   3  27
TORSDOF 11
ENDMDL
MODEL 10
REMARK VINA RESULT:    -7.624      1.808      3.842
REMARK INTER + INTRA:         -15.882
REMARK INTER:                 -11.528
REMARK INTRA:                  -4.353
REMARK UNBOUND:                -3.355
REMARK  Name = cpd180.pdb
REMARK  13 active torsions:
REMARK  status: ('A' for Active; 'I' for Inactive)
REMARK    1  A    between atoms: C_1  and  C_2
REMARK    2  A    between atoms: C_6  and  N_7
REMARK    3  A    between atoms: N_7  and  C_8
REMARK    4  A    between atoms: C_13  and  C_14
REMARK    5  A    between atoms: N_16  and  C_17
REMARK    6  A    between atoms: C_17  and  C_18
REMARK    7  A    between atoms: C_18  and  C_19
REMARK    8  A    between atoms: N_21  and  C_22
REMARK    9  A    between atoms: C_22  and  C_23
REMARK   10  A    between atoms: C_23  and  C_24
REMARK   11  A    between atoms: C_24  and  N_25
REMARK   12  A    between atoms: N_25  and  C_26
REMARK   13  A    between atoms: C_40  and  C_41
REMARK                            x       y       z     vdW  Elec       q    Type
REMARK                         _______ _______ _______ _____ _____    ______ ____
ROOT
ATOM      1  C   UNL A   1      45.037 -17.852 -34.514  0.00  0.00    +0.215 C 
ATOM      2  O   UNL A   1      46.236 -17.901 -34.264  0.00  0.00    -0.276 OA
ATOM      3  N   UNL A   1      44.368 -18.840 -35.205  0.00  0.00    -0.315 N 
ATOM      4  H   UNL A   1      43.391 -18.771 -35.302  0.00  0.00    +0.000 HD
ENDROOT
BRANCH   1   5
ATOM      5  C   UNL A   1      44.135 -16.718 -34.083  0.00  0.00    +0.039 C 
BRANCH   5   6
ATOM      6  C   UNL A   1      43.474 -17.018 -32.745  0.00  0.00    +0.020 C 
BRANCH   6   9
ATOM      7  C   UNL A   1      41.701 -18.723 -32.920  0.00  0.00    +0.246 C 
ATOM      8  O   UNL A   1      42.482 -19.653 -32.735  0.00  0.00    -0.270 OA
ATOM      9  N   UNL A   1      42.079 -17.395 -32.899  0.00  0.00    -0.311 N 
ATOM     10  H   UNL A   1      41.394 -16.694 -32.991  0.00  0.00    +0.000 HD
BRANCH   7  16
ATOM     11  C   UNL A   1      39.932 -19.810 -34.331  0.00  0.00    +0.044 A 
ATOM     12  C   UNL A   1      38.571 -20.041 -34.586  0.00  0.00    -0.040 A 
ATOM     13  C   UNL A   1      37.577 -19.494 -33.770  0.00  0.00    -0.060 A 
ATOM     14  C   UNL A   1      37.926 -18.704 -32.678  0.00  0.00    -0.061 A 
ATOM     15  C   UNL A   1      39.270 -18.456 -32.402  0.00  0.00    -0.048 A 
ATOM     16  C   UNL A   1      40.271 -18.997 -33.228  0.00  0.00    +0.058 A 
BRANCH  11  17
ATOM     17  N   UNL A   1      40.925 -20.345 -35.181  0.00  0.00    -0.314 N 
ATOM     18  H   UNL A   1      41.428 -21.100 -34.798  0.00  0.00    +0.000 HD
BRANCH  17  24
ATOM     19  C   UNL A   1      42.335 -21.658 -39.803  0.00  0.00    -0.039 C 
ATOM     20  C   UNL A   1      42.000 -20.628 -38.757  0.00  0.00    -0.046 A 
ATOM     21  C   UNL A   1      42.095 -19.273 -39.102  0.00  0.00    -0.058 A 
ATOM     22  C   UNL A   1      41.805 -18.283 -38.170  0.00  0.00    -0.060 A 
ATOM     23  C   UNL A   1      41.423 -18.636 -36.878  0.00  0.00    -0.040 A 
ATOM     24  C   UNL A   1      41.320 -19.981 -36.490  0.00  0.00    +0.035 A 
ATOM     25  C   UNL A   1      41.577 -20.990 -37.455  0.00  0.00    -0.026 A 
ATOM     26  C   UNL A   1      41.449 -22.446 -37.068  0.00  0.00    -0.038 C 
ENDBRANCH  17  24
ENDBRANCH  11  17
ENDBRANCH   7  16
ENDBRANCH   6   9
ENDBRANCH   5   6
ENDBRANCH   1   5
BRANCH   3  27
ATOM     27  C   UNL A   1      45.049 -19.976 -35.795  0.00  0.00    +0.013 C 
BRANCH  27  28
ATOM     28  C   UNL A   1      45.329 -19.807 -37.288  0.00  0.00    -0.022 C 
BRANCH  28  29
ATOM     29  C   UNL A   1      46.814 -19.944 -37.629  0.00  0.00    +0.011 C 
BRANCH  29  30
ATOM     30  N   UNL A   1      47.199 -19.130 -38.798  0.00  0.00    -0.343 N 
ATOM     31  H   UNL A   1      48.105 -18.757 -38.896  0.00  0.00    +0.000 HD
BRANCH  30  32
ATOM     32  C   UNL A   1      46.189 -18.915 -39.772  0.00  0.00    +0.041 A 
ATOM     33  C   UNL A   1      45.566 -17.651 -39.878  0.00  0.00    -0.005 A 
ATOM     34  C   UNL A   1      44.633 -17.469 -40.902  0.00  0.00    +0.047 A 
ATOM     35  N   UNL A   1      44.337 -18.422 -41.815  0.00  0.00    -0.251 NA
ATOM     36  C   UNL A   1      44.908 -19.628 -41.704  0.00  0.00    +0.073 A 
ATOM     37  C   UNL A   1      44.554 -20.601 -42.630  0.00  0.00    -0.036 A 
ATOM     38  C   UNL A   1      45.064 -21.898 -42.574  0.00  0.00    -0.060 A 
ATOM     39  C   UNL A   1      45.942 -22.241 -41.558  0.00  0.00    -0.061 A 
ATOM     40  C   UNL A   1      46.314 -21.278 -40.621  0.00  0.00    -0.051 A 
ATOM     41  C   UNL A   1      45.831 -19.946 -40.690  0.00  0.00    +0.021 A 
ATOM     42  C   UNL A   1      43.920 -16.157 -41.108  0.00  0.00    -0.010 C 
ATOM     43  C   UNL A   1      43.899 -15.283 -39.860  0.00  0.00    -0.047 C 
ATOM     44  C   UNL A   1      45.305 -15.172 -39.295  0.00  0.00    -0.049 C 
ATOM     45  C   UNL A   1      45.825 -16.547 -38.878  0.00  0.00    -0.024 C 
ENDBRANCH  30  32
ENDBRANCH  29  30
ENDBRANCH  28  29
ENDBRANCH  27  28
ENDBRANCH   3  27
TORSDOF 11
ENDMDL
MODEL 11
REMARK VINA RESULT:    -7.601      1.775      4.554
REMARK INTER + INTRA:         -15.844
REMARK INTER:                 -10.902
REMARK INTRA:                  -4.942
REMARK UNBOUND:                -3.355
REMARK  Name = cpd180.pdb
REMARK  13 active torsions:
REMARK  status: ('A' for Active; 'I' for Inactive)
REMARK    1  A    between atoms: C_1  and  C_2
REMARK    2  A    between atoms: C_6  and  N_7
REMARK    3  A    between atoms: N_7  and  C_8
REMARK    4  A    between atoms: C_13  and  C_14
REMARK    5  A    between atoms: N_16  and  C_17
REMARK    6  A    between atoms: C_17  and  C_18
REMARK    7  A    between atoms: C_18  and  C_19
REMARK    8  A    between atoms: N_21  and  C_22
REMARK    9  A    between atoms: C_22  and  C_23
REMARK   10  A    between atoms: C_23  and  C_24
REMARK   11  A    between atoms: C_24  and  N_25
REMARK   12  A    between atoms: N_25  and  C_26
REMARK   13  A    between atoms: C_40  and  C_41
REMARK                            x       y       z     vdW  Elec       q    Type
REMARK                         _______ _______ _______ _____ _____    ______ ____
ROOT
ATOM      1  C   UNL A   1      44.874 -16.509 -34.505  0.00  0.00    +0.215 C 
ATOM      2  O   UNL A   1      44.648 -15.670 -35.370  0.00  0.00    -0.276 OA
ATOM      3  N   UNL A   1      45.957 -17.362 -34.543  0.00  0.00    -0.315 N 
ATOM      4  H   UNL A   1      46.118 -17.957 -33.776  0.00  0.00    +0.000 HD
ENDROOT
BRANCH   1   5
ATOM      5  C   UNL A   1      44.011 -16.706 -33.280  0.00  0.00    +0.039 C 
BRANCH   5   6
ATOM      6  C   UNL A   1      44.308 -18.037 -32.604  0.00  0.00    +0.020 C 
BRANCH   6   9
ATOM      7  C   UNL A   1      43.310 -19.923 -33.840  0.00  0.00    +0.246 C 
ATOM      8  O   UNL A   1      44.282 -20.040 -34.581  0.00  0.00    -0.270 OA
ATOM      9  N   UNL A   1      43.242 -19.002 -32.812  0.00  0.00    -0.311 N 
ATOM     10  H   UNL A   1      42.462 -19.001 -32.213  0.00  0.00    +0.000 HD
BRANCH   7  16
ATOM     11  C   UNL A   1      41.422 -20.725 -35.287  0.00  0.00    +0.044 A 
ATOM     12  C   UNL A   1      40.286 -21.535 -35.442  0.00  0.00    -0.040 A 
ATOM     13  C   UNL A   1      39.843 -22.367 -34.410  0.00  0.00    -0.060 A 
ATOM     14  C   UNL A   1      40.530 -22.407 -33.200  0.00  0.00    -0.061 A 
ATOM     15  C   UNL A   1      41.660 -21.611 -33.018  0.00  0.00    -0.048 A 
ATOM     16  C   UNL A   1      42.102 -20.766 -34.051  0.00  0.00    +0.058 A 
BRANCH  11  17
ATOM     17  N   UNL A   1      41.842 -19.867 -36.328  0.00  0.00    -0.314 N 
ATOM     18  H   UNL A   1      42.619 -20.192 -36.837  0.00  0.00    +0.000 HD
BRANCH  17  24
ATOM     19  C   UNL A   1      39.507 -17.113 -39.798  0.00  0.00    -0.039 C 
ATOM     20  C   UNL A   1      40.181 -17.275 -38.461  0.00  0.00    -0.046 A 
ATOM     21  C   UNL A   1      40.310 -16.148 -37.638  0.00  0.00    -0.058 A 
ATOM     22  C   UNL A   1      40.931 -16.244 -36.398  0.00  0.00    -0.060 A 
ATOM     23  C   UNL A   1      41.439 -17.468 -35.968  0.00  0.00    -0.040 A 
ATOM     24  C   UNL A   1      41.335 -18.619 -36.763  0.00  0.00    +0.035 A 
ATOM     25  C   UNL A   1      40.664 -18.529 -38.010  0.00  0.00    -0.026 A 
ATOM     26  C   UNL A   1      40.517 -19.761 -38.874  0.00  0.00    -0.038 C 
ENDBRANCH  17  24
ENDBRANCH  11  17
ENDBRANCH   7  16
ENDBRANCH   6   9
ENDBRANCH   5   6
ENDBRANCH   1   5
BRANCH   3  27
ATOM     27  C   UNL A   1      46.867 -17.416 -35.670  0.00  0.00    +0.013 C 
BRANCH  27  28
ATOM     28  C   UNL A   1      47.424 -18.814 -35.934  0.00  0.00    -0.022 C 
BRANCH  28  29
ATOM     29  C   UNL A   1      47.305 -19.230 -37.401  0.00  0.00    +0.011 C 
BRANCH  29  30
ATOM     30  N   UNL A   1      45.997 -19.838 -37.708  0.00  0.00    -0.343 N 
ATOM     31  H   UNL A   1      45.491 -20.351 -37.036  0.00  0.00    +0.000 HD
BRANCH  30  32
ATOM     32  C   UNL A   1      45.509 -19.643 -39.026  0.00  0.00    +0.041 A 
ATOM     33  C   UNL A   1      45.710 -20.638 -40.009  0.00  0.00    -0.005 A 
ATOM     34  C   UNL A   1      45.144 -20.431 -41.270  0.00  0.00    +0.047 A 
ATOM     35  N   UNL A   1      44.381 -19.357 -41.575  0.00  0.00    -0.251 NA
ATOM     36  C   UNL A   1      44.207 -18.402 -40.653  0.00  0.00    +0.073 A 
ATOM     37  C   UNL A   1      43.453 -17.289 -41.007  0.00  0.00    -0.036 A 
ATOM     38  C   UNL A   1      43.249 -16.224 -40.129  0.00  0.00    -0.060 A 
ATOM     39  C   UNL A   1      43.822 -16.260 -38.868  0.00  0.00    -0.061 A 
ATOM     40  C   UNL A   1      44.578 -17.370 -38.492  0.00  0.00    -0.051 A 
ATOM     41  C   UNL A   1      44.762 -18.476 -39.361  0.00  0.00    +0.021 A 
ATOM     42  C   UNL A   1      45.292 -21.435 -42.386  0.00  0.00    -0.010 C 
ATOM     43  C   UNL A   1      46.484 -22.365 -42.202  0.00  0.00    -0.047 C 
ATOM     44  C   UNL A   1      46.455 -22.955 -40.802  0.00  0.00    -0.049 C 
ATOM     45  C   UNL A   1      46.575 -21.852 -39.752  0.00  0.00    -0.024 C 
ENDBRANCH  30  32
ENDBRANCH  29  30
ENDBRANCH  28  29
ENDBRANCH  27  28
ENDBRANCH   3  27
TORSDOF 11
ENDMDL
MODEL 12
REMARK VINA RESULT:    -7.595      2.594      5.319
REMARK INTER + INTRA:         -15.835
REMARK INTER:                 -10.787
REMARK INTRA:                  -5.048
REMARK UNBOUND:                -3.355
REMARK  Name = cpd180.pdb
REMARK  13 active torsions:
REMARK  status: ('A' for Active; 'I' for Inactive)
REMARK    1  A    between atoms: C_1  and  C_2
REMARK    2  A    between atoms: C_6  and  N_7
REMARK    3  A    between atoms: N_7  and  C_8
REMARK    4  A    between atoms: C_13  and  C_14
REMARK    5  A    between atoms: N_16  and  C_17
REMARK    6  A    between atoms: C_17  and  C_18
REMARK    7  A    between atoms: C_18  and  C_19
REMARK    8  A    between atoms: N_21  and  C_22
REMARK    9  A    between atoms: C_22  and  C_23
REMARK   10  A    between atoms: C_23  and  C_24
REMARK   11  A    between atoms: C_24  and  N_25
REMARK   12  A    between atoms: N_25  and  C_26
REMARK   13  A    between atoms: C_40  and  C_41
REMARK                            x       y       z     vdW  Elec       q    Type
REMARK                         _______ _______ _______ _____ _____    ______ ____
ROOT
ATOM      1  C   UNL A   1      45.210 -17.379 -34.288  0.00  0.00    +0.215 C 
ATOM      2  O   UNL A   1      45.016 -16.597 -35.212  0.00  0.00    -0.276 OA
ATOM      3  N   UNL A   1      46.363 -18.126 -34.159  0.00  0.00    -0.315 N 
ATOM      4  H   UNL A   1      46.482 -18.675 -33.350  0.00  0.00    +0.000 HD
ENDROOT
BRANCH   1   5
ATOM      5  C   UNL A   1      44.227 -17.613 -33.165  0.00  0.00    +0.039 C 
BRANCH   5   6
ATOM      6  C   UNL A   1      43.296 -18.775 -33.480  0.00  0.00    +0.020 C 
BRANCH   6   9
ATOM      7  C   UNL A   1      42.119 -19.179 -35.609  0.00  0.00    +0.246 C 
ATOM      8  O   UNL A   1      41.021 -18.900 -35.134  0.00  0.00    -0.270 OA
ATOM      9  N   UNL A   1      43.299 -19.106 -34.895  0.00  0.00    -0.311 N 
ATOM     10  H   UNL A   1      44.153 -19.281 -35.350  0.00  0.00    +0.000 HD
BRANCH   7  16
ATOM     11  C   UNL A   1      41.695 -18.895 -38.066  0.00  0.00    +0.044 A 
ATOM     12  C   UNL A   1      41.816 -19.393 -39.373  0.00  0.00    -0.040 A 
ATOM     13  C   UNL A   1      42.452 -20.611 -39.629  0.00  0.00    -0.060 A 
ATOM     14  C   UNL A   1      42.983 -21.356 -38.579  0.00  0.00    -0.061 A 
ATOM     15  C   UNL A   1      42.874 -20.886 -37.271  0.00  0.00    -0.048 A 
ATOM     16  C   UNL A   1      42.226 -19.667 -37.011  0.00  0.00    +0.058 A 
BRANCH  11  17
ATOM     17  N   UNL A   1      41.023 -17.677 -37.820  0.00  0.00    -0.314 N 
ATOM     18  H   UNL A   1      40.128 -17.777 -37.423  0.00  0.00    +0.000 HD
BRANCH  17  24
ATOM     19  C   UNL A   1      40.723 -13.473 -40.524  0.00  0.00    -0.039 C 
ATOM     20  C   UNL A   1      41.260 -14.275 -39.368  0.00  0.00    -0.046 A 
ATOM     21  C   UNL A   1      42.183 -13.668 -38.506  0.00  0.00    -0.058 A 
ATOM     22  C   UNL A   1      42.713 -14.368 -37.429  0.00  0.00    -0.060 A 
ATOM     23  C   UNL A   1      42.334 -15.690 -37.206  0.00  0.00    -0.040 A 
ATOM     24  C   UNL A   1      41.418 -16.337 -38.047  0.00  0.00    +0.035 A 
ATOM     25  C   UNL A   1      40.845 -15.608 -39.122  0.00  0.00    -0.026 A 
ATOM     26  C   UNL A   1      39.837 -16.275 -40.029  0.00  0.00    -0.038 C 
ENDBRANCH  17  24
ENDBRANCH  11  17
ENDBRANCH   7  16
ENDBRANCH   6   9
ENDBRANCH   5   6
ENDBRANCH   1   5
BRANCH   3  27
ATOM     27  C   UNL A   1      47.404 -18.133 -35.168  0.00  0.00    +0.013 C 
BRANCH  27  28
ATOM     28  C   UNL A   1      47.449 -19.424 -35.983  0.00  0.00    -0.022 C 
BRANCH  28  29
ATOM     29  C   UNL A   1      46.506 -19.395 -37.187  0.00  0.00    +0.011 C 
BRANCH  29  30
ATOM     30  N   UNL A   1      47.230 -19.251 -38.464  0.00  0.00    -0.343 N 
ATOM     31  H   UNL A   1      48.206 -19.127 -38.498  0.00  0.00    +0.000 HD
BRANCH  30  32
ATOM     32  C   UNL A   1      46.439 -19.301 -39.642  0.00  0.00    +0.041 A 
ATOM     33  C   UNL A   1      46.359 -20.498 -40.390  0.00  0.00    -0.005 A 
ATOM     34  C   UNL A   1      45.507 -20.517 -41.497  0.00  0.00    +0.047 A 
ATOM     35  N   UNL A   1      44.729 -19.470 -41.854  0.00  0.00    -0.251 NA
ATOM     36  C   UNL A   1      44.818 -18.328 -41.162  0.00  0.00    +0.073 A 
ATOM     37  C   UNL A   1      44.038 -17.255 -41.575  0.00  0.00    -0.036 A 
ATOM     38  C   UNL A   1      44.092 -16.013 -40.943  0.00  0.00    -0.060 A 
ATOM     39  C   UNL A   1      44.956 -15.828 -39.876  0.00  0.00    -0.061 A 
ATOM     40  C   UNL A   1      45.744 -16.894 -39.442  0.00  0.00    -0.051 A 
ATOM     41  C   UNL A   1      45.672 -18.172 -40.053  0.00  0.00    +0.021 A 
ATOM     42  C   UNL A   1      45.343 -21.746 -42.356  0.00  0.00    -0.010 C 
ATOM     43  C   UNL A   1      46.512 -22.715 -42.246  0.00  0.00    -0.047 C 
ATOM     44  C   UNL A   1      46.809 -22.987 -40.781  0.00  0.00    -0.049 C 
ATOM     45  C   UNL A   1      47.220 -21.699 -40.069  0.00  0.00    -0.024 C 
ENDBRANCH  30  32
ENDBRANCH  29  30
ENDBRANCH  28  29
ENDBRANCH  27  28
ENDBRANCH   3  27
TORSDOF 11
ENDMDL
MODEL 13
REMARK VINA RESULT:    -7.486      1.845      3.829
REMARK INTER + INTRA:         -15.655
REMARK INTER:                 -10.254
REMARK INTRA:                  -5.401
REMARK UNBOUND:                -3.355
REMARK  Name = cpd180.pdb
REMARK  13 active torsions:
REMARK  status: ('A' for Active; 'I' for Inactive)
REMARK    1  A    between atoms: C_1  and  C_2
REMARK    2  A    between atoms: C_6  and  N_7
REMARK    3  A    between atoms: N_7  and  C_8
REMARK    4  A    between atoms: C_13  and  C_14
REMARK    5  A    between atoms: N_16  and  C_17
REMARK    6  A    between atoms: C_17  and  C_18
REMARK    7  A    between atoms: C_18  and  C_19
REMARK    8  A    between atoms: N_21  and  C_22
REMARK    9  A    between atoms: C_22  and  C_23
REMARK   10  A    between atoms: C_23  and  C_24
REMARK   11  A    between atoms: C_24  and  N_25
REMARK   12  A    between atoms: N_25  and  C_26
REMARK   13  A    between atoms: C_40  and  C_41
REMARK                            x       y       z     vdW  Elec       q    Type
REMARK                         _______ _______ _______ _____ _____    ______ ____
ROOT
ATOM      1  C   UNL A   1      43.061 -17.177 -34.207  0.00  0.00    +0.215 C 
ATOM      2  O   UNL A   1      43.460 -16.233 -34.879  0.00  0.00    -0.276 OA
ATOM      3  N   UNL A   1      43.891 -18.172 -33.734  0.00  0.00    -0.315 N 
ATOM      4  H   UNL A   1      43.514 -18.858 -33.136  0.00  0.00    +0.000 HD
ENDROOT
BRANCH   1   5
ATOM      5  C   UNL A   1      41.619 -17.365 -33.795  0.00  0.00    +0.039 C 
BRANCH   5   6
ATOM      6  C   UNL A   1      41.499 -18.358 -32.648  0.00  0.00    +0.020 C 
BRANCH   6   9
ATOM      7  C   UNL A   1      41.200 -20.687 -33.404  0.00  0.00    +0.246 C 
ATOM      8  O   UNL A   1      42.408 -20.905 -33.431  0.00  0.00    -0.270 OA
ATOM      9  N   UNL A   1      40.651 -19.488 -32.993  0.00  0.00    -0.311 N 
ATOM     10  H   UNL A   1      39.673 -19.397 -32.933  0.00  0.00    +0.000 HD
BRANCH   7  16
ATOM     11  C   UNL A   1      40.328 -22.222 -35.188  0.00  0.00    +0.044 A 
ATOM     12  C   UNL A   1      39.402 -23.199 -35.587  0.00  0.00    -0.040 A 
ATOM     13  C   UNL A   1      38.427 -23.676 -34.707  0.00  0.00    -0.060 A 
ATOM     14  C   UNL A   1      38.360 -23.186 -33.405  0.00  0.00    -0.061 A 
ATOM     15  C   UNL A   1      39.265 -22.213 -32.983  0.00  0.00    -0.048 A 
ATOM     16  C   UNL A   1      40.240 -21.725 -33.870  0.00  0.00    +0.058 A 
BRANCH  11  17
ATOM     17  N   UNL A   1      41.289 -21.727 -36.098  0.00  0.00    -0.314 N 
ATOM     18  H   UNL A   1      42.191 -21.618 -35.719  0.00  0.00    +0.000 HD
BRANCH  17  24
ATOM     19  C   UNL A   1      40.025 -18.372 -39.593  0.00  0.00    -0.039 C 
ATOM     20  C   UNL A   1      40.566 -19.712 -39.170  0.00  0.00    -0.046 A 
ATOM     21  C   UNL A   1      40.956 -20.618 -40.166  0.00  0.00    -0.058 A 
ATOM     22  C   UNL A   1      41.454 -21.871 -39.827  0.00  0.00    -0.060 A 
ATOM     23  C   UNL A   1      41.560 -22.238 -38.488  0.00  0.00    -0.040 A 
ATOM     24  C   UNL A   1      41.176 -21.363 -37.460  0.00  0.00    +0.035 A 
ATOM     25  C   UNL A   1      40.707 -20.069 -37.806  0.00  0.00    -0.026 A 
ATOM     26  C   UNL A   1      40.309 -19.099 -36.716  0.00  0.00    -0.038 C 
ENDBRANCH  17  24
ENDBRANCH  11  17
ENDBRANCH   7  16
ENDBRANCH   6   9
ENDBRANCH   5   6
ENDBRANCH   1   5
BRANCH   3  27
ATOM     27  C   UNL A   1      45.296 -18.247 -34.084  0.00  0.00    +0.013 C 
BRANCH  27  28
ATOM     28  C   UNL A   1      45.589 -19.240 -35.208  0.00  0.00    -0.022 C 
BRANCH  28  29
ATOM     29  C   UNL A   1      45.471 -18.609 -36.597  0.00  0.00    +0.011 C 
BRANCH  29  30
ATOM     30  N   UNL A   1      44.124 -18.772 -37.175  0.00  0.00    -0.343 N 
ATOM     31  H   UNL A   1      43.336 -18.960 -36.615  0.00  0.00    +0.000 HD
BRANCH  30  32
ATOM     32  C   UNL A   1      44.027 -18.642 -38.585  0.00  0.00    +0.041 A 
ATOM     33  C   UNL A   1      43.511 -17.455 -39.152  0.00  0.00    -0.005 A 
ATOM     34  C   UNL A   1      43.508 -17.346 -40.546  0.00  0.00    +0.047 A 
ATOM     35  N   UNL A   1      44.015 -18.296 -41.365  0.00  0.00    -0.251 NA
ATOM     36  C   UNL A   1      44.485 -19.430 -40.833  0.00  0.00    +0.073 A 
ATOM     37  C   UNL A   1      44.961 -20.406 -41.700  0.00  0.00    -0.036 A 
ATOM     38  C   UNL A   1      45.433 -21.636 -41.244  0.00  0.00    -0.060 A 
ATOM     39  C   UNL A   1      45.419 -21.911 -39.886  0.00  0.00    -0.061 A 
ATOM     40  C   UNL A   1      44.949 -20.943 -38.998  0.00  0.00    -0.051 A 
ATOM     41  C   UNL A   1      44.501 -19.674 -39.446  0.00  0.00    +0.021 A 
ATOM     42  C   UNL A   1      42.987 -16.119 -41.249  0.00  0.00    -0.010 C 
ATOM     43  C   UNL A   1      42.031 -15.297 -40.395  0.00  0.00    -0.047 C 
ATOM     44  C   UNL A   1      42.657 -15.044 -39.034  0.00  0.00    -0.049 C 
ATOM     45  C   UNL A   1      42.901 -16.363 -38.302  0.00  0.00    -0.024 C 
ENDBRANCH  30  32
ENDBRANCH  29  30
ENDBRANCH  28  29
ENDBRANCH  27  28
ENDBRANCH   3  27
TORSDOF 11
ENDMDL
MODEL 14
REMARK VINA RESULT:    -7.335      2.886      4.998
REMARK INTER + INTRA:         -15.407
REMARK INTER:                 -10.543
REMARK INTRA:                  -4.864
REMARK UNBOUND:                -3.355
REMARK  Name = cpd180.pdb
REMARK  13 active torsions:
REMARK  status: ('A' for Active; 'I' for Inactive)
REMARK    1  A    between atoms: C_1  and  C_2
REMARK    2  A    between atoms: C_6  and  N_7
REMARK    3  A    between atoms: N_7  and  C_8
REMARK    4  A    between atoms: C_13  and  C_14
REMARK    5  A    between atoms: N_16  and  C_17
REMARK    6  A    between atoms: C_17  and  C_18
REMARK    7  A    between atoms: C_18  and  C_19
REMARK    8  A    between atoms: N_21  and  C_22
REMARK    9  A    between atoms: C_22  and  C_23
REMARK   10  A    between atoms: C_23  and  C_24
REMARK   11  A    between atoms: C_24  and  N_25
REMARK   12  A    between atoms: N_25  and  C_26
REMARK   13  A    between atoms: C_40  and  C_41
REMARK                            x       y       z     vdW  Elec       q    Type
REMARK                         _______ _______ _______ _____ _____    ______ ____
ROOT
ATOM      1  C   UNL A   1      41.159 -15.152 -38.869  0.00  0.00    +0.215 C 
ATOM      2  O   UNL A   1      41.938 -15.720 -38.112  0.00  0.00    -0.276 OA
ATOM      3  N   UNL A   1      41.559 -14.496 -40.014  0.00  0.00    -0.315 N 
ATOM      4  H   UNL A   1      40.871 -14.129 -40.614  0.00  0.00    +0.000 HD
ENDROOT
BRANCH   1   5
ATOM      5  C   UNL A   1      39.662 -15.110 -38.658  0.00  0.00    +0.039 C 
BRANCH   5   6
ATOM      6  C   UNL A   1      38.975 -16.279 -39.348  0.00  0.00    +0.020 C 
BRANCH   6   9
ATOM      7  C   UNL A   1      39.277 -18.650 -38.743  0.00  0.00    +0.246 C 
ATOM      8  O   UNL A   1      38.124 -18.765 -38.336  0.00  0.00    -0.270 OA
ATOM      9  N   UNL A   1      39.778 -17.489 -39.297  0.00  0.00    -0.311 N 
ATOM     10  H   UNL A   1      40.692 -17.481 -39.663  0.00  0.00    +0.000 HD
BRANCH   7  16
ATOM     11  C   UNL A   1      40.717 -20.152 -37.338  0.00  0.00    +0.044 A 
ATOM     12  C   UNL A   1      41.617 -21.226 -37.260  0.00  0.00    -0.040 A 
ATOM     13  C   UNL A   1      42.019 -21.920 -38.404  0.00  0.00    -0.060 A 
ATOM     14  C   UNL A   1      41.524 -21.555 -39.653  0.00  0.00    -0.061 A 
ATOM     15  C   UNL A   1      40.630 -20.490 -39.760  0.00  0.00    -0.048 A 
ATOM     16  C   UNL A   1      40.233 -19.784 -38.611  0.00  0.00    +0.058 A 
BRANCH  11  17
ATOM     17  N   UNL A   1      40.343 -19.440 -36.176  0.00  0.00    -0.314 N 
ATOM     18  H   UNL A   1      40.207 -18.475 -36.314  0.00  0.00    +0.000 HD
BRANCH  17  24
ATOM     19  C   UNL A   1      37.229 -20.968 -32.564  0.00  0.00    -0.039 C 
ATOM     20  C   UNL A   1      38.603 -20.637 -33.083  0.00  0.00    -0.046 A 
ATOM     21  C   UNL A   1      39.694 -20.764 -32.212  0.00  0.00    -0.058 A 
ATOM     22  C   UNL A   1      40.981 -20.463 -32.640  0.00  0.00    -0.060 A 
ATOM     23  C   UNL A   1      41.195 -20.024 -33.944  0.00  0.00    -0.040 A 
ATOM     24  C   UNL A   1      40.131 -19.879 -34.847  0.00  0.00    +0.035 A 
ATOM     25  C   UNL A   1      38.822 -20.226 -34.421  0.00  0.00    -0.026 A 
ATOM     26  C   UNL A   1      37.663 -20.101 -35.383  0.00  0.00    -0.038 C 
ENDBRANCH  17  24
ENDBRANCH  11  17
ENDBRANCH   7  16
ENDBRANCH   6   9
ENDBRANCH   5   6
ENDBRANCH   1   5
BRANCH   3  27
ATOM     27  C   UNL A   1      42.955 -14.328 -40.368  0.00  0.00    +0.013 C 
BRANCH  27  28
ATOM     28  C   UNL A   1      43.473 -15.404 -41.322  0.00  0.00    -0.022 C 
BRANCH  28  29
ATOM     29  C   UNL A   1      44.275 -16.491 -40.605  0.00  0.00    +0.011 C 
BRANCH  29  30
ATOM     30  N   UNL A   1      43.430 -17.623 -40.177  0.00  0.00    -0.343 N 
ATOM     31  H   UNL A   1      42.448 -17.561 -40.161  0.00  0.00    +0.000 HD
BRANCH  30  32
ATOM     32  C   UNL A   1      44.115 -18.804 -39.789  0.00  0.00    +0.041 A 
ATOM     33  C   UNL A   1      44.529 -19.735 -40.767  0.00  0.00    -0.005 A 
ATOM     34  C   UNL A   1      45.266 -20.844 -40.341  0.00  0.00    +0.047 A 
ATOM     35  N   UNL A   1      45.637 -21.038 -39.054  0.00  0.00    -0.251 NA
ATOM     36  C   UNL A   1      45.228 -20.170 -38.122  0.00  0.00    +0.073 A 
ATOM     37  C   UNL A   1      45.588 -20.417 -36.803  0.00  0.00    -0.036 A 
ATOM     38  C   UNL A   1      45.176 -19.592 -35.756  0.00  0.00    -0.060 A 
ATOM     39  C   UNL A   1      44.372 -18.497 -36.026  0.00  0.00    -0.061 A 
ATOM     40  C   UNL A   1      44.002 -18.229 -37.344  0.00  0.00    -0.051 A 
ATOM     41  C   UNL A   1      44.445 -19.038 -38.422  0.00  0.00    +0.021 A 
ATOM     42  C   UNL A   1      45.762 -21.891 -41.305  0.00  0.00    -0.010 C 
ATOM     43  C   UNL A   1      44.982 -21.922 -42.612  0.00  0.00    -0.047 C 
ATOM     44  C   UNL A   1      44.887 -20.515 -43.179  0.00  0.00    -0.049 C 
ATOM     45  C   UNL A   1      44.128 -19.600 -42.220  0.00  0.00    -0.024 C 
ENDBRANCH  30  32
ENDBRANCH  29  30
ENDBRANCH  28  29
ENDBRANCH  27  28
ENDBRANCH   3  27
TORSDOF 11
ENDMDL
MODEL 15
REMARK VINA RESULT:    -7.296      2.271      8.458
REMARK INTER + INTRA:         -15.343
REMARK INTER:                 -11.157
REMARK INTRA:                  -4.185
REMARK UNBOUND:                -3.355
REMARK  Name = cpd180.pdb
REMARK  13 active torsions:
REMARK  status: ('A' for Active; 'I' for Inactive)
REMARK    1  A    between atoms: C_1  and  C_2
REMARK    2  A    between atoms: C_6  and  N_7
REMARK    3  A    between atoms: N_7  and  C_8
REMARK    4  A    between atoms: C_13  and  C_14
REMARK    5  A    between atoms: N_16  and  C_17
REMARK    6  A    between atoms: C_17  and  C_18
REMARK    7  A    between atoms: C_18  and  C_19
REMARK    8  A    between atoms: N_21  and  C_22
REMARK    9  A    between atoms: C_22  and  C_23
REMARK   10  A    between atoms: C_23  and  C_24
REMARK   11  A    between atoms: C_24  and  N_25
REMARK   12  A    between atoms: N_25  and  C_26
REMARK   13  A    between atoms: C_40  and  C_41
REMARK                            x       y       z     vdW  Elec       q    Type
REMARK                         _______ _______ _______ _____ _____    ______ ____
ROOT
ATOM      1  C   UNL A   1      40.580 -17.351 -38.536  0.00  0.00    +0.215 C 
ATOM      2  O   UNL A   1      40.535 -17.132 -37.331  0.00  0.00    -0.276 OA
ATOM      3  N   UNL A   1      39.946 -18.420 -39.135  0.00  0.00    -0.315 N 
ATOM      4  H   UNL A   1      39.961 -18.490 -40.117  0.00  0.00    +0.000 HD
ENDROOT
BRANCH   1   5
ATOM      5  C   UNL A   1      41.317 -16.474 -39.523  0.00  0.00    +0.039 C 
BRANCH   5   6
ATOM      6  C   UNL A   1      42.206 -15.466 -38.809  0.00  0.00    +0.020 C 
BRANCH   6   9
ATOM      7  C   UNL A   1      44.591 -16.036 -38.551  0.00  0.00    +0.246 C 
ATOM      8  O   UNL A   1      44.926 -15.372 -39.528  0.00  0.00    -0.270 OA
ATOM      9  N   UNL A   1      43.291 -16.111 -38.090  0.00  0.00    -0.311 N 
ATOM     10  H   UNL A   1      43.098 -16.610 -37.264  0.00  0.00    +0.000 HD
BRANCH   7  16
ATOM     11  C   UNL A   1      46.242 -17.924 -38.472  0.00  0.00    +0.044 A 
ATOM     12  C   UNL A   1      47.184 -18.669 -37.745  0.00  0.00    -0.040 A 
ATOM     13  C   UNL A   1      47.487 -18.356 -36.417  0.00  0.00    -0.060 A 
ATOM     14  C   UNL A   1      46.853 -17.287 -35.789  0.00  0.00    -0.061 A 
ATOM     15  C   UNL A   1      45.911 -16.532 -36.487  0.00  0.00    -0.048 A 
ATOM     16  C   UNL A   1      45.598 -16.852 -37.820  0.00  0.00    +0.058 A 
BRANCH  11  17
ATOM     17  N   UNL A   1      45.925 -18.271 -39.804  0.00  0.00    -0.314 N 
ATOM     18  H   UNL A   1      46.386 -17.732 -40.488  0.00  0.00    +0.000 HD
BRANCH  17  24
ATOM     19  C   UNL A   1      45.121 -22.148 -42.870  0.00  0.00    -0.039 C 
ATOM     20  C   UNL A   1      44.671 -21.168 -41.820  0.00  0.00    -0.046 A 
ATOM     21  C   UNL A   1      43.349 -21.244 -41.359  0.00  0.00    -0.058 A 
ATOM     22  C   UNL A   1      42.883 -20.357 -40.396  0.00  0.00    -0.060 A 
ATOM     23  C   UNL A   1      43.730 -19.376 -39.887  0.00  0.00    -0.040 A 
ATOM     24  C   UNL A   1      45.058 -19.261 -40.324  0.00  0.00    +0.035 A 
ATOM     25  C   UNL A   1      45.545 -20.194 -41.277  0.00  0.00    -0.026 A 
ATOM     26  C   UNL A   1      46.979 -20.106 -41.747  0.00  0.00    -0.038 C 
ENDBRANCH  17  24
ENDBRANCH  11  17
ENDBRANCH   7  16
ENDBRANCH   6   9
ENDBRANCH   5   6
ENDBRANCH   1   5
BRANCH   3  27
ATOM     27  C   UNL A   1      39.258 -19.444 -38.373  0.00  0.00    +0.013 C 
BRANCH  27  28
ATOM     28  C   UNL A   1      39.900 -20.825 -38.495  0.00  0.00    -0.022 C 
BRANCH  28  29
ATOM     29  C   UNL A   1      39.254 -21.860 -37.572  0.00  0.00    +0.011 C 
BRANCH  29  30
ATOM     30  N   UNL A   1      40.198 -22.380 -36.565  0.00  0.00    -0.343 N 
ATOM     31  H   UNL A   1      40.653 -23.246 -36.676  0.00  0.00    +0.000 HD
BRANCH  30  32
ATOM     32  C   UNL A   1      40.412 -21.561 -35.425  0.00  0.00    +0.041 A 
ATOM     33  C   UNL A   1      41.597 -20.799 -35.315  0.00  0.00    -0.005 A 
ATOM     34  C   UNL A   1      41.725 -19.951 -34.212  0.00  0.00    +0.047 A 
ATOM     35  N   UNL A   1      40.757 -19.793 -33.280  0.00  0.00    -0.251 NA
ATOM     36  C   UNL A   1      39.643 -20.530 -33.369  0.00  0.00    +0.073 A 
ATOM     37  C   UNL A   1      38.684 -20.379 -32.375  0.00  0.00    -0.036 A 
ATOM     38  C   UNL A   1      37.509 -21.130 -32.360  0.00  0.00    -0.060 A 
ATOM     39  C   UNL A   1      37.288 -22.070 -33.353  0.00  0.00    -0.061 A 
ATOM     40  C   UNL A   1      38.236 -22.234 -34.363  0.00  0.00    -0.051 A 
ATOM     41  C   UNL A   1      39.417 -21.450 -34.411  0.00  0.00    +0.021 A 
ATOM     42  C   UNL A   1      42.945 -19.089 -34.006  0.00  0.00    -0.010 C 
ATOM     43  C   UNL A   1      44.170 -19.592 -34.756  0.00  0.00    -0.047 C 
ATOM     44  C   UNL A   1      43.803 -19.855 -36.207  0.00  0.00    -0.049 C 
ATOM     45  C   UNL A   1      42.734 -20.943 -36.302  0.00  0.00    -0.024 C 
ENDBRANCH  30  32
ENDBRANCH  29  30
ENDBRANCH  28  29
ENDBRANCH  27  28
ENDBRANCH   3  27
TORSDOF 11
ENDMDL
MODEL 16
REMARK VINA RESULT:    -7.292      2.253      7.966
REMARK INTER + INTRA:         -15.336
REMARK INTER:                 -11.759
REMARK INTRA:                  -3.577
REMARK UNBOUND:                -3.355
REMARK  Name = cpd180.pdb
REMARK  13 active torsions:
REMARK  status: ('A' for Active; 'I' for Inactive)
REMARK    1  A    between atoms: C_1  and  C_2
REMARK    2  A    between atoms: C_6  and  N_7
REMARK    3  A    between atoms: N_7  and  C_8
REMARK    4  A    between atoms: C_13  and  C_14
REMARK    5  A    between atoms: N_16  and  C_17
REMARK    6  A    between atoms: C_17  and  C_18
REMARK    7  A    between atoms: C_18  and  C_19
REMARK    8  A    between atoms: N_21  and  C_22
REMARK    9  A    between atoms: C_22  and  C_23
REMARK   10  A    between atoms: C_23  and  C_24
REMARK   11  A    between atoms: C_24  and  N_25
REMARK   12  A    between atoms: N_25  and  C_26
REMARK   13  A    between atoms: C_40  and  C_41
REMARK                            x       y       z     vdW  Elec       q    Type
REMARK                         _______ _______ _______ _____ _____    ______ ____
ROOT
ATOM      1  C   UNL A   1      43.478 -17.352 -36.804  0.00  0.00    +0.215 C 
ATOM      2  O   UNL A   1      44.013 -17.957 -37.727  0.00  0.00    -0.276 OA
ATOM      3  N   UNL A   1      44.049 -17.218 -35.556  0.00  0.00    -0.315 N 
ATOM      4  H   UNL A   1      43.597 -16.654 -34.887  0.00  0.00    +0.000 HD
ENDROOT
BRANCH   1   5
ATOM      5  C   UNL A   1      42.138 -16.662 -36.917  0.00  0.00    +0.039 C 
BRANCH   5   6
ATOM      6  C   UNL A   1      42.046 -15.841 -38.195  0.00  0.00    +0.020 C 
BRANCH   6   9
ATOM      7  C   UNL A   1      43.612 -15.802 -40.100  0.00  0.00    +0.246 C 
ATOM      8  O   UNL A   1      42.755 -16.168 -40.900  0.00  0.00    -0.270 OA
ATOM      9  N   UNL A   1      43.356 -15.570 -38.763  0.00  0.00    -0.311 N 
ATOM     10  H   UNL A   1      44.071 -15.217 -38.187  0.00  0.00    +0.000 HD
BRANCH   7  16
ATOM     11  C   UNL A   1      45.870 -16.752 -40.648  0.00  0.00    +0.044 A 
ATOM     12  C   UNL A   1      47.193 -16.543 -41.067  0.00  0.00    -0.040 A 
ATOM     13  C   UNL A   1      47.661 -15.264 -41.379  0.00  0.00    -0.060 A 
ATOM     14  C   UNL A   1      46.811 -14.166 -41.281  0.00  0.00    -0.061 A 
ATOM     15  C   UNL A   1      45.492 -14.344 -40.866  0.00  0.00    -0.048 A 
ATOM     16  C   UNL A   1      45.023 -15.629 -40.542  0.00  0.00    +0.058 A 
BRANCH  11  17
ATOM     17  N   UNL A   1      45.419 -18.047 -40.307  0.00  0.00    -0.314 N 
ATOM     18  H   UNL A   1      45.178 -18.159 -39.359  0.00  0.00    +0.000 HD
BRANCH  17  24
ATOM     19  C   UNL A   1      46.481 -22.858 -41.201  0.00  0.00    -0.039 C 
ATOM     20  C   UNL A   1      45.770 -21.571 -41.524  0.00  0.00    -0.046 A 
ATOM     21  C   UNL A   1      44.931 -21.537 -42.647  0.00  0.00    -0.058 A 
ATOM     22  C   UNL A   1      44.258 -20.371 -42.992  0.00  0.00    -0.060 A 
ATOM     23  C   UNL A   1      44.421 -19.221 -42.224  0.00  0.00    -0.040 A 
ATOM     24  C   UNL A   1      45.255 -19.211 -41.096  0.00  0.00    +0.035 A 
ATOM     25  C   UNL A   1      45.909 -20.413 -40.720  0.00  0.00    -0.026 A 
ATOM     26  C   UNL A   1      46.794 -20.434 -39.495  0.00  0.00    -0.038 C 
ENDBRANCH  17  24
ENDBRANCH  11  17
ENDBRANCH   7  16
ENDBRANCH   6   9
ENDBRANCH   5   6
ENDBRANCH   1   5
BRANCH   3  27
ATOM     27  C   UNL A   1      45.288 -17.877 -35.191  0.00  0.00    +0.013 C 
BRANCH  27  28
ATOM     28  C   UNL A   1      45.112 -19.356 -34.853  0.00  0.00    -0.022 C 
BRANCH  28  29
ATOM     29  C   UNL A   1      43.725 -19.672 -34.288  0.00  0.00    +0.011 C 
BRANCH  29  30
ATOM     30  N   UNL A   1      43.224 -20.986 -34.734  0.00  0.00    -0.343 N 
ATOM     31  H   UNL A   1      43.732 -21.815 -34.582  0.00  0.00    +0.000 HD
BRANCH  30  32
ATOM     32  C   UNL A   1      41.967 -20.986 -35.394  0.00  0.00    +0.041 A 
ATOM     33  C   UNL A   1      41.909 -21.054 -36.804  0.00  0.00    -0.005 A 
ATOM     34  C   UNL A   1      40.647 -21.129 -37.400  0.00  0.00    +0.047 A 
ATOM     35  N   UNL A   1      39.494 -21.185 -36.695  0.00  0.00    -0.251 NA
ATOM     36  C   UNL A   1      39.544 -21.098 -35.360  0.00  0.00    +0.073 A 
ATOM     37  C   UNL A   1      38.342 -21.116 -34.663  0.00  0.00    -0.036 A 
ATOM     38  C   UNL A   1      38.289 -20.991 -33.275  0.00  0.00    -0.060 A 
ATOM     39  C   UNL A   1      39.465 -20.830 -32.560  0.00  0.00    -0.061 A 
ATOM     40  C   UNL A   1      40.682 -20.813 -33.240  0.00  0.00    -0.051 A 
ATOM     41  C   UNL A   1      40.752 -20.977 -34.647  0.00  0.00    +0.021 A 
ATOM     42  C   UNL A   1      40.476 -21.214 -38.896  0.00  0.00    -0.010 C 
ATOM     43  C   UNL A   1      41.681 -20.698 -39.669  0.00  0.00    -0.047 C 
ATOM     44  C   UNL A   1      42.946 -21.343 -39.126  0.00  0.00    -0.049 C 
ATOM     45  C   UNL A   1      43.153 -20.968 -37.660  0.00  0.00    -0.024 C 
ENDBRANCH  30  32
ENDBRANCH  29  30
ENDBRANCH  28  29
ENDBRANCH  27  28
ENDBRANCH   3  27
TORSDOF 11
ENDMDL
MODEL 17
REMARK VINA RESULT:    -7.244      2.738      7.628
REMARK INTER + INTRA:         -15.257
REMARK INTER:                  -9.656
REMARK INTRA:                  -5.601
REMARK UNBOUND:                -3.355
REMARK  Name = cpd180.pdb
REMARK  13 active torsions:
REMARK  status: ('A' for Active; 'I' for Inactive)
REMARK    1  A    between atoms: C_1  and  C_2
REMARK    2  A    between atoms: C_6  and  N_7
REMARK    3  A    between atoms: N_7  and  C_8
REMARK    4  A    between atoms: C_13  and  C_14
REMARK    5  A    between atoms: N_16  and  C_17
REMARK    6  A    between atoms: C_17  and  C_18
REMARK    7  A    between atoms: C_18  and  C_19
REMARK    8  A    between atoms: N_21  and  C_22
REMARK    9  A    between atoms: C_22  and  C_23
REMARK   10  A    between atoms: C_23  and  C_24
REMARK   11  A    between atoms: C_24  and  N_25
REMARK   12  A    between atoms: N_25  and  C_26
REMARK   13  A    between atoms: C_40  and  C_41
REMARK                            x       y       z     vdW  Elec       q    Type
REMARK                         _______ _______ _______ _____ _____    ______ ____
ROOT
ATOM      1  C   UNL A   1      42.876 -13.855 -39.560  0.00  0.00    +0.215 C 
ATOM      2  O   UNL A   1      42.998 -13.093 -38.608  0.00  0.00    -0.276 OA
ATOM      3  N   UNL A   1      41.665 -14.384 -39.955  0.00  0.00    -0.315 N 
ATOM      4  H   UNL A   1      41.631 -14.927 -40.776  0.00  0.00    +0.000 HD
ENDROOT
BRANCH   1   5
ATOM      5  C   UNL A   1      44.027 -14.299 -40.435  0.00  0.00    +0.039 C 
BRANCH   5   6
ATOM      6  C   UNL A   1      45.262 -14.614 -39.603  0.00  0.00    +0.020 C 
BRANCH   6   9
ATOM      7  C   UNL A   1      46.103 -16.405 -38.132  0.00  0.00    +0.246 C 
ATOM      8  O   UNL A   1      47.275 -16.070 -38.278  0.00  0.00    -0.270 OA
ATOM      9  N   UNL A   1      45.040 -15.732 -38.701  0.00  0.00    -0.311 N 
ATOM     10  H   UNL A   1      44.120 -16.013 -38.494  0.00  0.00    +0.000 HD
BRANCH   7  16
ATOM     11  C   UNL A   1      45.954 -18.901 -37.906  0.00  0.00    +0.044 A 
ATOM     12  C   UNL A   1      45.622 -20.020 -37.127  0.00  0.00    -0.040 A 
ATOM     13  C   UNL A   1      45.127 -19.879 -35.828  0.00  0.00    -0.060 A 
ATOM     14  C   UNL A   1      44.958 -18.611 -35.279  0.00  0.00    -0.061 A 
ATOM     15  C   UNL A   1      45.278 -17.481 -36.031  0.00  0.00    -0.048 A 
ATOM     16  C   UNL A   1      45.766 -17.621 -37.342  0.00  0.00    +0.058 A 
BRANCH  11  17
ATOM     17  N   UNL A   1      46.425 -19.058 -39.229  0.00  0.00    -0.314 N 
ATOM     18  H   UNL A   1      47.400 -18.965 -39.329  0.00  0.00    +0.000 HD
BRANCH  17  24
ATOM     19  C   UNL A   1      45.212 -22.227 -42.912  0.00  0.00    -0.039 C 
ATOM     20  C   UNL A   1      45.133 -20.886 -42.231  0.00  0.00    -0.046 A 
ATOM     21  C   UNL A   1      44.355 -19.882 -42.824  0.00  0.00    -0.058 A 
ATOM     22  C   UNL A   1      44.256 -18.625 -42.240  0.00  0.00    -0.060 A 
ATOM     23  C   UNL A   1      44.941 -18.353 -41.058  0.00  0.00    -0.040 A 
ATOM     24  C   UNL A   1      45.734 -19.327 -40.434  0.00  0.00    +0.035 A 
ATOM     25  C   UNL A   1      45.801 -20.623 -41.010  0.00  0.00    -0.026 A 
ATOM     26  C   UNL A   1      46.630 -21.698 -40.344  0.00  0.00    -0.038 C 
ENDBRANCH  17  24
ENDBRANCH  11  17
ENDBRANCH   7  16
ENDBRANCH   6   9
ENDBRANCH   5   6
ENDBRANCH   1   5
BRANCH   3  27
ATOM     27  C   UNL A   1      40.441 -14.171 -39.208  0.00  0.00    +0.013 C 
BRANCH  27  28
ATOM     28  C   UNL A   1      40.220 -15.200 -38.101  0.00  0.00    -0.022 C 
BRANCH  28  29
ATOM     29  C   UNL A   1      40.635 -16.613 -38.516  0.00  0.00    +0.011 C 
BRANCH  29  30
ATOM     30  N   UNL A   1      41.865 -17.059 -37.833  0.00  0.00    -0.343 N 
ATOM     31  H   UNL A   1      42.696 -16.532 -37.862  0.00  0.00    +0.000 HD
BRANCH  30  32
ATOM     32  C   UNL A   1      41.782 -18.292 -37.135  0.00  0.00    +0.041 A 
ATOM     33  C   UNL A   1      41.538 -18.301 -35.743  0.00  0.00    -0.005 A 
ATOM     34  C   UNL A   1      41.389 -19.541 -35.116  0.00  0.00    +0.047 A 
ATOM     35  N   UNL A   1      41.420 -20.718 -35.782  0.00  0.00    -0.251 NA
ATOM     36  C   UNL A   1      41.673 -20.715 -37.097  0.00  0.00    +0.073 A 
ATOM     37  C   UNL A   1      41.741 -21.940 -37.748  0.00  0.00    -0.036 A 
ATOM     38  C   UNL A   1      42.037 -22.041 -39.107  0.00  0.00    -0.060 A 
ATOM     39  C   UNL A   1      42.288 -20.891 -39.838  0.00  0.00    -0.061 A 
ATOM     40  C   UNL A   1      42.221 -19.650 -39.204  0.00  0.00    -0.051 A 
ATOM     41  C   UNL A   1      41.883 -19.532 -37.831  0.00  0.00    +0.021 A 
ATOM     42  C   UNL A   1      41.118 -19.660 -33.638  0.00  0.00    -0.010 C 
ATOM     43  C   UNL A   1      41.535 -18.427 -32.850  0.00  0.00    -0.047 C 
ATOM     44  C   UNL A   1      40.964 -17.184 -33.512  0.00  0.00    -0.049 C 
ATOM     45  C   UNL A   1      41.519 -17.027 -34.927  0.00  0.00    -0.024 C 
ENDBRANCH  30  32
ENDBRANCH  29  30
ENDBRANCH  28  29
ENDBRANCH  27  28
ENDBRANCH   3  27
TORSDOF 11
ENDMDL
MODEL 18
REMARK VINA RESULT:    -7.217      2.122      6.204
REMARK INTER + INTRA:         -15.214
REMARK INTER:                 -10.395
REMARK INTRA:                  -4.819
REMARK UNBOUND:                -3.355
REMARK  Name = cpd180.pdb
REMARK  13 active torsions:
REMARK  status: ('A' for Active; 'I' for Inactive)
REMARK    1  A    between atoms: C_1  and  C_2
REMARK    2  A    between atoms: C_6  and  N_7
REMARK    3  A    between atoms: N_7  and  C_8
REMARK    4  A    between atoms: C_13  and  C_14
REMARK    5  A    between atoms: N_16  and  C_17
REMARK    6  A    between atoms: C_17  and  C_18
REMARK    7  A    between atoms: C_18  and  C_19
REMARK    8  A    between atoms: N_21  and  C_22
REMARK    9  A    between atoms: C_22  and  C_23
REMARK   10  A    between atoms: C_23  and  C_24
REMARK   11  A    between atoms: C_24  and  N_25
REMARK   12  A    between atoms: N_25  and  C_26
REMARK   13  A    between atoms: C_40  and  C_41
REMARK                            x       y       z     vdW  Elec       q    Type
REMARK                         _______ _______ _______ _____ _____    ______ ____
ROOT
ATOM      1  C   UNL A   1      39.605 -22.051 -35.651  0.00  0.00    +0.215 C 
ATOM      2  O   UNL A   1      38.684 -21.243 -35.673  0.00  0.00    -0.276 OA
ATOM      3  N   UNL A   1      40.363 -22.366 -36.760  0.00  0.00    -0.315 N 
ATOM      4  H   UNL A   1      41.136 -22.966 -36.650  0.00  0.00    +0.000 HD
ENDROOT
BRANCH   1   5
ATOM      5  C   UNL A   1      40.043 -22.792 -34.408  0.00  0.00    +0.039 C 
BRANCH   5   6
ATOM      6  C   UNL A   1      40.751 -21.862 -33.432  0.00  0.00    +0.020 C 
BRANCH   6   9
ATOM      7  C   UNL A   1      41.011 -19.425 -33.164  0.00  0.00    +0.246 C 
ATOM      8  O   UNL A   1      41.005 -19.490 -31.938  0.00  0.00    -0.270 OA
ATOM      9  N   UNL A   1      40.936 -20.531 -33.987  0.00  0.00    -0.311 N 
ATOM     10  H   UNL A   1      41.009 -20.417 -34.961  0.00  0.00    +0.000 HD
BRANCH   7  16
ATOM     11  C   UNL A   1      42.298 -17.489 -34.112  0.00  0.00    +0.044 A 
ATOM     12  C   UNL A   1      42.293 -16.240 -34.753  0.00  0.00    -0.040 A 
ATOM     13  C   UNL A   1      41.097 -15.620 -35.124  0.00  0.00    -0.060 A 
ATOM     14  C   UNL A   1      39.878 -16.240 -34.863  0.00  0.00    -0.061 A 
ATOM     15  C   UNL A   1      39.853 -17.480 -34.226  0.00  0.00    -0.048 A 
ATOM     16  C   UNL A   1      41.055 -18.101 -33.843  0.00  0.00    +0.058 A 
BRANCH  11  17
ATOM     17  N   UNL A   1      43.513 -18.091 -33.716  0.00  0.00    -0.314 N 
ATOM     18  H   UNL A   1      43.697 -18.042 -32.750  0.00  0.00    +0.000 HD
BRANCH  17  24
ATOM     19  C   UNL A   1      48.301 -18.538 -35.112  0.00  0.00    -0.039 C 
ATOM     20  C   UNL A   1      46.860 -18.974 -35.144  0.00  0.00    -0.046 A 
ATOM     21  C   UNL A   1      46.510 -20.062 -35.957  0.00  0.00    -0.058 A 
ATOM     22  C   UNL A   1      45.193 -20.497 -36.027  0.00  0.00    -0.060 A 
ATOM     23  C   UNL A   1      44.205 -19.846 -35.292  0.00  0.00    -0.040 A 
ATOM     24  C   UNL A   1      44.511 -18.751 -34.471  0.00  0.00    +0.035 A 
ATOM     25  C   UNL A   1      45.864 -18.333 -34.368  0.00  0.00    -0.026 A 
ATOM     26  C   UNL A   1      46.223 -17.170 -33.470  0.00  0.00    -0.038 C 
ENDBRANCH  17  24
ENDBRANCH  11  17
ENDBRANCH   7  16
ENDBRANCH   6   9
ENDBRANCH   5   6
ENDBRANCH   1   5
BRANCH   3  27
ATOM     27  C   UNL A   1      40.064 -21.848 -38.080  0.00  0.00    +0.013 C 
BRANCH  27  28
ATOM     28  C   UNL A   1      41.310 -21.578 -38.922  0.00  0.00    -0.022 C 
BRANCH  28  29
ATOM     29  C   UNL A   1      42.048 -20.308 -38.496  0.00  0.00    +0.011 C 
BRANCH  29  30
ATOM     30  N   UNL A   1      42.574 -19.551 -39.647  0.00  0.00    -0.343 N 
ATOM     31  H   UNL A   1      41.980 -19.169 -40.334  0.00  0.00    +0.000 HD
BRANCH  30  32
ATOM     32  C   UNL A   1      43.984 -19.405 -39.710  0.00  0.00    +0.041 A 
ATOM     33  C   UNL A   1      44.745 -20.243 -40.557  0.00  0.00    -0.005 A 
ATOM     34  C   UNL A   1      46.120 -20.009 -40.641  0.00  0.00    +0.047 A 
ATOM     35  N   UNL A   1      46.742 -18.998 -39.991  0.00  0.00    -0.251 NA
ATOM     36  C   UNL A   1      46.029 -18.217 -39.171  0.00  0.00    +0.073 A 
ATOM     37  C   UNL A   1      46.701 -17.213 -38.484  0.00  0.00    -0.036 A 
ATOM     38  C   UNL A   1      46.052 -16.374 -37.578  0.00  0.00    -0.060 A 
ATOM     39  C   UNL A   1      44.699 -16.547 -37.337  0.00  0.00    -0.061 A 
ATOM     40  C   UNL A   1      44.005 -17.546 -38.019  0.00  0.00    -0.051 A 
ATOM     41  C   UNL A   1      44.645 -18.381 -38.971  0.00  0.00    +0.021 A 
ATOM     42  C   UNL A   1      47.019 -20.839 -41.521  0.00  0.00    -0.010 C 
ATOM     43  C   UNL A   1      46.431 -22.202 -41.864  0.00  0.00    -0.047 C 
ATOM     44  C   UNL A   1      45.010 -22.027 -42.373  0.00  0.00    -0.049 C 
ATOM     45  C   UNL A   1      44.124 -21.410 -41.292  0.00  0.00    -0.024 C 
ENDBRANCH  30  32
ENDBRANCH  29  30
ENDBRANCH  28  29
ENDBRANCH  27  28
ENDBRANCH   3  27
TORSDOF 11
ENDMDL
MODEL 19
REMARK VINA RESULT:    -7.113      2.143      7.595
REMARK INTER + INTRA:         -15.042
REMARK INTER:                 -10.965
REMARK INTRA:                  -4.077
REMARK UNBOUND:                -3.355
REMARK  Name = cpd180.pdb
REMARK  13 active torsions:
REMARK  status: ('A' for Active; 'I' for Inactive)
REMARK    1  A    between atoms: C_1  and  C_2
REMARK    2  A    between atoms: C_6  and  N_7
REMARK    3  A    between atoms: N_7  and  C_8
REMARK    4  A    between atoms: C_13  and  C_14
REMARK    5  A    between atoms: N_16  and  C_17
REMARK    6  A    between atoms: C_17  and  C_18
REMARK    7  A    between atoms: C_18  and  C_19
REMARK    8  A    between atoms: N_21  and  C_22
REMARK    9  A    between atoms: C_22  and  C_23
REMARK   10  A    between atoms: C_23  and  C_24
REMARK   11  A    between atoms: C_24  and  N_25
REMARK   12  A    between atoms: N_25  and  C_26
REMARK   13  A    between atoms: C_40  and  C_41
REMARK                            x       y       z     vdW  Elec       q    Type
REMARK                         _______ _______ _______ _____ _____    ______ ____
ROOT
ATOM      1  C   UNL A   1      41.481 -16.608 -34.314  0.00  0.00    +0.215 C 
ATOM      2  O   UNL A   1      41.508 -15.836 -33.362  0.00  0.00    -0.276 OA
ATOM      3  N   UNL A   1      42.350 -17.671 -34.449  0.00  0.00    -0.315 N 
ATOM      4  H   UNL A   1      42.220 -18.295 -35.199  0.00  0.00    +0.000 HD
ENDROOT
BRANCH   1   5
ATOM      5  C   UNL A   1      40.487 -16.511 -35.448  0.00  0.00    +0.039 C 
BRANCH   5   6
ATOM      6  C   UNL A   1      40.714 -17.609 -36.476  0.00  0.00    +0.020 C 
BRANCH   6   9
ATOM      7  C   UNL A   1      42.388 -16.892 -38.139  0.00  0.00    +0.246 C 
ATOM      8  O   UNL A   1      43.334 -17.239 -37.438  0.00  0.00    -0.270 OA
ATOM      9  N   UNL A   1      41.066 -17.070 -37.779  0.00  0.00    -0.311 N 
ATOM     10  H   UNL A   1      40.354 -16.829 -38.413  0.00  0.00    +0.000 HD
BRANCH   7  16
ATOM     11  C   UNL A   1      43.610 -16.692 -40.322  0.00  0.00    +0.044 A 
ATOM     12  C   UNL A   1      43.807 -16.008 -41.533  0.00  0.00    -0.040 A 
ATOM     13  C   UNL A   1      43.052 -14.879 -41.858  0.00  0.00    -0.060 A 
ATOM     14  C   UNL A   1      42.079 -14.411 -40.979  0.00  0.00    -0.061 A 
ATOM     15  C   UNL A   1      41.864 -15.070 -39.769  0.00  0.00    -0.048 A 
ATOM     16  C   UNL A   1      42.630 -16.200 -39.435  0.00  0.00    +0.058 A 
BRANCH  11  17
ATOM     17  N   UNL A   1      44.402 -17.815 -39.993  0.00  0.00    -0.314 N 
ATOM     18  H   UNL A   1      44.845 -17.760 -39.115  0.00  0.00    +0.000 HD
BRANCH  17  24
ATOM     19  C   UNL A   1      46.588 -22.312 -40.263  0.00  0.00    -0.039 C 
ATOM     20  C   UNL A   1      45.732 -21.213 -40.834  0.00  0.00    -0.046 A 
ATOM     21  C   UNL A   1      45.196 -21.385 -42.119  0.00  0.00    -0.058 A 
ATOM     22  C   UNL A   1      44.406 -20.396 -42.694  0.00  0.00    -0.060 A 
ATOM     23  C   UNL A   1      44.148 -19.219 -41.995  0.00  0.00    -0.040 A 
ATOM     24  C   UNL A   1      44.668 -19.006 -40.710  0.00  0.00    +0.035 A 
ATOM     25  C   UNL A   1      45.441 -20.033 -40.107  0.00  0.00    -0.026 A 
ATOM     26  C   UNL A   1      45.993 -19.836 -38.714  0.00  0.00    -0.038 C 
ENDBRANCH  17  24
ENDBRANCH  11  17
ENDBRANCH   7  16
ENDBRANCH   6   9
ENDBRANCH   5   6
ENDBRANCH   1   5
BRANCH   3  27
ATOM     27  C   UNL A   1      43.446 -17.903 -33.529  0.00  0.00    +0.013 C 
BRANCH  27  28
ATOM     28  C   UNL A   1      44.190 -19.212 -33.791  0.00  0.00    -0.022 C 
BRANCH  28  29
ATOM     29  C   UNL A   1      43.898 -19.790 -35.177  0.00  0.00    +0.011 C 
BRANCH  29  30
ATOM     30  N   UNL A   1      43.144 -21.057 -35.109  0.00  0.00    -0.343 N 
ATOM     31  H   UNL A   1      43.543 -21.881 -34.746  0.00  0.00    +0.000 HD
BRANCH  30  32
ATOM     32  C   UNL A   1      41.812 -21.021 -35.598  0.00  0.00    +0.041 A 
ATOM     33  C   UNL A   1      41.563 -21.156 -36.983  0.00  0.00    -0.005 A 
ATOM     34  C   UNL A   1      40.231 -21.190 -37.404  0.00  0.00    +0.047 A 
ATOM     35  N   UNL A   1      39.181 -21.148 -36.552  0.00  0.00    -0.251 NA
ATOM     36  C   UNL A   1      39.413 -20.997 -35.243  0.00  0.00    +0.073 A 
ATOM     37  C   UNL A   1      38.315 -20.914 -34.395  0.00  0.00    -0.036 A 
ATOM     38  C   UNL A   1      38.454 -20.717 -33.021  0.00  0.00    -0.060 A 
ATOM     39  C   UNL A   1      39.721 -20.585 -32.475  0.00  0.00    -0.061 A 
ATOM     40  C   UNL A   1      40.836 -20.670 -33.309  0.00  0.00    -0.051 A 
ATOM     41  C   UNL A   1      40.710 -20.907 -34.702  0.00  0.00    +0.021 A 
ATOM     42  C   UNL A   1      39.858 -21.341 -38.857  0.00  0.00    -0.010 C 
ATOM     43  C   UNL A   1      40.973 -20.931 -39.809  0.00  0.00    -0.047 C 
ATOM     44  C   UNL A   1      42.266 -21.617 -39.400  0.00  0.00    -0.049 C 
ATOM     45  C   UNL A   1      42.684 -21.181 -37.997  0.00  0.00    -0.024 C 
ENDBRANCH  30  32
ENDBRANCH  29  30
ENDBRANCH  28  29
ENDBRANCH  27  28
ENDBRANCH   3  27
TORSDOF 11
ENDMDL
MODEL 20
REMARK VINA RESULT:    -7.044      2.152      7.367
REMARK INTER + INTRA:         -14.929
REMARK INTER:                 -10.565
REMARK INTRA:                  -4.364
REMARK UNBOUND:                -3.355
REMARK  Name = cpd180.pdb
REMARK  13 active torsions:
REMARK  status: ('A' for Active; 'I' for Inactive)
REMARK    1  A    between atoms: C_1  and  C_2
REMARK    2  A    between atoms: C_6  and  N_7
REMARK    3  A    between atoms: N_7  and  C_8
REMARK    4  A    between atoms: C_13  and  C_14
REMARK    5  A    between atoms: N_16  and  C_17
REMARK    6  A    between atoms: C_17  and  C_18
REMARK    7  A    between atoms: C_18  and  C_19
REMARK    8  A    between atoms: N_21  and  C_22
REMARK    9  A    between atoms: C_22  and  C_23
REMARK   10  A    between atoms: C_23  and  C_24
REMARK   11  A    between atoms: C_24  and  N_25
REMARK   12  A    between atoms: N_25  and  C_26
REMARK   13  A    between atoms: C_40  and  C_41
REMARK                            x       y       z     vdW  Elec       q    Type
REMARK                         _______ _______ _______ _____ _____    ______ ____
ROOT
ATOM      1  C   UNL A   1      41.463 -16.540 -34.397  0.00  0.00    +0.215 C 
ATOM      2  O   UNL A   1      41.501 -15.777 -33.438  0.00  0.00    -0.276 OA
ATOM      3  N   UNL A   1      42.342 -17.590 -34.563  0.00  0.00    -0.315 N 
ATOM      4  H   UNL A   1      42.204 -18.207 -35.317  0.00  0.00    +0.000 HD
ENDROOT
BRANCH   1   5
ATOM      5  C   UNL A   1      40.445 -16.441 -35.510  0.00  0.00    +0.039 C 
BRANCH   5   6
ATOM      6  C   UNL A   1      40.674 -17.515 -36.563  0.00  0.00    +0.020 C 
BRANCH   6   9
ATOM      7  C   UNL A   1      42.339 -16.702 -38.190  0.00  0.00    +0.246 C 
ATOM      8  O   UNL A   1      43.289 -17.013 -37.477  0.00  0.00    -0.270 OA
ATOM      9  N   UNL A   1      41.022 -16.946 -37.854  0.00  0.00    -0.311 N 
ATOM     10  H   UNL A   1      40.309 -16.730 -38.498  0.00  0.00    +0.000 HD
BRANCH   7  16
ATOM     11  C   UNL A   1      43.629 -16.379 -40.319  0.00  0.00    +0.044 A 
ATOM     12  C   UNL A   1      43.812 -15.674 -41.519  0.00  0.00    -0.040 A 
ATOM     13  C   UNL A   1      42.968 -14.619 -41.877  0.00  0.00    -0.060 A 
ATOM     14  C   UNL A   1      41.919 -14.249 -41.039  0.00  0.00    -0.061 A 
ATOM     15  C   UNL A   1      41.716 -14.930 -39.840  0.00  0.00    -0.048 A 
ATOM     16  C   UNL A   1      42.570 -15.985 -39.474  0.00  0.00    +0.058 A 
BRANCH  11  17
ATOM     17  N   UNL A   1      44.508 -17.424 -39.957  0.00  0.00    -0.314 N 
ATOM     18  H   UNL A   1      45.037 -17.250 -39.145  0.00  0.00    +0.000 HD
BRANCH  17  24
ATOM     19  C   UNL A   1      46.687 -21.931 -39.842  0.00  0.00    -0.039 C 
ATOM     20  C   UNL A   1      45.819 -20.890 -40.498  0.00  0.00    -0.046 A 
ATOM     21  C   UNL A   1      45.256 -21.182 -41.748  0.00  0.00    -0.058 A 
ATOM     22  C   UNL A   1      44.454 -20.251 -42.398  0.00  0.00    -0.060 A 
ATOM     23  C   UNL A   1      44.211 -19.012 -41.810  0.00  0.00    -0.040 A 
ATOM     24  C   UNL A   1      44.759 -18.678 -40.562  0.00  0.00    +0.035 A 
ATOM     25  C   UNL A   1      45.543 -19.645 -39.881  0.00  0.00    -0.026 A 
ATOM     26  C   UNL A   1      46.125 -19.317 -38.524  0.00  0.00    -0.038 C 
ENDBRANCH  17  24
ENDBRANCH  11  17
ENDBRANCH   7  16
ENDBRANCH   6   9
ENDBRANCH   5   6
ENDBRANCH   1   5
BRANCH   3  27
ATOM     27  C   UNL A   1      43.460 -17.820 -33.668  0.00  0.00    +0.013 C 
BRANCH  27  28
ATOM     28  C   UNL A   1      44.246 -19.088 -33.995  0.00  0.00    -0.022 C 
BRANCH  28  29
ATOM     29  C   UNL A   1      43.934 -19.635 -35.389  0.00  0.00    +0.011 C 
BRANCH  29  30
ATOM     30  N   UNL A   1      43.283 -20.958 -35.340  0.00  0.00    -0.343 N 
ATOM     31  H   UNL A   1      43.759 -21.760 -35.024  0.00  0.00    +0.000 HD
BRANCH  30  32
ATOM     32  C   UNL A   1      41.934 -21.009 -35.777  0.00  0.00    +0.041 A 
ATOM     33  C   UNL A   1      40.883 -20.928 -34.836  0.00  0.00    -0.005 A 
ATOM     34  C   UNL A   1      39.573 -20.906 -35.323  0.00  0.00    +0.047 A 
ATOM     35  N   UNL A   1      39.271 -20.911 -36.642  0.00  0.00    -0.251 NA
ATOM     36  C   UNL A   1      40.263 -21.010 -37.535  0.00  0.00    +0.073 A 
ATOM     37  C   UNL A   1      39.922 -21.055 -38.881  0.00  0.00    -0.036 A 
ATOM     38  C   UNL A   1      40.881 -21.197 -39.884  0.00  0.00    -0.060 A 
ATOM     39  C   UNL A   1      42.218 -21.312 -39.538  0.00  0.00    -0.061 A 
ATOM     40  C   UNL A   1      42.582 -21.265 -38.192  0.00  0.00    -0.051 A 
ATOM     41  C   UNL A   1      41.620 -21.083 -37.166  0.00  0.00    +0.021 A 
ATOM     42  C   UNL A   1      38.381 -20.812 -34.405  0.00  0.00    -0.010 C 
ATOM     43  C   UNL A   1      38.683 -21.264 -32.982  0.00  0.00    -0.047 C 
ATOM     44  C   UNL A   1      39.938 -20.567 -32.484  0.00  0.00    -0.049 C 
ATOM     45  C   UNL A   1      41.141 -20.948 -33.346  0.00  0.00    -0.024 C 
ENDBRANCH  30  32
ENDBRANCH  29  30
ENDBRANCH  28  29
ENDBRANCH  27  28
ENDBRANCH   3  27
TORSDOF 11
ENDMDL
