REMARK  Name = cpd180.pdb
REMARK  13 active torsions:
REMARK  status: ('A' for Active; 'I' for Inactive)
REMARK    1  A    between atoms: C_1  and  C_2
REMARK    2  A    between atoms: C_6  and  N_7
REMARK    3  A    between atoms: N_7  and  C_8
REMARK    4  A    between atoms: C_13  and  C_14
REMARK    5  A    between atoms: N_16  and  C_17
REMARK    6  A    between atoms: C_17  and  C_18
REMARK    7  A    between atoms: C_18  and  C_19
REMARK    8  A    between atoms: N_21  and  C_22
REMARK    9  A    between atoms: C_22  and  C_23
REMARK   10  A    between atoms: C_23  and  C_24
REMARK   11  A    between atoms: C_24  and  N_25
REMARK   12  A    between atoms: N_25  and  C_26
REMARK   13  A    between atoms: C_40  and  C_41
REMARK                            x       y       z     vdW  Elec       q    Type
REMARK                         _______ _______ _______ _____ _____    ______ ____
ROOT
ATOM      1  C   UNL A   1       6.415   2.614   0.477  0.00  0.00    +0.215 C 
ATOM      2  O   UNL A   1       6.685   1.667  -0.253  0.00  0.00    -0.276 OA
ATOM      3  N   UNL A   1       7.286   3.111   1.424  0.00  0.00    -0.315 N 
ATOM      4  H   UNL A   1       7.032   3.922   1.921  0.00  0.00    +0.000 HD
ENDROOT
BRANCH   1   5
ATOM      5  C   UNL A   1       5.107   3.370   0.424  0.00  0.00    +0.039 C 
BRANCH   5   6
ATOM      6  C   UNL A   1       4.202   2.830  -0.674  0.00  0.00    +0.020 C 
BRANCH   6   9
ATOM      7  C   UNL A   1       1.921   3.271   0.153  0.00  0.00    +0.246 C 
ATOM      8  O   UNL A   1       2.033   2.482   1.087  0.00  0.00    -0.270 OA
ATOM      9  N   UNL A   1       2.939   3.546  -0.739  0.00  0.00    -0.311 N 
ATOM     10  H   UNL A   1       2.807   4.236  -1.428  0.00  0.00    +0.000 HD
BRANCH   7  16
ATOM     11  C   UNL A   1      -0.589   3.272   0.127  0.00  0.00    +0.044 A 
ATOM     12  C   UNL A   1      -1.789   3.957  -0.121  0.00  0.00    -0.040 A 
ATOM     13  C   UNL A   1      -1.789   5.282  -0.565  0.00  0.00    -0.060 A 
ATOM     14  C   UNL A   1      -0.585   5.951  -0.768  0.00  0.00    -0.061 A 
ATOM     15  C   UNL A   1       0.622   5.294  -0.532  0.00  0.00    -0.048 A 
ATOM     16  C   UNL A   1       0.624   3.958  -0.095  0.00  0.00    +0.058 A 
BRANCH  11  17
ATOM     17  N   UNL A   1      -0.604   1.923   0.547  0.00  0.00    -0.314 N 
ATOM     18  H   UNL A   1       0.005   1.721   1.294  0.00  0.00    +0.000 HD
BRANCH  17  24
ATOM     19  C   UNL A   1      -2.125  -2.816   1.098  0.00  0.00    -0.039 C 
ATOM     20  C   UNL A   1      -2.097  -1.506   0.356  0.00  0.00    -0.046 A 
ATOM     21  C   UNL A   1      -2.824  -1.400  -0.838  0.00  0.00    -0.058 A 
ATOM     22  C   UNL A   1      -2.824  -0.215  -1.564  0.00  0.00    -0.060 A 
ATOM     23  C   UNL A   1      -2.090   0.878  -1.110  0.00  0.00    -0.040 A 
ATOM     24  C   UNL A   1      -1.345   0.813   0.077  0.00  0.00    +0.035 A 
ATOM     25  C   UNL A   1      -1.379  -0.384   0.839  0.00  0.00    -0.026 A 
ATOM     26  C   UNL A   1      -0.604  -0.471   2.134  0.00  0.00    -0.038 C 
ENDBRANCH  17  24
ENDBRANCH  11  17
ENDBRANCH   7  16
ENDBRANCH   6   9
ENDBRANCH   5   6
ENDBRANCH   1   5
BRANCH   3  27
ATOM     27  C   UNL A   1       8.561   2.485   1.715  0.00  0.00    +0.013 C 
BRANCH  27  28
ATOM     28  C   UNL A   1       9.712   3.034   0.873  0.00  0.00    -0.022 C 
BRANCH  28  29
ATOM     29  C   UNL A   1       9.713   2.485  -0.555  0.00  0.00    +0.011 C 
BRANCH  29  30
ATOM     30  N   UNL A   1      10.895   2.921  -1.323  0.00  0.00    -0.343 N 
ATOM     31  H   UNL A   1      10.829   3.585  -2.047  0.00  0.00    +0.000 HD
BRANCH  30  32
ATOM     32  C   UNL A   1      12.132   2.328  -0.959  0.00  0.00    +0.041 A 
ATOM     33  C   UNL A   1      13.117   3.096  -0.298  0.00  0.00    -0.005 A 
ATOM     34  C   UNL A   1      14.286   2.446   0.107  0.00  0.00    +0.047 A 
ATOM     35  N   UNL A   1      14.495   1.120  -0.061  0.00  0.00    -0.251 NA
ATOM     36  C   UNL A   1      13.574   0.394  -0.706  0.00  0.00    +0.073 A 
ATOM     37  C   UNL A   1      13.833  -0.957  -0.902  0.00  0.00    -0.036 A 
ATOM     38  C   UNL A   1      12.953  -1.787  -1.597  0.00  0.00    -0.060 A 
ATOM     39  C   UNL A   1      11.788  -1.255  -2.125  0.00  0.00    -0.061 A 
ATOM     40  C   UNL A   1      11.507   0.098  -1.936  0.00  0.00    -0.051 A 
ATOM     41  C   UNL A   1      12.375   0.944  -1.199  0.00  0.00    +0.021 A 
ATOM     42  C   UNL A   1      15.394   3.172   0.827  0.00  0.00    -0.010 C 
ATOM     43  C   UNL A   1      15.369   4.678   0.604  0.00  0.00    -0.047 C 
ATOM     44  C   UNL A   1      13.970   5.207   0.872  0.00  0.00    -0.049 C 
ATOM     45  C   UNL A   1      12.967   4.588  -0.100  0.00  0.00    -0.024 C 
ENDBRANCH  30  32
ENDBRANCH  29  30
ENDBRANCH  28  29
ENDBRANCH  27  28
ENDBRANCH   3  27
TORSDOF 11
