@<TRIPOS>MOLECULE
*****
 41 45 0 0 0
SMALL
GASTEIGER

@<TRIPOS>ATOM
      1 C          -0.8660   -1.5000    0.0000 C.3     1  UNL1        0.0307
      2 C          -0.8660   -0.5000    0.0000 C.ar    1  UNL1       -0.0245
      3 C          -1.7321    0.0000    0.0000 C.ar    1  UNL1       -0.0045
      4 C          -1.7321    1.0000    0.0000 C.ar    1  UNL1        0.0010
      5 C          -0.8660    1.5000    0.0000 C.ar    1  UNL1        0.0162
      6 C           0.0000    1.0000    0.0000 C.ar    1  UNL1        0.0662
      7 N           0.8660    1.5000    0.0000 N.pl3   1  UNL1       -0.2127
      8 C           0.8660    2.5000    0.0000 C.ar    1  UNL1        0.0749
      9 C           0.0000    3.0000    0.0000 C.ar    1  UNL1        0.0167
     10 C           0.0000    4.0000    0.0000 C.ar    1  UNL1        0.0013
     11 C           0.8660    4.5000    0.0000 C.ar    1  UNL1        0.0002
     12 C           1.7321    4.0000    0.0000 C.ar    1  UNL1        0.0059
     13 C           1.7321    3.0000    0.0000 C.ar    1  UNL1        0.0702
     14 C           2.5981    2.5000    0.0000 C.2     1  UNL1        0.2661
     15 O           2.5981    1.5000    0.0000 O.2     1  UNL1       -0.2683
     16 N           3.4641    3.0000    0.0000 N.am    1  UNL1       -0.2011
     17 C           4.3301    2.5000    0.0000 C.3     1  UNL1        0.1251
     18 C           5.1962    3.0000    0.0000 C.3     1  UNL1        0.1102
     19 C           6.0622    2.5000    0.0000 C.2     1  UNL1        0.2432
     20 O           6.0622    1.5000    0.0000 O.2     1  UNL1       -0.2733
     21 N           6.9282    3.0000    0.0000 N.am    1  UNL1       -0.2053
     22 C           7.7942    2.5000    0.0000 C.3     1  UNL1        0.1170
     23 C           8.6603    3.0000    0.0000 C.3     1  UNL1        0.0467
     24 C           9.5263    2.5000    0.0000 C.3     1  UNL1        0.1140
     25 N          10.3923    3.0000    0.0000 N.pl3   1  UNL1       -0.2378
     26 C          11.2583    2.5000    0.0000 C.ar    1  UNL1        0.0638
     27 C          12.1244    3.0000    0.0000 C.ar    1  UNL1        0.0062
     28 C          12.9904    2.5000    0.0000 C.ar    1  UNL1        0.0562
     29 N          12.9904    1.5000    0.0000 N.ar    1  UNL1       -0.2499
     30 C          12.1244    1.0000    0.0000 C.ar    1  UNL1        0.0821
     31 C          12.1244   -0.0000    0.0000 C.ar    1  UNL1        0.0191
     32 C          11.2583   -0.5000    0.0000 C.ar    1  UNL1        0.0015
     33 C          10.3923   -0.0000    0.0000 C.ar    1  UNL1        0.0001
     34 C          10.3923    1.0000    0.0000 C.ar    1  UNL1        0.0028
     35 C          11.2583    1.5000    0.0000 C.ar    1  UNL1        0.0322
     36 C          13.8564    3.0000    0.0000 C.3     1  UNL1        0.0455
     37 C          13.8564    4.0000    0.0000 C.3     1  UNL1        0.0066
     38 C          12.9904    4.5000    0.0000 C.3     1  UNL1        0.0052
     39 C          12.1244    4.0000    0.0000 C.3     1  UNL1        0.0289
     40 C           0.0000    0.0000    0.0000 C.ar    1  UNL1       -0.0105
     41 C           0.8660   -0.5000    0.0000 C.3     1  UNL1        0.0321
@<TRIPOS>BOND
     1     1     2    1
     2     2     3   ar
     3     3     4   ar
     4     4     5   ar
     5     5     6   ar
     6     6     7    1
     7     7     8    1
     8     8     9   ar
     9     9    10   ar
    10    10    11   ar
    11    11    12   ar
    12    12    13   ar
    13     8    13   ar
    14    13    14    1
    15    14    15    2
    16    14    16   am
    17    16    17    1
    18    17    18    1
    19    18    19    1
    20    19    20    2
    21    19    21   am
    22    21    22    1
    23    22    23    1
    24    23    24    1
    25    24    25    1
    26    25    26    1
    27    26    27   ar
    28    27    28   ar
    29    28    29   ar
    30    29    30   ar
    31    30    31   ar
    32    31    32   ar
    33    32    33   ar
    34    33    34   ar
    35    34    35   ar
    36    26    35   ar
    37    30    35   ar
    38    28    36    1
    39    36    37    1
    40    37    38    1
    41    38    39    1
    42    27    39    1
    43     6    40   ar
    44     2    40   ar
    45    40    41    1
