REMARK  Name = cpd93.pdb
REMARK  6 active torsions:
REMARK  status: ('A' for Active; 'I' for Inactive)
REMARK    1  A    between atoms: C_1  and  N_2
REMARK    2  A    between atoms: C_3  and  O_5
REMARK    3  A    between atoms: O_5  and  C_6
REMARK    4  A    between atoms: C_12  and  C_13
REMARK    5  A    between atoms: N_16  and  C_17
REMARK    6  A    between atoms: N_19  and  C_20
REMARK                            x       y       z     vdW  Elec       q    Type
REMARK                         _______ _______ _______ _____ _____    ______ ____
ROOT
ATOM      1  C   UNL     1      -3.720  -1.677  -0.863  0.00  0.00    +0.134 A 
ATOM      2  C   UNL     1      -3.685  -0.464  -1.556  0.00  0.00    -0.017 A 
ATOM      3  C   UNL     1      -2.474   0.225  -1.674  0.00  0.00    -0.037 A 
ATOM      4  C   UNL     1      -1.326  -0.308  -1.101  0.00  0.00    +0.035 A 
ATOM      5  C   UNL     1      -1.388  -1.528  -0.438  0.00  0.00    -0.014 A 
ATOM      6  C   UNL     1      -2.573  -2.241  -0.314  0.00  0.00    -0.014 A 
ATOM      7  C   UNL     1       0.000  -1.892   0.000  0.00  0.00    +0.028 C 
ATOM      8  C   UNL     1      -0.009  -2.474   1.424  0.00  0.00    -0.052 C 
ATOM      9  C   UNL     1       0.688  -2.792  -1.010  0.00  0.00    -0.028 C 
ATOM     10  C   UNL     1       2.135  -2.500  -0.746  0.00  0.00    +0.001 C 
ATOM     11  N   UNL     1       2.202  -1.088  -0.378  0.00  0.00    -0.287 N 
ATOM     12  C   UNL     1       3.197  -0.859   0.669  0.00  0.00    -0.011 C 
ATOM     13  C   UNL     1       0.819  -0.473   0.000  0.00  0.00    +0.086 C 
ATOM     14  N   UNL     1      -0.023   0.174  -1.159  0.00  0.00    -0.316 N 
ATOM     15  C   UNL     1       0.218   1.550  -1.568  0.00  0.00    +0.002 C 
ATOM     16  H   UNL     1       2.502  -0.593  -1.218  0.00  0.00    +0.000 HD
ENDROOT
BRANCH   1  17
ATOM     17  O   UNL     1      -4.923  -2.404  -0.764  0.00  0.00    -0.412 OA
BRANCH  17  20
ATOM     18  C   UNL     1      -6.891  -0.319   1.566  0.00  0.00    +0.003 C 
ATOM     19  N   UNL     1      -5.839  -0.844   0.739  0.00  0.00    -0.284 N 
ATOM     20  C   UNL     1      -6.056  -1.915  -0.097  0.00  0.00    +0.405 C 
ATOM     21  O   UNL     1      -7.148  -2.455  -0.235  0.00  0.00    -0.226 OA
ATOM     22  H   UNL     1      -4.947  -0.430   0.771  0.00  0.00    +0.000 HD
ENDBRANCH  17  20
ENDBRANCH   1  17
TORSDOF 2
