MODEL 1
REMARK VINA RESULT:    -7.663      0.000      0.000
REMARK INTER + INTRA:          -8.808
REMARK INTER:                  -8.559
REMARK INTRA:                  -0.249
REMARK UNBOUND:                -0.249
REMARK  Name = cpd93.pdb
REMARK  6 active torsions:
REMARK  status: ('A' for Active; 'I' for Inactive)
REMARK    1  A    between atoms: C_1  and  N_2
REMARK    2  A    between atoms: C_3  and  O_5
REMARK    3  A    between atoms: O_5  and  C_6
REMARK    4  A    between atoms: C_12  and  C_13
REMARK    5  A    between atoms: N_16  and  C_17
REMARK    6  A    between atoms: N_19  and  C_20
REMARK                            x       y       z     vdW  Elec       q    Type
REMARK                         _______ _______ _______ _____ _____    ______ ____
ROOT
ATOM      1  C   UNL     1      40.149 -36.927 -30.282  0.00  0.00    +0.134 A 
ATOM      2  C   UNL     1      39.588 -36.006 -31.170  0.00  0.00    -0.017 A 
ATOM      3  C   UNL     1      38.197 -35.909 -31.271  0.00  0.00    -0.037 A 
ATOM      4  C   UNL     1      37.396 -36.730 -30.486  0.00  0.00    +0.035 A 
ATOM      5  C   UNL     1      37.984 -37.620 -29.595  0.00  0.00    -0.014 A 
ATOM      6  C   UNL     1      39.361 -37.731 -29.464  0.00  0.00    -0.014 A 
ATOM      7  C   UNL     1      36.890 -38.307 -28.832  0.00  0.00    +0.028 C 
ATOM      8  C   UNL     1      37.190 -39.807 -28.672  0.00  0.00    -0.052 C 
ATOM      9  C   UNL     1      36.603 -37.610 -27.515  0.00  0.00    -0.028 C 
ATOM     10  C   UNL     1      35.177 -37.998 -27.265  0.00  0.00    +0.001 C 
ATOM     11  N   UNL     1      34.541 -38.067 -28.579  0.00  0.00    -0.287 N 
ATOM     12  C   UNL     1      33.579 -39.166 -28.646  0.00  0.00    -0.011 C 
ATOM     13  C   UNL     1      35.555 -38.118 -29.763  0.00  0.00    +0.086 C 
ATOM     14  N   UNL     1      36.009 -36.747 -30.383  0.00  0.00    -0.316 N 
ATOM     15  C   UNL     1      35.203 -36.094 -31.404  0.00  0.00    +0.002 C 
ATOM     16  H   UNL     1      34.033 -37.190 -28.691  0.00  0.00    +0.000 HD
ENDROOT
BRANCH   1  17
ATOM     17  O   UNL     1      41.548 -37.015 -30.139  0.00  0.00    -0.412 OA
BRANCH  17  20
ATOM     18  C   UNL     1      43.823 -39.926 -30.170  0.00  0.00    +0.003 C 
ATOM     19  N   UNL     1      42.929 -38.880 -29.755  0.00  0.00    -0.284 N 
ATOM     20  C   UNL     1      42.304 -38.069 -30.674  0.00  0.00    +0.405 C 
ATOM     21  O   UNL     1      42.419 -38.207 -31.887  0.00  0.00    -0.226 OA
ATOM     22  H   UNL     1      42.760 -38.741 -28.795  0.00  0.00    +0.000 HD
ENDBRANCH  17  20
ENDBRANCH   1  17
TORSDOF 2
ENDMDL
MODEL 2
REMARK VINA RESULT:    -7.077      2.436      4.041
REMARK INTER + INTRA:          -8.154
REMARK INTER:                  -7.923
REMARK INTRA:                  -0.231
REMARK UNBOUND:                -0.249
REMARK  Name = cpd93.pdb
REMARK  6 active torsions:
REMARK  status: ('A' for Active; 'I' for Inactive)
REMARK    1  A    between atoms: C_1  and  N_2
REMARK    2  A    between atoms: C_3  and  O_5
REMARK    3  A    between atoms: O_5  and  C_6
REMARK    4  A    between atoms: C_12  and  C_13
REMARK    5  A    between atoms: N_16  and  C_17
REMARK    6  A    between atoms: N_19  and  C_20
REMARK                            x       y       z     vdW  Elec       q    Type
REMARK                         _______ _______ _______ _____ _____    ______ ____
ROOT
ATOM      1  C   UNL     1      38.403 -35.939 -31.332  0.00  0.00    +0.134 A 
ATOM      2  C   UNL     1      38.319 -36.917 -30.337  0.00  0.00    -0.017 A 
ATOM      3  C   UNL     1      37.201 -36.949 -29.499  0.00  0.00    -0.037 A 
ATOM      4  C   UNL     1      36.191 -36.010 -29.669  0.00  0.00    +0.035 A 
ATOM      5  C   UNL     1      36.292 -35.064 -30.683  0.00  0.00    -0.014 A 
ATOM      6  C   UNL     1      37.385 -35.014 -31.538  0.00  0.00    -0.014 A 
ATOM      7  C   UNL     1      35.035 -34.245 -30.683  0.00  0.00    +0.028 C 
ATOM      8  C   UNL     1      35.353 -32.754 -30.893  0.00  0.00    -0.052 C 
ATOM      9  C   UNL     1      34.015 -34.784 -31.668  0.00  0.00    -0.028 C 
ATOM     10  C   UNL     1      32.727 -34.297 -31.075  0.00  0.00    +0.001 C 
ATOM     11  N   UNL     1      32.911 -34.332 -29.626  0.00  0.00    -0.287 N 
ATOM     12  C   UNL     1      32.254 -33.196 -28.980  0.00  0.00    -0.011 C 
ATOM     13  C   UNL     1      34.403 -34.458 -29.187  0.00  0.00    +0.086 C 
ATOM     14  N   UNL     1      34.978 -35.909 -28.997  0.00  0.00    -0.316 N 
ATOM     15  C   UNL     1      34.788 -36.621 -27.742  0.00  0.00    +0.002 C 
ATOM     16  H   UNL     1      32.457 -35.188 -29.306  0.00  0.00    +0.000 HD
ENDROOT
BRANCH   1  17
ATOM     17  O   UNL     1      39.504 -35.912 -32.210  0.00  0.00    -0.412 OA
BRANCH  17  20
ATOM     18  C   UNL     1      42.832 -37.418 -31.658  0.00  0.00    +0.003 C 
ATOM     19  N   UNL     1      41.504 -37.147 -32.138  0.00  0.00    -0.284 N 
ATOM     20  C   UNL     1      40.833 -36.004 -31.769  0.00  0.00    +0.405 C 
ATOM     21  O   UNL     1      41.323 -35.129 -31.065  0.00  0.00    -0.226 OA
ATOM     22  H   UNL     1      41.068 -37.790 -32.741  0.00  0.00    +0.000 HD
ENDBRANCH  17  20
ENDBRANCH   1  17
TORSDOF 2
ENDMDL
MODEL 3
REMARK VINA RESULT:    -6.250     34.698     36.556
REMARK INTER + INTRA:          -7.230
REMARK INTER:                  -7.008
REMARK INTRA:                  -0.222
REMARK UNBOUND:                -0.249
REMARK  Name = cpd93.pdb
REMARK  6 active torsions:
REMARK  status: ('A' for Active; 'I' for Inactive)
REMARK    1  A    between atoms: C_1  and  N_2
REMARK    2  A    between atoms: C_3  and  O_5
REMARK    3  A    between atoms: O_5  and  C_6
REMARK    4  A    between atoms: C_12  and  C_13
REMARK    5  A    between atoms: N_16  and  C_17
REMARK    6  A    between atoms: N_19  and  C_20
REMARK                            x       y       z     vdW  Elec       q    Type
REMARK                         _______ _______ _______ _____ _____    ______ ____
ROOT
ATOM      1  C   UNL     1      63.136 -21.016  -9.402  0.00  0.00    +0.134 A 
ATOM      2  C   UNL     1      63.122 -20.293  -8.207  0.00  0.00    -0.017 A 
ATOM      3  C   UNL     1      63.157 -20.978  -6.989  0.00  0.00    -0.037 A 
ATOM      4  C   UNL     1      63.205 -22.367  -6.987  0.00  0.00    +0.035 A 
ATOM      5  C   UNL     1      63.241 -23.057  -8.193  0.00  0.00    -0.014 A 
ATOM      6  C   UNL     1      63.219 -22.405  -9.418  0.00  0.00    -0.014 A 
ATOM      7  C   UNL     1      63.373 -24.521  -7.889  0.00  0.00    +0.028 C 
ATOM      8  C   UNL     1      62.467 -25.356  -8.809  0.00  0.00    -0.052 C 
ATOM      9  C   UNL     1      64.823 -24.968  -7.909  0.00  0.00    -0.028 C 
ATOM     10  C   UNL     1      64.789 -26.162  -7.002  0.00  0.00    +0.001 C 
ATOM     11  N   UNL     1      63.795 -25.860  -5.974  0.00  0.00    -0.287 N 
ATOM     12  C   UNL     1      63.033 -27.053  -5.606  0.00  0.00    -0.011 C 
ATOM     13  C   UNL     1      62.857 -24.669  -6.341  0.00  0.00    +0.086 C 
ATOM     14  N   UNL     1      63.313 -23.230  -5.903  0.00  0.00    -0.316 N 
ATOM     15  C   UNL     1      63.028 -22.741  -4.562  0.00  0.00    +0.002 C 
ATOM     16  H   UNL     1      64.322 -25.552  -5.156  0.00  0.00    +0.000 HD
ENDROOT
BRANCH   1  17
ATOM     17  O   UNL     1      63.138 -20.343 -10.640  0.00  0.00    -0.412 OA
BRANCH  17  20
ATOM     18  C   UNL     1      60.332 -18.048 -11.357  0.00  0.00    +0.003 C 
ATOM     19  N   UNL     1      61.114 -19.208 -11.026  0.00  0.00    -0.284 N 
ATOM     20  C   UNL     1      62.475 -19.123 -10.845  0.00  0.00    +0.405 C 
ATOM     21  O   UNL     1      63.100 -18.070 -10.899  0.00  0.00    -0.226 OA
ATOM     22  H   UNL     1      60.667 -20.080 -10.928  0.00  0.00    +0.000 HD
ENDBRANCH  17  20
ENDBRANCH   1  17
TORSDOF 2
ENDMDL
MODEL 4
REMARK VINA RESULT:    -6.202     35.532     37.124
REMARK INTER + INTRA:          -7.177
REMARK INTER:                  -6.973
REMARK INTRA:                  -0.204
REMARK UNBOUND:                -0.249
REMARK  Name = cpd93.pdb
REMARK  6 active torsions:
REMARK  status: ('A' for Active; 'I' for Inactive)
REMARK    1  A    between atoms: C_1  and  N_2
REMARK    2  A    between atoms: C_3  and  O_5
REMARK    3  A    between atoms: O_5  and  C_6
REMARK    4  A    between atoms: C_12  and  C_13
REMARK    5  A    between atoms: N_16  and  C_17
REMARK    6  A    between atoms: N_19  and  C_20
REMARK                            x       y       z     vdW  Elec       q    Type
REMARK                         _______ _______ _______ _____ _____    ______ ____
ROOT
ATOM      1  C   UNL     1      64.339 -24.569  -8.385  0.00  0.00    +0.134 A 
ATOM      2  C   UNL     1      64.000 -24.324  -9.718  0.00  0.00    -0.017 A 
ATOM      3  C   UNL     1      63.528 -23.060 -10.086  0.00  0.00    -0.037 A 
ATOM      4  C   UNL     1      63.405 -22.069  -9.120  0.00  0.00    +0.035 A 
ATOM      5  C   UNL     1      63.772 -22.336  -7.806  0.00  0.00    -0.014 A 
ATOM      6  C   UNL     1      64.255 -23.577  -7.413  0.00  0.00    -0.014 A 
ATOM      7  C   UNL     1      63.613 -21.073  -7.012  0.00  0.00    +0.028 C 
ATOM      8  C   UNL     1      62.988 -21.365  -5.637  0.00  0.00    -0.052 C 
ATOM      9  C   UNL     1      64.915 -20.298  -6.925  0.00  0.00    -0.028 C 
ATOM     10  C   UNL     1      64.425 -18.898  -6.710  0.00  0.00    +0.001 C 
ATOM     11  N   UNL     1      63.181 -18.783  -7.468  0.00  0.00    -0.287 N 
ATOM     12  C   UNL     1      62.201 -17.962  -6.758  0.00  0.00    -0.011 C 
ATOM     13  C   UNL     1      62.579 -20.158  -7.893  0.00  0.00    +0.086 C 
ATOM     14  N   UNL     1      63.026 -20.741  -9.283  0.00  0.00    -0.316 N 
ATOM     15  C   UNL     1      62.355 -20.329 -10.507  0.00  0.00    +0.002 C 
ATOM     16  H   UNL     1      63.425 -18.309  -8.337  0.00  0.00    +0.000 HD
ENDROOT
BRANCH   1  17
ATOM     17  O   UNL     1      64.851 -25.824  -8.001  0.00  0.00    -0.412 OA
BRANCH  17  20
ATOM     18  C   UNL     1      62.848 -27.681  -5.513  0.00  0.00    +0.003 C 
ATOM     19  N   UNL     1      63.340 -27.109  -6.737  0.00  0.00    -0.284 N 
ATOM     20  C   UNL     1      64.538 -26.432  -6.776  0.00  0.00    +0.405 C 
ATOM     21  O   UNL     1      65.280 -26.315  -5.808  0.00  0.00    -0.226 OA
ATOM     22  H   UNL     1      62.812 -27.203  -7.561  0.00  0.00    +0.000 HD
ENDBRANCH  17  20
ENDBRANCH   1  17
TORSDOF 2
ENDMDL
MODEL 5
REMARK VINA RESULT:    -5.920     17.033     19.499
REMARK INTER + INTRA:          -6.862
REMARK INTER:                  -6.596
REMARK INTRA:                  -0.265
REMARK UNBOUND:                -0.249
REMARK  Name = cpd93.pdb
REMARK  6 active torsions:
REMARK  status: ('A' for Active; 'I' for Inactive)
REMARK    1  A    between atoms: C_1  and  N_2
REMARK    2  A    between atoms: C_3  and  O_5
REMARK    3  A    between atoms: O_5  and  C_6
REMARK    4  A    between atoms: C_12  and  C_13
REMARK    5  A    between atoms: N_16  and  C_17
REMARK    6  A    between atoms: N_19  and  C_20
REMARK                            x       y       z     vdW  Elec       q    Type
REMARK                         _______ _______ _______ _____ _____    ______ ____
ROOT
ATOM      1  C   UNL     1      41.424 -20.884 -34.240  0.00  0.00    +0.134 A 
ATOM      2  C   UNL     1      41.072 -21.563 -35.409  0.00  0.00    -0.017 A 
ATOM      3  C   UNL     1      41.906 -21.481 -36.529  0.00  0.00    -0.037 A 
ATOM      4  C   UNL     1      43.071 -20.727 -36.459  0.00  0.00    +0.035 A 
ATOM      5  C   UNL     1      43.406 -20.082 -35.274  0.00  0.00    -0.014 A 
ATOM      6  C   UNL     1      42.604 -20.154 -34.143  0.00  0.00    -0.014 A 
ATOM      7  C   UNL     1      44.740 -19.422 -35.464  0.00  0.00    +0.028 C 
ATOM      8  C   UNL     1      44.751 -18.018 -34.834  0.00  0.00    -0.052 C 
ATOM      9  C   UNL     1      45.875 -20.305 -34.979  0.00  0.00    -0.028 C 
ATOM     10  C   UNL     1      47.025 -19.807 -35.803  0.00  0.00    +0.001 C 
ATOM     11  N   UNL     1      46.462 -19.434 -37.099  0.00  0.00    -0.287 N 
ATOM     12  C   UNL     1      47.110 -18.239 -37.635  0.00  0.00    -0.011 C 
ATOM     13  C   UNL     1      44.908 -19.289 -37.088  0.00  0.00    +0.086 C 
ATOM     14  N   UNL     1      44.062 -20.571 -37.421  0.00  0.00    -0.316 N 
ATOM     15  C   UNL     1      43.788 -20.936 -38.803  0.00  0.00    +0.002 C 
ATOM     16  H   UNL     1      46.660 -20.214 -37.726  0.00  0.00    +0.000 HD
ENDROOT
BRANCH   1  17
ATOM     17  O   UNL     1      40.615 -20.983 -33.090  0.00  0.00    -0.412 OA
BRANCH  17  20
ATOM     18  C   UNL     1      41.596 -23.895 -31.039  0.00  0.00    +0.003 C 
ATOM     19  N   UNL     1      41.587 -22.630 -31.721  0.00  0.00    -0.284 N 
ATOM     20  C   UNL     1      40.461 -22.175 -32.367  0.00  0.00    +0.405 C 
ATOM     21  O   UNL     1      39.392 -22.775 -32.366  0.00  0.00    -0.226 OA
ATOM     22  H   UNL     1      42.402 -22.078 -31.725  0.00  0.00    +0.000 HD
ENDBRANCH  17  20
ENDBRANCH   1  17
TORSDOF 2
ENDMDL
MODEL 6
REMARK VINA RESULT:    -5.857     18.246     20.783
REMARK INTER + INTRA:          -6.792
REMARK INTER:                  -6.561
REMARK INTRA:                  -0.231
REMARK UNBOUND:                -0.249
REMARK  Name = cpd93.pdb
REMARK  6 active torsions:
REMARK  status: ('A' for Active; 'I' for Inactive)
REMARK    1  A    between atoms: C_1  and  N_2
REMARK    2  A    between atoms: C_3  and  O_5
REMARK    3  A    between atoms: O_5  and  C_6
REMARK    4  A    between atoms: C_12  and  C_13
REMARK    5  A    between atoms: N_16  and  C_17
REMARK    6  A    between atoms: N_19  and  C_20
REMARK                            x       y       z     vdW  Elec       q    Type
REMARK                         _______ _______ _______ _____ _____    ______ ____
ROOT
ATOM      1  C   UNL     1      41.551 -22.124 -38.887  0.00  0.00    +0.134 A 
ATOM      2  C   UNL     1      41.317 -22.285 -40.255  0.00  0.00    -0.017 A 
ATOM      3  C   UNL     1      42.177 -21.679 -41.176  0.00  0.00    -0.037 A 
ATOM      4  C   UNL     1      43.250 -20.926 -40.715  0.00  0.00    +0.035 A 
ATOM      5  C   UNL     1      43.471 -20.803 -39.348  0.00  0.00    -0.014 A 
ATOM      6  C   UNL     1      42.641 -21.403 -38.410  0.00  0.00    -0.014 A 
ATOM      7  C   UNL     1      44.731 -20.014 -39.149  0.00  0.00    +0.028 C 
ATOM      8  C   UNL     1      44.568 -19.001 -38.003  0.00  0.00    -0.052 C 
ATOM      9  C   UNL     1      45.937 -20.920 -38.980  0.00  0.00    -0.028 C 
ATOM     10  C   UNL     1      47.055 -20.031 -39.438  0.00  0.00    +0.001 C 
ATOM     11  N   UNL     1      46.501 -19.205 -40.508  0.00  0.00    -0.287 N 
ATOM     12  C   UNL     1      47.036 -17.845 -40.459  0.00  0.00    -0.011 C 
ATOM     13  C   UNL     1      44.942 -19.208 -40.559  0.00  0.00    +0.086 C 
ATOM     14  N   UNL     1      44.252 -20.303 -41.451  0.00  0.00    -0.316 N 
ATOM     15  C   UNL     1      44.069 -20.086 -42.878  0.00  0.00    +0.002 C 
ATOM     16  H   UNL     1      46.805 -19.636 -41.382  0.00  0.00    +0.000 HD
ENDROOT
BRANCH   1  17
ATOM     17  O   UNL     1      40.718 -22.757 -37.944  0.00  0.00    -0.412 OA
BRANCH  17  20
ATOM     18  C   UNL     1      40.589 -22.402 -34.268  0.00  0.00    +0.003 C 
ATOM     19  N   UNL     1      40.928 -22.818 -35.602  0.00  0.00    -0.284 N 
ATOM     20  C   UNL     1      40.399 -22.185 -36.703  0.00  0.00    +0.405 C 
ATOM     21  O   UNL     1      39.659 -21.210 -36.632  0.00  0.00    -0.226 OA
ATOM     22  H   UNL     1      41.550 -23.570 -35.730  0.00  0.00    +0.000 HD
ENDBRANCH  17  20
ENDBRANCH   1  17
TORSDOF 2
ENDMDL
MODEL 7
REMARK VINA RESULT:    -5.816     16.443     18.253
REMARK INTER + INTRA:          -6.745
REMARK INTER:                  -6.465
REMARK INTRA:                  -0.280
REMARK UNBOUND:                -0.249
REMARK  Name = cpd93.pdb
REMARK  6 active torsions:
REMARK  status: ('A' for Active; 'I' for Inactive)
REMARK    1  A    between atoms: C_1  and  N_2
REMARK    2  A    between atoms: C_3  and  O_5
REMARK    3  A    between atoms: O_5  and  C_6
REMARK    4  A    between atoms: C_12  and  C_13
REMARK    5  A    between atoms: N_16  and  C_17
REMARK    6  A    between atoms: N_19  and  C_20
REMARK                            x       y       z     vdW  Elec       q    Type
REMARK                         _______ _______ _______ _____ _____    ______ ____
ROOT
ATOM      1  C   UNL     1      43.679 -19.763 -34.393  0.00  0.00    +0.134 A 
ATOM      2  C   UNL     1      43.535 -19.880 -35.778  0.00  0.00    -0.017 A 
ATOM      3  C   UNL     1      42.479 -20.636 -36.297  0.00  0.00    -0.037 A 
ATOM      4  C   UNL     1      41.591 -21.257 -35.427  0.00  0.00    +0.035 A 
ATOM      5  C   UNL     1      41.747 -21.103 -34.055  0.00  0.00    -0.014 A 
ATOM      6  C   UNL     1      42.778 -20.349 -33.510  0.00  0.00    -0.014 A 
ATOM      7  C   UNL     1      40.610 -21.806 -33.374  0.00  0.00    +0.028 C 
ATOM      8  C   UNL     1      41.103 -22.577 -32.138  0.00  0.00    -0.052 C 
ATOM      9  C   UNL     1      39.466 -20.856 -33.070  0.00  0.00    -0.028 C 
ATOM     10  C   UNL     1      38.294 -21.791 -33.030  0.00  0.00    +0.001 C 
ATOM     11  N   UNL     1      38.566 -22.825 -34.024  0.00  0.00    -0.287 N 
ATOM     12  C   UNL     1      38.106 -24.136 -33.567  0.00  0.00    -0.011 C 
ATOM     13  C   UNL     1      40.055 -22.870 -34.490  0.00  0.00    +0.086 C 
ATOM     14  N   UNL     1      40.448 -21.989 -35.731  0.00  0.00    -0.316 N 
ATOM     15  C   UNL     1      40.251 -22.488 -37.084  0.00  0.00    +0.002 C 
ATOM     16  H   UNL     1      38.028 -22.568 -34.852  0.00  0.00    +0.000 HD
ENDROOT
BRANCH   1  17
ATOM     17  O   UNL     1      44.715 -18.976 -33.850  0.00  0.00    -0.412 OA
BRANCH  17  20
ATOM     18  C   UNL     1      43.597 -15.757 -32.422  0.00  0.00    +0.003 C 
ATOM     19  N   UNL     1      43.794 -16.885 -33.291  0.00  0.00    -0.284 N 
ATOM     20  C   UNL     1      44.494 -17.994 -32.873  0.00  0.00    +0.405 C 
ATOM     21  O   UNL     1      44.945 -18.122 -31.741  0.00  0.00    -0.226 OA
ATOM     22  H   UNL     1      43.422 -16.865 -34.202  0.00  0.00    +0.000 HD
ENDBRANCH  17  20
ENDBRANCH   1  17
TORSDOF 2
ENDMDL
MODEL 8
REMARK VINA RESULT:    -5.790     19.500     20.695
REMARK INTER + INTRA:          -6.716
REMARK INTER:                  -6.498
REMARK INTRA:                  -0.218
REMARK UNBOUND:                -0.249
REMARK  Name = cpd93.pdb
REMARK  6 active torsions:
REMARK  status: ('A' for Active; 'I' for Inactive)
REMARK    1  A    between atoms: C_1  and  N_2
REMARK    2  A    between atoms: C_3  and  O_5
REMARK    3  A    between atoms: O_5  and  C_6
REMARK    4  A    between atoms: C_12  and  C_13
REMARK    5  A    between atoms: N_16  and  C_17
REMARK    6  A    between atoms: N_19  and  C_20
REMARK                            x       y       z     vdW  Elec       q    Type
REMARK                         _______ _______ _______ _____ _____    ______ ____
ROOT
ATOM      1  C   UNL     1      46.322 -20.817 -40.251  0.00  0.00    +0.134 A 
ATOM      2  C   UNL     1      45.031 -21.127 -40.687  0.00  0.00    -0.017 A 
ATOM      3  C   UNL     1      43.958 -21.006 -39.799  0.00  0.00    -0.037 A 
ATOM      4  C   UNL     1      44.193 -20.580 -38.497  0.00  0.00    +0.035 A 
ATOM      5  C   UNL     1      45.485 -20.257 -38.100  0.00  0.00    -0.014 A 
ATOM      6  C   UNL     1      46.569 -20.355 -38.962  0.00  0.00    -0.014 A 
ATOM      7  C   UNL     1      45.426 -19.754 -36.687  0.00  0.00    +0.028 C 
ATOM      8  C   UNL     1      46.592 -20.317 -35.856  0.00  0.00    -0.052 C 
ATOM      9  C   UNL     1      45.330 -18.241 -36.635  0.00  0.00    -0.028 C 
ATOM     10  C   UNL     1      44.658 -18.021 -35.312  0.00  0.00    +0.001 C 
ATOM     11  N   UNL     1      43.736 -19.141 -35.136  0.00  0.00    -0.287 N 
ATOM     12  C   UNL     1      43.689 -19.575 -33.740  0.00  0.00    -0.011 C 
ATOM     13  C   UNL     1      44.012 -20.336 -36.100  0.00  0.00    +0.086 C 
ATOM     14  N   UNL     1      43.272 -20.330 -37.487  0.00  0.00    -0.316 N 
ATOM     15  C   UNL     1      41.916 -20.848 -37.603  0.00  0.00    +0.002 C 
ATOM     16  H   UNL     1      42.814 -18.788 -35.393  0.00  0.00    +0.000 HD
ENDROOT
BRANCH   1  17
ATOM     17  O   UNL     1      47.411 -20.897 -41.141  0.00  0.00    -0.412 OA
BRANCH  17  20
ATOM     18  C   UNL     1      48.189 -24.167 -42.675  0.00  0.00    +0.003 C 
ATOM     19  N   UNL     1      47.630 -22.871 -42.401  0.00  0.00    -0.284 N 
ATOM     20  C   UNL     1      48.114 -22.087 -41.379  0.00  0.00    +0.405 C 
ATOM     21  O   UNL     1      49.068 -22.404 -40.677  0.00  0.00    -0.226 OA
ATOM     22  H   UNL     1      46.888 -22.538 -42.955  0.00  0.00    +0.000 HD
ENDBRANCH  17  20
ENDBRANCH   1  17
TORSDOF 2
ENDMDL
MODEL 9
REMARK VINA RESULT:    -5.772     36.816     39.167
REMARK INTER + INTRA:          -6.696
REMARK INTER:                  -6.417
REMARK INTRA:                  -0.279
REMARK UNBOUND:                -0.249
REMARK  Name = cpd93.pdb
REMARK  6 active torsions:
REMARK  status: ('A' for Active; 'I' for Inactive)
REMARK    1  A    between atoms: C_1  and  N_2
REMARK    2  A    between atoms: C_3  and  O_5
REMARK    3  A    between atoms: O_5  and  C_6
REMARK    4  A    between atoms: C_12  and  C_13
REMARK    5  A    between atoms: N_16  and  C_17
REMARK    6  A    between atoms: N_19  and  C_20
REMARK                            x       y       z     vdW  Elec       q    Type
REMARK                         _______ _______ _______ _____ _____    ______ ____
ROOT
ATOM      1  C   UNL     1      64.697 -24.156  -6.972  0.00  0.00    +0.134 A 
ATOM      2  C   UNL     1      63.692 -23.409  -7.593  0.00  0.00    -0.017 A 
ATOM      3  C   UNL     1      63.271 -22.209  -7.013  0.00  0.00    -0.037 A 
ATOM      4  C   UNL     1      63.858 -21.778  -5.830  0.00  0.00    +0.035 A 
ATOM      5  C   UNL     1      64.872 -22.530  -5.249  0.00  0.00    -0.014 A 
ATOM      6  C   UNL     1      65.320 -23.720  -5.806  0.00  0.00    -0.014 A 
ATOM      7  C   UNL     1      65.370 -21.790  -4.043  0.00  0.00    +0.028 C 
ATOM      8  C   UNL     1      65.613 -22.754  -2.869  0.00  0.00    -0.052 C 
ATOM      9  C   UNL     1      66.577 -20.931  -4.372  0.00  0.00    -0.028 C 
ATOM     10  C   UNL     1      66.494 -19.868  -3.317  0.00  0.00    +0.001 C 
ATOM     11  N   UNL     1      65.070 -19.637  -3.086  0.00  0.00    -0.287 N 
ATOM     12  C   UNL     1      64.795 -19.384  -1.672  0.00  0.00    -0.011 C 
ATOM     13  C   UNL     1      64.153 -20.763  -3.657  0.00  0.00    +0.086 C 
ATOM     14  N   UNL     1      63.639 -20.595  -5.133  0.00  0.00    -0.316 N 
ATOM     15  C   UNL     1      62.451 -19.802  -5.415  0.00  0.00    +0.002 C 
ATOM     16  H   UNL     1      64.833 -18.797  -3.614  0.00  0.00    +0.000 HD
ENDROOT
BRANCH   1  17
ATOM     17  O   UNL     1      65.161 -25.350  -7.559  0.00  0.00    -0.412 OA
BRANCH  17  20
ATOM     18  C   UNL     1      63.476 -28.198  -5.917  0.00  0.00    +0.003 C 
ATOM     19  N   UNL     1      63.742 -26.990  -6.648  0.00  0.00    -0.284 N 
ATOM     20  C   UNL     1      65.029 -26.603  -6.942  0.00  0.00    +0.405 C 
ATOM     21  O   UNL     1      66.018 -27.269  -6.656  0.00  0.00    -0.226 OA
ATOM     22  H   UNL     1      62.990 -26.429  -6.945  0.00  0.00    +0.000 HD
ENDBRANCH  17  20
ENDBRANCH   1  17
TORSDOF 2
ENDMDL
MODEL 10
REMARK VINA RESULT:    -5.771     19.515     21.197
REMARK INTER + INTRA:          -6.695
REMARK INTER:                  -6.564
REMARK INTRA:                  -0.131
REMARK UNBOUND:                -0.249
REMARK  Name = cpd93.pdb
REMARK  6 active torsions:
REMARK  status: ('A' for Active; 'I' for Inactive)
REMARK    1  A    between atoms: C_1  and  N_2
REMARK    2  A    between atoms: C_3  and  O_5
REMARK    3  A    between atoms: O_5  and  C_6
REMARK    4  A    between atoms: C_12  and  C_13
REMARK    5  A    between atoms: N_16  and  C_17
REMARK    6  A    between atoms: N_19  and  C_20
REMARK                            x       y       z     vdW  Elec       q    Type
REMARK                         _______ _______ _______ _____ _____    ______ ____
ROOT
ATOM      1  C   UNL     1      44.750 -19.813 -35.416  0.00  0.00    +0.134 A 
ATOM      2  C   UNL     1      43.442 -20.295 -35.506  0.00  0.00    -0.017 A 
ATOM      3  C   UNL     1      42.936 -20.683 -36.750  0.00  0.00    -0.037 A 
ATOM      4  C   UNL     1      43.743 -20.583 -37.877  0.00  0.00    +0.035 A 
ATOM      5  C   UNL     1      45.048 -20.121 -37.752  0.00  0.00    -0.014 A 
ATOM      6  C   UNL     1      45.582 -19.739 -36.529  0.00  0.00    -0.014 A 
ATOM      7  C   UNL     1      45.701 -20.197 -39.101  0.00  0.00    +0.028 C 
ATOM      8  C   UNL     1      46.551 -18.944 -39.371  0.00  0.00    -0.052 C 
ATOM      9  C   UNL     1      46.472 -21.493 -39.278  0.00  0.00    -0.028 C 
ATOM     10  C   UNL     1      46.463 -21.654 -40.769  0.00  0.00    +0.001 C 
ATOM     11  N   UNL     1      45.182 -21.122 -41.226  0.00  0.00    -0.287 N 
ATOM     12  C   UNL     1      45.325 -20.417 -42.499  0.00  0.00    -0.011 C 
ATOM     13  C   UNL     1      44.453 -20.244 -40.162  0.00  0.00    +0.086 C 
ATOM     14  N   UNL     1      43.464 -20.973 -39.182  0.00  0.00    -0.316 N 
ATOM     15  C   UNL     1      42.087 -21.230 -39.578  0.00  0.00    +0.002 C 
ATOM     16  H   UNL     1      44.579 -21.931 -41.374  0.00  0.00    +0.000 HD
ENDROOT
BRANCH   1  17
ATOM     17  O   UNL     1      45.290 -19.451 -34.166  0.00  0.00    -0.412 OA
BRANCH  17  20
ATOM     18  C   UNL     1      45.090 -16.689 -31.720  0.00  0.00    +0.003 C 
ATOM     19  N   UNL     1      45.206 -17.987 -32.327  0.00  0.00    -0.284 N 
ATOM     20  C   UNL     1      45.297 -18.131 -33.692  0.00  0.00    +0.405 C 
ATOM     21  O   UNL     1      45.338 -17.185 -34.471  0.00  0.00    -0.226 OA
ATOM     22  H   UNL     1      45.221 -18.788 -31.756  0.00  0.00    +0.000 HD
ENDBRANCH  17  20
ENDBRANCH   1  17
TORSDOF 2
ENDMDL
MODEL 11
REMARK VINA RESULT:    -5.729      3.767      5.880
REMARK INTER + INTRA:          -6.648
REMARK INTER:                  -6.439
REMARK INTRA:                  -0.209
REMARK UNBOUND:                -0.249
REMARK  Name = cpd93.pdb
REMARK  6 active torsions:
REMARK  status: ('A' for Active; 'I' for Inactive)
REMARK    1  A    between atoms: C_1  and  N_2
REMARK    2  A    between atoms: C_3  and  O_5
REMARK    3  A    between atoms: O_5  and  C_6
REMARK    4  A    between atoms: C_12  and  C_13
REMARK    5  A    between atoms: N_16  and  C_17
REMARK    6  A    between atoms: N_19  and  C_20
REMARK                            x       y       z     vdW  Elec       q    Type
REMARK                         _______ _______ _______ _____ _____    ______ ____
ROOT
ATOM      1  C   UNL     1      36.069 -35.918 -30.759  0.00  0.00    +0.134 A 
ATOM      2  C   UNL     1      35.647 -36.642 -29.642  0.00  0.00    -0.017 A 
ATOM      3  C   UNL     1      34.530 -36.206 -28.921  0.00  0.00    -0.037 A 
ATOM      4  C   UNL     1      33.860 -35.059 -29.329  0.00  0.00    +0.035 A 
ATOM      5  C   UNL     1      34.290 -34.373 -30.459  0.00  0.00    -0.014 A 
ATOM      6  C   UNL     1      35.388 -34.788 -31.201  0.00  0.00    -0.014 A 
ATOM      7  C   UNL     1      33.340 -33.239 -30.706  0.00  0.00    +0.028 C 
ATOM      8  C   UNL     1      34.100 -31.963 -31.106  0.00  0.00    -0.052 C 
ATOM      9  C   UNL     1      32.254 -33.623 -31.694  0.00  0.00    -0.028 C 
ATOM     10  C   UNL     1      31.145 -32.690 -31.310  0.00  0.00    +0.001 C 
ATOM     11  N   UNL     1      31.238 -32.525 -29.861  0.00  0.00    -0.287 N 
ATOM     12  C   UNL     1      30.922 -31.154 -29.461  0.00  0.00    -0.011 C 
ATOM     13  C   UNL     1      32.599 -32.998 -29.264  0.00  0.00    +0.086 C 
ATOM     14  N   UNL     1      32.702 -34.497 -28.803  0.00  0.00    -0.316 N 
ATOM     15  C   UNL     1      32.246 -34.896 -27.479  0.00  0.00    +0.002 C 
ATOM     16  H   UNL     1      30.533 -33.145 -29.462  0.00  0.00    +0.000 HD
ENDROOT
BRANCH   1  17
ATOM     17  O   UNL     1      37.169 -36.362 -31.519  0.00  0.00    -0.412 OA
BRANCH  17  20
ATOM     18  C   UNL     1      40.199 -34.261 -31.755  0.00  0.00    +0.003 C 
ATOM     19  N   UNL     1      38.849 -34.747 -31.839  0.00  0.00    -0.284 N 
ATOM     20  C   UNL     1      38.485 -35.945 -31.270  0.00  0.00    +0.405 C 
ATOM     21  O   UNL     1      39.253 -36.646 -30.619  0.00  0.00    -0.226 OA
ATOM     22  H   UNL     1      38.172 -34.212 -32.313  0.00  0.00    +0.000 HD
ENDBRANCH  17  20
ENDBRANCH   1  17
TORSDOF 2
ENDMDL
MODEL 12
REMARK VINA RESULT:    -5.704     22.098     24.265
REMARK INTER + INTRA:          -6.620
REMARK INTER:                  -6.385
REMARK INTRA:                  -0.235
REMARK UNBOUND:                -0.249
REMARK  Name = cpd93.pdb
REMARK  6 active torsions:
REMARK  status: ('A' for Active; 'I' for Inactive)
REMARK    1  A    between atoms: C_1  and  N_2
REMARK    2  A    between atoms: C_3  and  O_5
REMARK    3  A    between atoms: O_5  and  C_6
REMARK    4  A    between atoms: C_12  and  C_13
REMARK    5  A    between atoms: N_16  and  C_17
REMARK    6  A    between atoms: N_19  and  C_20
REMARK                            x       y       z     vdW  Elec       q    Type
REMARK                         _______ _______ _______ _____ _____    ______ ____
ROOT
ATOM      1  C   UNL     1      46.929 -19.355 -41.563  0.00  0.00    +0.134 A 
ATOM      2  C   UNL     1      45.594 -19.746 -41.693  0.00  0.00    -0.017 A 
ATOM      3  C   UNL     1      44.582 -18.894 -41.239  0.00  0.00    -0.037 A 
ATOM      4  C   UNL     1      44.921 -17.674 -40.667  0.00  0.00    +0.035 A 
ATOM      5  C   UNL     1      46.257 -17.303 -40.573  0.00  0.00    -0.014 A 
ATOM      6  C   UNL     1      47.283 -18.122 -41.025  0.00  0.00    -0.014 A 
ATOM      7  C   UNL     1      46.318 -15.919 -39.998  0.00  0.00    +0.028 C 
ATOM      8  C   UNL     1      47.451 -15.804 -38.965  0.00  0.00    -0.052 C 
ATOM      9  C   UNL     1      46.389 -14.863 -41.086  0.00  0.00    -0.028 C 
ATOM     10  C   UNL     1      45.806 -13.668 -40.393  0.00  0.00    +0.001 C 
ATOM     11  N   UNL     1      44.777 -14.184 -39.494  0.00  0.00    -0.287 N 
ATOM     12  C   UNL     1      44.745 -13.436 -38.238  0.00  0.00    -0.011 C 
ATOM     13  C   UNL     1      44.876 -15.721 -39.245  0.00  0.00    +0.086 C 
ATOM     14  N   UNL     1      44.079 -16.662 -40.219  0.00  0.00    -0.316 N 
ATOM     15  C   UNL     1      42.671 -16.948 -39.983  0.00  0.00    +0.002 C 
ATOM     16  H   UNL     1      43.888 -14.041 -39.974  0.00  0.00    +0.000 HD
ENDROOT
BRANCH   1  17
ATOM     17  O   UNL     1      47.962 -20.183 -42.047  0.00  0.00    -0.412 OA
BRANCH  17  20
ATOM     18  C   UNL     1      48.237 -23.860 -42.277  0.00  0.00    +0.003 C 
ATOM     19  N   UNL     1      48.166 -22.460 -42.598  0.00  0.00    -0.284 N 
ATOM     20  C   UNL     1      48.148 -21.502 -41.610  0.00  0.00    +0.405 C 
ATOM     21  O   UNL     1      48.242 -21.761 -40.415  0.00  0.00    -0.226 OA
ATOM     22  H   UNL     1      48.129 -22.182 -43.540  0.00  0.00    +0.000 HD
ENDBRANCH  17  20
ENDBRANCH   1  17
TORSDOF 2
ENDMDL
MODEL 13
REMARK VINA RESULT:    -5.641      4.358      7.177
REMARK INTER + INTRA:          -6.550
REMARK INTER:                  -6.263
REMARK INTRA:                  -0.287
REMARK UNBOUND:                -0.249
REMARK  Name = cpd93.pdb
REMARK  6 active torsions:
REMARK  status: ('A' for Active; 'I' for Inactive)
REMARK    1  A    between atoms: C_1  and  N_2
REMARK    2  A    between atoms: C_3  and  O_5
REMARK    3  A    between atoms: O_5  and  C_6
REMARK    4  A    between atoms: C_12  and  C_13
REMARK    5  A    between atoms: N_16  and  C_17
REMARK    6  A    between atoms: N_19  and  C_20
REMARK                            x       y       z     vdW  Elec       q    Type
REMARK                         _______ _______ _______ _____ _____    ______ ____
ROOT
ATOM      1  C   UNL     1      34.147 -33.272 -29.965  0.00  0.00    +0.134 A 
ATOM      2  C   UNL     1      35.245 -32.929 -30.759  0.00  0.00    -0.017 A 
ATOM      3  C   UNL     1      36.255 -33.871 -30.977  0.00  0.00    -0.037 A 
ATOM      4  C   UNL     1      36.150 -35.132 -30.402  0.00  0.00    +0.035 A 
ATOM      5  C   UNL     1      35.035 -35.450 -29.636  0.00  0.00    -0.014 A 
ATOM      6  C   UNL     1      34.010 -34.540 -29.411  0.00  0.00    -0.014 A 
ATOM      7  C   UNL     1      35.150 -36.886 -29.218  0.00  0.00    +0.028 C 
ATOM      8  C   UNL     1      34.725 -37.066 -27.751  0.00  0.00    -0.052 C 
ATOM      9  C   UNL     1      34.413 -37.808 -30.172  0.00  0.00    -0.028 C 
ATOM     10  C   UNL     1      35.153 -39.099 -29.985  0.00  0.00    +0.001 C 
ATOM     11  N   UNL     1      36.546 -38.735 -29.740  0.00  0.00    -0.287 N 
ATOM     12  C   UNL     1      37.161 -39.621 -28.752  0.00  0.00    -0.011 C 
ATOM     13  C   UNL     1      36.745 -37.233 -29.367  0.00  0.00    +0.086 C 
ATOM     14  N   UNL     1      36.997 -36.225 -30.546  0.00  0.00    -0.316 N 
ATOM     15  C   UNL     1      38.338 -36.031 -31.078  0.00  0.00    +0.002 C 
ATOM     16  H   UNL     1      37.030 -38.863 -30.629  0.00  0.00    +0.000 HD
ENDROOT
BRANCH   1  17
ATOM     17  O   UNL     1      33.102 -32.349 -29.763  0.00  0.00    -0.412 OA
BRANCH  17  20
ATOM     18  C   UNL     1      30.060 -33.011 -31.751  0.00  0.00    +0.003 C 
ATOM     19  N   UNL     1      31.423 -32.809 -31.344  0.00  0.00    -0.284 N 
ATOM     20  C   UNL     1      31.757 -32.653 -30.019  0.00  0.00    +0.405 C 
ATOM     21  O   UNL     1      30.944 -32.725 -29.104  0.00  0.00    -0.226 OA
ATOM     22  H   UNL     1      32.132 -32.782 -32.027  0.00  0.00    +0.000 HD
ENDBRANCH  17  20
ENDBRANCH   1  17
TORSDOF 2
ENDMDL
MODEL 14
REMARK VINA RESULT:    -5.507     18.158     20.778
REMARK INTER + INTRA:          -6.400
REMARK INTER:                  -6.165
REMARK INTRA:                  -0.235
REMARK UNBOUND:                -0.249
REMARK  Name = cpd93.pdb
REMARK  6 active torsions:
REMARK  status: ('A' for Active; 'I' for Inactive)
REMARK    1  A    between atoms: C_1  and  N_2
REMARK    2  A    between atoms: C_3  and  O_5
REMARK    3  A    between atoms: O_5  and  C_6
REMARK    4  A    between atoms: C_12  and  C_13
REMARK    5  A    between atoms: N_16  and  C_17
REMARK    6  A    between atoms: N_19  and  C_20
REMARK                            x       y       z     vdW  Elec       q    Type
REMARK                         _______ _______ _______ _____ _____    ______ ____
ROOT
ATOM      1  C   UNL     1      42.437 -20.773 -36.925  0.00  0.00    +0.134 A 
ATOM      2  C   UNL     1      43.306 -20.231 -35.974  0.00  0.00    -0.017 A 
ATOM      3  C   UNL     1      44.585 -19.824 -36.366  0.00  0.00    -0.037 A 
ATOM      4  C   UNL     1      44.971 -19.967 -37.693  0.00  0.00    +0.035 A 
ATOM      5  C   UNL     1      44.076 -20.489 -38.620  0.00  0.00    -0.014 A 
ATOM      6  C   UNL     1      42.796 -20.890 -38.264  0.00  0.00    -0.014 A 
ATOM      7  C   UNL     1      44.727 -20.448 -39.971  0.00  0.00    +0.028 C 
ATOM      8  C   UNL     1      44.444 -21.741 -40.755  0.00  0.00    -0.052 C 
ATOM      9  C   UNL     1      44.354 -19.191 -40.735  0.00  0.00    -0.028 C 
ATOM     10  C   UNL     1      45.524 -19.035 -41.660  0.00  0.00    +0.001 C 
ATOM     11  N   UNL     1      46.691 -19.509 -40.919  0.00  0.00    -0.287 N 
ATOM     12  C   UNL     1      47.619 -20.225 -41.793  0.00  0.00    -0.011 C 
ATOM     13  C   UNL     1      46.332 -20.347 -39.654  0.00  0.00    +0.086 C 
ATOM     14  N   UNL     1      46.157 -19.569 -38.299  0.00  0.00    -0.316 N 
ATOM     15  C   UNL     1      47.315 -19.250 -37.476  0.00  0.00    +0.002 C 
ATOM     16  H   UNL     1      47.160 -18.673 -40.571  0.00  0.00    +0.000 HD
ENDROOT
BRANCH   1  17
ATOM     17  O   UNL     1      41.131 -21.155 -36.558  0.00  0.00    -0.412 OA
BRANCH  17  20
ATOM     18  C   UNL     1      40.270 -23.095 -33.534  0.00  0.00    +0.003 C 
ATOM     19  N   UNL     1      40.469 -22.029 -34.477  0.00  0.00    -0.284 N 
ATOM     20  C   UNL     1      40.860 -22.284 -35.771  0.00  0.00    +0.405 C 
ATOM     21  O   UNL     1      41.014 -23.415 -36.220  0.00  0.00    -0.226 OA
ATOM     22  H   UNL     1      40.323 -21.098 -34.192  0.00  0.00    +0.000 HD
ENDBRANCH  17  20
ENDBRANCH   1  17
TORSDOF 2
ENDMDL
MODEL 15
REMARK VINA RESULT:    -5.504     25.099     27.296
REMARK INTER + INTRA:          -6.397
REMARK INTER:                  -6.127
REMARK INTRA:                  -0.270
REMARK UNBOUND:                -0.249
REMARK  Name = cpd93.pdb
REMARK  6 active torsions:
REMARK  status: ('A' for Active; 'I' for Inactive)
REMARK    1  A    between atoms: C_1  and  N_2
REMARK    2  A    between atoms: C_3  and  O_5
REMARK    3  A    between atoms: O_5  and  C_6
REMARK    4  A    between atoms: C_12  and  C_13
REMARK    5  A    between atoms: N_16  and  C_17
REMARK    6  A    between atoms: N_19  and  C_20
REMARK                            x       y       z     vdW  Elec       q    Type
REMARK                         _______ _______ _______ _____ _____    ______ ____
ROOT
ATOM      1  C   UNL     1      45.756 -35.550 -54.077  0.00  0.00    +0.134 A 
ATOM      2  C   UNL     1      45.665 -34.929 -52.828  0.00  0.00    -0.017 A 
ATOM      3  C   UNL     1      46.068 -33.597 -52.693  0.00  0.00    -0.037 A 
ATOM      4  C   UNL     1      46.552 -32.913 -53.802  0.00  0.00    +0.035 A 
ATOM      5  C   UNL     1      46.608 -33.552 -55.035  0.00  0.00    -0.014 A 
ATOM      6  C   UNL     1      46.205 -34.870 -55.204  0.00  0.00    -0.014 A 
ATOM      7  C   UNL     1      47.087 -32.558 -56.053  0.00  0.00    +0.028 C 
ATOM      8  C   UNL     1      48.100 -33.203 -57.015  0.00  0.00    -0.052 C 
ATOM      9  C   UNL     1      45.928 -31.886 -56.767  0.00  0.00    -0.028 C 
ATOM     10  C   UNL     1      46.543 -30.586 -57.192  0.00  0.00    +0.001 C 
ATOM     11  N   UNL     1      47.483 -30.219 -56.136  0.00  0.00    -0.287 N 
ATOM     12  C   UNL     1      48.685 -29.596 -56.690  0.00  0.00    -0.011 C 
ATOM     13  C   UNL     1      47.837 -31.396 -55.175  0.00  0.00    +0.086 C 
ATOM     14  N   UNL     1      46.936 -31.581 -53.901  0.00  0.00    -0.316 N 
ATOM     15  C   UNL     1      47.202 -30.817 -52.690  0.00  0.00    +0.002 C 
ATOM     16  H   UNL     1      47.002 -29.529 -55.560  0.00  0.00    +0.000 HD
ENDROOT
BRANCH   1  17
ATOM     17  O   UNL     1      45.322 -36.881 -54.241  0.00  0.00    -0.412 OA
BRANCH  17  20
ATOM     18  C   UNL     1      41.708 -37.033 -54.993  0.00  0.00    +0.003 C 
ATOM     19  N   UNL     1      42.987 -36.677 -54.443  0.00  0.00    -0.284 N 
ATOM     20  C   UNL     1      44.151 -37.219 -54.936  0.00  0.00    +0.405 C 
ATOM     21  O   UNL     1      44.188 -37.987 -55.892  0.00  0.00    -0.226 OA
ATOM     22  H   UNL     1      43.032 -36.033 -53.700  0.00  0.00    +0.000 HD
ENDBRANCH  17  20
ENDBRANCH   1  17
TORSDOF 2
ENDMDL
MODEL 16
REMARK VINA RESULT:    -5.488     17.180     19.069
REMARK INTER + INTRA:          -6.379
REMARK INTER:                  -6.171
REMARK INTRA:                  -0.208
REMARK UNBOUND:                -0.249
REMARK  Name = cpd93.pdb
REMARK  6 active torsions:
REMARK  status: ('A' for Active; 'I' for Inactive)
REMARK    1  A    between atoms: C_1  and  N_2
REMARK    2  A    between atoms: C_3  and  O_5
REMARK    3  A    between atoms: O_5  and  C_6
REMARK    4  A    between atoms: C_12  and  C_13
REMARK    5  A    between atoms: N_16  and  C_17
REMARK    6  A    between atoms: N_19  and  C_20
REMARK                            x       y       z     vdW  Elec       q    Type
REMARK                         _______ _______ _______ _____ _____    ______ ____
ROOT
ATOM      1  C   UNL     1      43.402 -21.163 -39.431  0.00  0.00    +0.134 A 
ATOM      2  C   UNL     1      42.310 -21.977 -39.745  0.00  0.00    -0.017 A 
ATOM      3  C   UNL     1      41.351 -22.249 -38.764  0.00  0.00    -0.037 A 
ATOM      4  C   UNL     1      41.500 -21.705 -37.494  0.00  0.00    +0.035 A 
ATOM      5  C   UNL     1      42.585 -20.881 -37.219  0.00  0.00    -0.014 A 
ATOM      6  C   UNL     1      43.547 -20.583 -38.175  0.00  0.00    -0.014 A 
ATOM      7  C   UNL     1      42.444 -20.378 -35.812  0.00  0.00    +0.028 C 
ATOM      8  C   UNL     1      43.799 -20.397 -35.085  0.00  0.00    -0.052 C 
ATOM      9  C   UNL     1      41.759 -19.024 -35.767  0.00  0.00    -0.028 C 
ATOM     10  C   UNL     1      41.163 -19.027 -34.392  0.00  0.00    +0.001 C 
ATOM     11  N   UNL     1      40.778 -20.410 -34.121  0.00  0.00    -0.287 N 
ATOM     12  C   UNL     1      41.017 -20.763 -32.722  0.00  0.00    -0.011 C 
ATOM     13  C   UNL     1      41.428 -21.443 -35.093  0.00  0.00    +0.086 C 
ATOM     14  N   UNL     1      40.638 -21.792 -36.406  0.00  0.00    -0.316 N 
ATOM     15  C   UNL     1      39.595 -22.807 -36.393  0.00  0.00    +0.002 C 
ATOM     16  H   UNL     1      39.775 -20.461 -34.296  0.00  0.00    +0.000 HD
ENDROOT
BRANCH   1  17
ATOM     17  O   UNL     1      44.359 -20.848 -40.416  0.00  0.00    -0.412 OA
BRANCH  17  20
ATOM     18  C   UNL     1      46.538 -23.018 -42.464  0.00  0.00    +0.003 C 
ATOM     19  N   UNL     1      45.542 -22.072 -42.039  0.00  0.00    -0.284 N 
ATOM     20  C   UNL     1      45.441 -21.687 -40.722  0.00  0.00    +0.405 C 
ATOM     21  O   UNL     1      46.206 -22.071 -39.844  0.00  0.00    -0.226 OA
ATOM     22  H   UNL     1      44.922 -21.693 -42.701  0.00  0.00    +0.000 HD
ENDBRANCH  17  20
ENDBRANCH   1  17
TORSDOF 2
ENDMDL
MODEL 17
REMARK VINA RESULT:    -5.470     20.782     22.365
REMARK INTER + INTRA:          -6.359
REMARK INTER:                  -6.086
REMARK INTRA:                  -0.273
REMARK UNBOUND:                -0.249
REMARK  Name = cpd93.pdb
REMARK  6 active torsions:
REMARK  status: ('A' for Active; 'I' for Inactive)
REMARK    1  A    between atoms: C_1  and  N_2
REMARK    2  A    between atoms: C_3  and  O_5
REMARK    3  A    between atoms: O_5  and  C_6
REMARK    4  A    between atoms: C_12  and  C_13
REMARK    5  A    between atoms: N_16  and  C_17
REMARK    6  A    between atoms: N_19  and  C_20
REMARK                            x       y       z     vdW  Elec       q    Type
REMARK                         _______ _______ _______ _____ _____    ______ ____
ROOT
ATOM      1  C   UNL     1      46.310 -19.141 -40.651  0.00  0.00    +0.134 A 
ATOM      2  C   UNL     1      47.002 -17.931 -40.747  0.00  0.00    -0.017 A 
ATOM      3  C   UNL     1      47.194 -17.157 -39.598  0.00  0.00    -0.037 A 
ATOM      4  C   UNL     1      46.692 -17.603 -38.382  0.00  0.00    +0.035 A 
ATOM      5  C   UNL     1      46.028 -18.822 -38.315  0.00  0.00    -0.014 A 
ATOM      6  C   UNL     1      45.832 -19.618 -39.435  0.00  0.00    -0.014 A 
ATOM      7  C   UNL     1      45.676 -19.083 -36.880  0.00  0.00    +0.028 C 
ATOM      8  C   UNL     1      44.254 -19.659 -36.760  0.00  0.00    -0.052 C 
ATOM      9  C   UNL     1      46.727 -19.934 -36.191  0.00  0.00    -0.028 C 
ATOM     10  C   UNL     1      46.551 -19.537 -34.756  0.00  0.00    +0.001 C 
ATOM     11  N   UNL     1      46.187 -18.123 -34.769  0.00  0.00    -0.287 N 
ATOM     12  C   UNL     1      45.203 -17.819 -33.731  0.00  0.00    -0.011 C 
ATOM     13  C   UNL     1      45.725 -17.608 -36.167  0.00  0.00    +0.086 C 
ATOM     14  N   UNL     1      46.830 -17.028 -37.123  0.00  0.00    -0.316 N 
ATOM     15  C   UNL     1      47.251 -15.640 -37.008  0.00  0.00    +0.002 C 
ATOM     16  H   UNL     1      47.043 -17.611 -34.557  0.00  0.00    +0.000 HD
ENDROOT
BRANCH   1  17
ATOM     17  O   UNL     1      46.138 -19.953 -41.790  0.00  0.00    -0.412 OA
BRANCH  17  20
ATOM     18  C   UNL     1      48.221 -23.003 -41.729  0.00  0.00    +0.003 C 
ATOM     19  N   UNL     1      47.764 -21.644 -41.626  0.00  0.00    -0.284 N 
ATOM     20  C   UNL     1      46.437 -21.323 -41.801  0.00  0.00    +0.405 C 
ATOM     21  O   UNL     1      45.560 -22.156 -42.000  0.00  0.00    -0.226 OA
ATOM     22  H   UNL     1      48.411 -20.930 -41.428  0.00  0.00    +0.000 HD
ENDBRANCH  17  20
ENDBRANCH   1  17
TORSDOF 2
ENDMDL
MODEL 18
REMARK VINA RESULT:    -5.443     19.391     20.956
REMARK INTER + INTRA:          -6.329
REMARK INTER:                  -6.082
REMARK INTRA:                  -0.247
REMARK UNBOUND:                -0.249
REMARK  Name = cpd93.pdb
REMARK  6 active torsions:
REMARK  status: ('A' for Active; 'I' for Inactive)
REMARK    1  A    between atoms: C_1  and  N_2
REMARK    2  A    between atoms: C_3  and  O_5
REMARK    3  A    between atoms: O_5  and  C_6
REMARK    4  A    between atoms: C_12  and  C_13
REMARK    5  A    between atoms: N_16  and  C_17
REMARK    6  A    between atoms: N_19  and  C_20
REMARK                            x       y       z     vdW  Elec       q    Type
REMARK                         _______ _______ _______ _____ _____    ______ ____
ROOT
ATOM      1  C   UNL     1      44.653 -20.358 -41.660  0.00  0.00    +0.134 A 
ATOM      2  C   UNL     1      44.856 -18.975 -41.683  0.00  0.00    -0.017 A 
ATOM      3  C   UNL     1      44.133 -18.160 -40.806  0.00  0.00    -0.037 A 
ATOM      4  C   UNL     1      43.227 -18.739 -39.926  0.00  0.00    +0.035 A 
ATOM      5  C   UNL     1      43.064 -20.119 -39.911  0.00  0.00    -0.014 A 
ATOM      6  C   UNL     1      43.775 -20.955 -40.762  0.00  0.00    -0.014 A 
ATOM      7  C   UNL     1      42.096 -20.463 -38.818  0.00  0.00    +0.028 C 
ATOM      8  C   UNL     1      41.111 -21.551 -39.280  0.00  0.00    -0.052 C 
ATOM      9  C   UNL     1      42.811 -20.812 -37.526  0.00  0.00    -0.028 C 
ATOM     10  C   UNL     1      41.768 -20.482 -36.500  0.00  0.00    +0.001 C 
ATOM     11  N   UNL     1      41.040 -19.328 -37.020  0.00  0.00    -0.287 N 
ATOM     12  C   UNL     1      39.615 -19.412 -36.702  0.00  0.00    -0.011 C 
ATOM     13  C   UNL     1      41.275 -19.072 -38.541  0.00  0.00    +0.086 C 
ATOM     14  N   UNL     1      42.466 -18.126 -38.937  0.00  0.00    -0.316 N 
ATOM     15  C   UNL     1      42.287 -16.681 -38.957  0.00  0.00    +0.002 C 
ATOM     16  H   UNL     1      41.426 -18.513 -36.542  0.00  0.00    +0.000 HD
ENDROOT
BRANCH   1  17
ATOM     17  O   UNL     1      45.398 -21.199 -42.511  0.00  0.00    -0.412 OA
BRANCH  17  20
ATOM     18  C   UNL     1      48.240 -22.546 -40.573  0.00  0.00    +0.003 C 
ATOM     19  N   UNL     1      47.183 -21.706 -41.066  0.00  0.00    -0.284 N 
ATOM     20  C   UNL     1      46.311 -22.150 -42.033  0.00  0.00    +0.405 C 
ATOM     21  O   UNL     1      46.336 -23.285 -42.498  0.00  0.00    -0.226 OA
ATOM     22  H   UNL     1      47.080 -20.796 -40.706  0.00  0.00    +0.000 HD
ENDBRANCH  17  20
ENDBRANCH   1  17
TORSDOF 2
ENDMDL
MODEL 19
REMARK VINA RESULT:    -5.425     24.569     26.651
REMARK INTER + INTRA:          -6.309
REMARK INTER:                  -6.029
REMARK INTRA:                  -0.280
REMARK UNBOUND:                -0.249
REMARK  Name = cpd93.pdb
REMARK  6 active torsions:
REMARK  status: ('A' for Active; 'I' for Inactive)
REMARK    1  A    between atoms: C_1  and  N_2
REMARK    2  A    between atoms: C_3  and  O_5
REMARK    3  A    between atoms: O_5  and  C_6
REMARK    4  A    between atoms: C_12  and  C_13
REMARK    5  A    between atoms: N_16  and  C_17
REMARK    6  A    between atoms: N_19  and  C_20
REMARK                            x       y       z     vdW  Elec       q    Type
REMARK                         _______ _______ _______ _____ _____    ______ ____
ROOT
ATOM      1  C   UNL     1      48.539 -31.338 -53.772  0.00  0.00    +0.134 A 
ATOM      2  C   UNL     1      49.611 -31.967 -54.410  0.00  0.00    -0.017 A 
ATOM      3  C   UNL     1      49.556 -33.342 -54.653  0.00  0.00    -0.037 A 
ATOM      4  C   UNL     1      48.435 -34.062 -54.256  0.00  0.00    +0.035 A 
ATOM      5  C   UNL     1      47.375 -33.404 -53.644  0.00  0.00    -0.014 A 
ATOM      6  C   UNL     1      47.396 -32.038 -53.399  0.00  0.00    -0.014 A 
ATOM      7  C   UNL     1      46.282 -34.404 -53.404  0.00  0.00    +0.028 C 
ATOM      8  C   UNL     1      45.648 -34.202 -52.017  0.00  0.00    -0.052 C 
ATOM      9  C   UNL     1      45.267 -34.406 -54.532  0.00  0.00    -0.028 C 
ATOM     10  C   UNL     1      44.712 -35.796 -54.443  0.00  0.00    +0.001 C 
ATOM     11  N   UNL     1      45.822 -36.649 -54.027  0.00  0.00    -0.287 N 
ATOM     12  C   UNL     1      45.372 -37.694 -53.107  0.00  0.00    -0.011 C 
ATOM     13  C   UNL     1      47.036 -35.859 -53.448  0.00  0.00    +0.086 C 
ATOM     14  N   UNL     1      48.151 -35.407 -54.460  0.00  0.00    -0.316 N 
ATOM     15  C   UNL     1      49.220 -36.320 -54.837  0.00  0.00    +0.002 C 
ATOM     16  H   UNL     1      46.166 -37.097 -54.876  0.00  0.00    +0.000 HD
ENDROOT
BRANCH   1  17
ATOM     17  O   UNL     1      48.561 -29.947 -53.550  0.00  0.00    -0.412 OA
BRANCH  17  20
ATOM     18  C   UNL     1      46.547 -28.149 -56.072  0.00  0.00    +0.003 C 
ATOM     19  N   UNL     1      47.437 -29.071 -55.421  0.00  0.00    -0.284 N 
ATOM     20  C   UNL     1      47.579 -29.080 -54.053  0.00  0.00    +0.405 C 
ATOM     21  O   UNL     1      46.935 -28.357 -53.301  0.00  0.00    -0.226 OA
ATOM     22  H   UNL     1      47.954 -29.708 -55.964  0.00  0.00    +0.000 HD
ENDBRANCH  17  20
ENDBRANCH   1  17
TORSDOF 2
ENDMDL
MODEL 20
REMARK VINA RESULT:    -5.386     17.362     19.824
REMARK INTER + INTRA:          -6.265
REMARK INTER:                  -6.123
REMARK INTRA:                  -0.143
REMARK UNBOUND:                -0.249
REMARK  Name = cpd93.pdb
REMARK  6 active torsions:
REMARK  status: ('A' for Active; 'I' for Inactive)
REMARK    1  A    between atoms: C_1  and  N_2
REMARK    2  A    between atoms: C_3  and  O_5
REMARK    3  A    between atoms: O_5  and  C_6
REMARK    4  A    between atoms: C_12  and  C_13
REMARK    5  A    between atoms: N_16  and  C_17
REMARK    6  A    between atoms: N_19  and  C_20
REMARK                            x       y       z     vdW  Elec       q    Type
REMARK                         _______ _______ _______ _____ _____    ______ ____
ROOT
ATOM      1  C   UNL     1      42.032 -20.685 -35.618  0.00  0.00    +0.134 A 
ATOM      2  C   UNL     1      41.113 -21.615 -36.110  0.00  0.00    -0.017 A 
ATOM      3  C   UNL     1      41.133 -21.948 -37.468  0.00  0.00    -0.037 A 
ATOM      4  C   UNL     1      42.067 -21.350 -38.305  0.00  0.00    +0.035 A 
ATOM      5  C   UNL     1      42.984 -20.446 -37.781  0.00  0.00    -0.014 A 
ATOM      6  C   UNL     1      42.996 -20.104 -36.435  0.00  0.00    -0.014 A 
ATOM      7  C   UNL     1      43.911 -20.030 -38.885  0.00  0.00    +0.028 C 
ATOM      8  C   UNL     1      44.191 -18.518 -38.824  0.00  0.00    -0.052 C 
ATOM      9  C   UNL     1      45.173 -20.872 -38.904  0.00  0.00    -0.028 C 
ATOM     10  C   UNL     1      45.592 -20.765 -40.339  0.00  0.00    +0.001 C 
ATOM     11  N   UNL     1      44.358 -20.702 -41.118  0.00  0.00    -0.287 N 
ATOM     12  C   UNL     1      44.491 -19.789 -42.252  0.00  0.00    -0.011 C 
ATOM     13  C   UNL     1      43.094 -20.374 -40.263  0.00  0.00    +0.086 C 
ATOM     14  N   UNL     1      42.301 -21.588 -39.655  0.00  0.00    -0.316 N 
ATOM     15  C   UNL     1      41.300 -22.287 -40.447  0.00  0.00    +0.002 C 
ATOM     16  H   UNL     1      44.207 -21.643 -41.480  0.00  0.00    +0.000 HD
ENDROOT
BRANCH   1  17
ATOM     17  O   UNL     1      42.051 -20.363 -34.246  0.00  0.00    -0.412 OA
BRANCH  17  20
ATOM     18  C   UNL     1      41.281 -23.176 -31.979  0.00  0.00    +0.003 C 
ATOM     19  N   UNL     1      41.946 -22.273 -32.877  0.00  0.00    -0.284 N 
ATOM     20  C   UNL     1      41.350 -21.100 -33.281  0.00  0.00    +0.405 C 
ATOM     21  O   UNL     1      40.257 -20.722 -32.874  0.00  0.00    -0.226 OA
ATOM     22  H   UNL     1      42.845 -22.496 -33.211  0.00  0.00    +0.000 HD
ENDBRANCH  17  20
ENDBRANCH   1  17
TORSDOF 2
ENDMDL
