@<TRIPOS>MOLECULE
*****
 28 32 0 0 0
SMALL
GASTEIGER

@<TRIPOS>ATOM
      1 F           3.4641    1.0000    0.0000 F       1  UNL1       -0.2043
      2 C           3.4641    0.0000    0.0000 C.ar    1  UNL1        0.1427
      3 C           4.3301   -0.5000    0.0000 C.ar    1  UNL1        0.0295
      4 C           4.3301   -1.5000    0.0000 C.ar    1  UNL1        0.0023
      5 C           3.4641   -2.0000    0.0000 C.ar    1  UNL1        0.0000
      6 C           2.5981   -1.5000    0.0000 C.ar    1  UNL1        0.0047
      7 C           2.5981   -0.5000    0.0000 C.ar    1  UNL1        0.0829
      8 C           1.7321    0.0000    0.0000 C.3     1  UNL1        0.3524
      9 N           0.8660   -0.5000    0.0000 N.ar    1  UNL1       -0.1557
     10 C           0.8660   -1.5000    0.0000 C.ar    1  UNL1        0.2904
     11 C           0.0000   -2.0000    0.0000 C.ar    1  UNL1        0.0756
     12 C          -0.8660   -1.5000    0.0000 C.ar    1  UNL1        0.0100
     13 C          -0.8660   -0.5000    0.0000 C.ar    1  UNL1        0.0703
     14 C          -1.7321   -0.0000    0.0000 C.3     1  UNL1        0.1385
     15 N          -2.5981   -0.5000    0.0000 N.ar    1  UNL1       -0.3266
     16 C          -2.7026   -1.4945    0.0000 C.ar    1  UNL1        0.0334
     17 C          -3.6808   -1.7024    0.0000 C.ar    1  UNL1       -0.0091
     18 C          -4.1808   -0.8364    0.0000 C.ar    1  UNL1        0.0129
     19 C          -5.1589   -0.6285    0.0000 C.ar    1  UNL1        0.0012
     20 C          -5.4679    0.3226    0.0000 C.ar    1  UNL1        0.0001
     21 C          -4.7988    1.0657    0.0000 C.ar    1  UNL1        0.0015
     22 C          -3.8206    0.8578    0.0000 C.ar    1  UNL1        0.0172
     23 C          -3.5116   -0.0933    0.0000 C.ar    1  UNL1        0.0596
     24 C          -3.9898   -2.6535    0.0000 C.3     1  UNL1        0.0275
     25 C          -3.3206   -3.3966    0.0000 C.3     1  UNL1        0.0051
     26 C          -2.3425   -3.1887    0.0000 C.3     1  UNL1        0.0066
     27 C          -2.0335   -2.2377    0.0000 C.3     1  UNL1        0.0435
     28 C           0.0000   -0.0000    0.0000 C.ar    1  UNL1        0.2878
@<TRIPOS>UNITY_ATOM_ATTR
9 1
charge 1
@<TRIPOS>BOND
     1     1     2    1
     2     2     3   ar
     3     3     4   ar
     4     4     5   ar
     5     5     6   ar
     6     6     7   ar
     7     2     7   ar
     8     7     8    1
     9     8     9    1
    10     9    10   ar
    11    10    11   ar
    12    11    12   ar
    13    12    13   ar
    14    13    14    1
    15    14    15    1
    16    15    16   ar
    17    16    17   ar
    18    17    18   ar
    19    18    19   ar
    20    19    20   ar
    21    20    21   ar
    22    21    22   ar
    23    22    23   ar
    24    18    23   ar
    25    15    23   ar
    26    17    24    1
    27    24    25    1
    28    25    26    1
    29    26    27    1
    30    16    27    1
    31    13    28   ar
    32     9    28   ar
