MODEL 1
REMARK VINA RESULT:    -7.900      0.000      0.000
REMARK INTER + INTRA:         -11.594
REMARK INTER:                  -9.747
REMARK INTRA:                  -1.848
REMARK UNBOUND:                -1.848
REMARK  Name = cpd363.pdb
REMARK  4 active torsions:
REMARK  status: ('A' for Active; 'I' for Inactive)
REMARK    1  A    between atoms: C_7  and  C_8
REMARK    2  A    between atoms: C_8  and  N_9
REMARK    3  A    between atoms: C_13  and  C_14
REMARK    4  A    between atoms: C_14  and  N_15
REMARK                            x       y       z     vdW  Elec       q    Type
REMARK                         _______ _______ _______ _____ _____    ______ ____
ROOT
ATOM      1  N   UNL A   1      33.244 -37.759 -32.654  0.00  0.00    -0.349 N 
ATOM      2  C   UNL A   1      32.584 -37.141 -33.663  0.00  0.00    +0.005 A 
ATOM      3  C   UNL A   1      32.584 -35.759 -33.772  0.00  0.00    -0.045 A 
ATOM      4  C   UNL A   1      33.307 -35.006 -32.858  0.00  0.00    -0.054 A 
ATOM      5  C   UNL A   1      34.039 -35.647 -31.854  0.00  0.00    -0.012 A 
ATOM      6  C   UNL A   1      33.967 -37.042 -31.760  0.00  0.00    +0.010 A 
ENDROOT
BRANCH   1   7
ATOM      7  C   UNL A   1      33.225 -39.246 -32.568  0.00  0.00    +0.050 C 
BRANCH   7  14
ATOM      8  F   UNL A   1      32.246 -39.556 -29.966  0.00  0.00    -0.205 F 
ATOM      9  C   UNL A   1      33.530 -39.885 -30.161  0.00  0.00    +0.128 A 
ATOM     10  C   UNL A   1      34.289 -40.312 -29.079  0.00  0.00    -0.026 A 
ATOM     11  C   UNL A   1      35.635 -40.614 -29.267  0.00  0.00    -0.059 A 
ATOM     12  C   UNL A   1      36.208 -40.485 -30.533  0.00  0.00    -0.061 A 
ATOM     13  C   UNL A   1      35.438 -40.053 -31.618  0.00  0.00    -0.054 A 
ATOM     14  C   UNL A   1      34.083 -39.748 -31.439  0.00  0.00    +0.007 A 
ENDBRANCH   7  14
ENDBRANCH   1   7
BRANCH   5  15
ATOM     15  C   UNL A   1      34.887 -34.826 -30.910  0.00  0.00    +0.050 C 
BRANCH  15  16
ATOM     16  N   UNL A   1      35.612 -35.643 -29.937  0.00  0.00    -0.339 N 
ATOM     17  C   UNL A   1      35.093 -36.146 -28.764  0.00  0.00    +0.023 A 
ATOM     18  C   UNL A   1      36.045 -36.968 -28.192  0.00  0.00    -0.019 A 
ATOM     19  C   UNL A   1      37.190 -36.955 -29.030  0.00  0.00    +0.003 A 
ATOM     20  C   UNL A   1      38.438 -37.608 -28.975  0.00  0.00    -0.052 A 
ATOM     21  C   UNL A   1      39.366 -37.417 -30.001  0.00  0.00    -0.061 A 
ATOM     22  C   UNL A   1      39.068 -36.582 -31.071  0.00  0.00    -0.060 A 
ATOM     23  C   UNL A   1      37.840 -35.917 -31.148  0.00  0.00    -0.038 A 
ATOM     24  C   UNL A   1      36.904 -36.117 -30.115  0.00  0.00    +0.050 A 
ATOM     25  C   UNL A   1      35.813 -37.729 -26.927  0.00  0.00    -0.025 C 
ATOM     26  C   UNL A   1      34.313 -37.824 -26.605  0.00  0.00    -0.049 C 
ATOM     27  C   UNL A   1      33.609 -36.471 -26.786  0.00  0.00    -0.047 C 
ATOM     28  C   UNL A   1      33.709 -35.950 -28.231  0.00  0.00    -0.012 C 
ENDBRANCH  15  16
ENDBRANCH   5  15
TORSDOF 4
ENDMDL
MODEL 2
REMARK VINA RESULT:    -7.567      2.895      6.058
REMARK INTER + INTRA:         -11.184
REMARK INTER:                 -10.401
REMARK INTRA:                  -0.783
REMARK UNBOUND:                -1.848
REMARK  Name = cpd363.pdb
REMARK  4 active torsions:
REMARK  status: ('A' for Active; 'I' for Inactive)
REMARK    1  A    between atoms: C_7  and  C_8
REMARK    2  A    between atoms: C_8  and  N_9
REMARK    3  A    between atoms: C_13  and  C_14
REMARK    4  A    between atoms: C_14  and  N_15
REMARK                            x       y       z     vdW  Elec       q    Type
REMARK                         _______ _______ _______ _____ _____    ______ ____
ROOT
ATOM      1  N   UNL A   1      38.282 -35.970 -30.975  0.00  0.00    -0.349 N 
ATOM      2  C   UNL A   1      38.649 -36.921 -30.082  0.00  0.00    +0.005 A 
ATOM      3  C   UNL A   1      37.701 -37.715 -29.457  0.00  0.00    -0.045 A 
ATOM      4  C   UNL A   1      36.362 -37.559 -29.785  0.00  0.00    -0.054 A 
ATOM      5  C   UNL A   1      35.988 -36.621 -30.752  0.00  0.00    -0.012 A 
ATOM      6  C   UNL A   1      36.980 -35.812 -31.318  0.00  0.00    +0.010 A 
ENDROOT
BRANCH   1   7
ATOM      7  C   UNL A   1      39.327 -35.135 -31.630  0.00  0.00    +0.050 C 
BRANCH   7  14
ATOM      8  F   UNL A   1      40.168 -36.784 -33.726  0.00  0.00    -0.205 F 
ATOM      9  C   UNL A   1      41.029 -36.627 -32.711  0.00  0.00    +0.128 A 
ATOM     10  C   UNL A   1      42.240 -37.307 -32.742  0.00  0.00    -0.026 A 
ATOM     11  C   UNL A   1      43.118 -37.181 -31.670  0.00  0.00    -0.059 A 
ATOM     12  C   UNL A   1      42.778 -36.379 -30.579  0.00  0.00    -0.061 A 
ATOM     13  C   UNL A   1      41.556 -35.699 -30.554  0.00  0.00    -0.054 A 
ATOM     14  C   UNL A   1      40.665 -35.818 -31.629  0.00  0.00    +0.007 A 
ENDBRANCH   7  14
ENDBRANCH   1   7
BRANCH   5  15
ATOM     15  C   UNL A   1      34.537 -36.510 -31.161  0.00  0.00    +0.050 C 
BRANCH  15  16
ATOM     16  N   UNL A   1      33.783 -35.564 -30.341  0.00  0.00    -0.339 N 
ATOM     17  C   UNL A   1      33.107 -35.867 -29.179  0.00  0.00    +0.023 A 
ATOM     18  C   UNL A   1      32.636 -34.688 -28.636  0.00  0.00    -0.019 A 
ATOM     19  C   UNL A   1      33.019 -33.629 -29.500  0.00  0.00    +0.003 A 
ATOM     20  C   UNL A   1      32.846 -32.230 -29.453  0.00  0.00    -0.052 A 
ATOM     21  C   UNL A   1      33.389 -31.431 -30.462  0.00  0.00    -0.061 A 
ATOM     22  C   UNL A   1      34.093 -32.008 -31.512  0.00  0.00    -0.060 A 
ATOM     23  C   UNL A   1      34.276 -33.393 -31.585  0.00  0.00    -0.038 A 
ATOM     24  C   UNL A   1      33.731 -34.195 -30.564  0.00  0.00    +0.050 A 
ATOM     25  C   UNL A   1      31.893 -34.624 -27.341  0.00  0.00    -0.025 C 
ATOM     26  C   UNL A   1      32.100 -35.907 -26.521  0.00  0.00    -0.049 C 
ATOM     27  C   UNL A   1      31.951 -37.165 -27.390  0.00  0.00    -0.047 C 
ATOM     28  C   UNL A   1      32.983 -37.210 -28.531  0.00  0.00    -0.012 C 
ENDBRANCH  15  16
ENDBRANCH   5  15
TORSDOF 4
ENDMDL
MODEL 3
REMARK VINA RESULT:    -7.452      1.558      4.123
REMARK INTER + INTRA:         -11.042
REMARK INTER:                  -9.471
REMARK INTRA:                  -1.571
REMARK UNBOUND:                -1.848
REMARK  Name = cpd363.pdb
REMARK  4 active torsions:
REMARK  status: ('A' for Active; 'I' for Inactive)
REMARK    1  A    between atoms: C_7  and  C_8
REMARK    2  A    between atoms: C_8  and  N_9
REMARK    3  A    between atoms: C_13  and  C_14
REMARK    4  A    between atoms: C_14  and  N_15
REMARK                            x       y       z     vdW  Elec       q    Type
REMARK                         _______ _______ _______ _____ _____    ______ ____
ROOT
ATOM      1  N   UNL A   1      34.347 -39.494 -31.597  0.00  0.00    -0.349 N 
ATOM      2  C   UNL A   1      34.369 -40.768 -31.136  0.00  0.00    +0.005 A 
ATOM      3  C   UNL A   1      35.194 -41.130 -30.083  0.00  0.00    -0.045 A 
ATOM      4  C   UNL A   1      35.975 -40.161 -29.469  0.00  0.00    -0.054 A 
ATOM      5  C   UNL A   1      35.906 -38.834 -29.903  0.00  0.00    -0.012 A 
ATOM      6  C   UNL A   1      35.092 -38.531 -31.001  0.00  0.00    +0.010 A 
ENDROOT
BRANCH   1   7
ATOM      7  C   UNL A   1      33.446 -39.138 -32.729  0.00  0.00    +0.050 C 
BRANCH   7  14
ATOM      8  F   UNL A   1      31.287 -38.585 -31.041  0.00  0.00    -0.205 F 
ATOM      9  C   UNL A   1      31.801 -37.543 -31.708  0.00  0.00    +0.128 A 
ATOM     10  C   UNL A   1      31.221 -36.290 -31.556  0.00  0.00    -0.026 A 
ATOM     11  C   UNL A   1      31.724 -35.213 -32.280  0.00  0.00    -0.059 A 
ATOM     12  C   UNL A   1      32.801 -35.399 -33.149  0.00  0.00    -0.061 A 
ATOM     13  C   UNL A   1      33.379 -36.664 -33.299  0.00  0.00    -0.054 A 
ATOM     14  C   UNL A   1      32.880 -37.754 -32.574  0.00  0.00    +0.007 A 
ENDBRANCH   7  14
ENDBRANCH   1   7
BRANCH   5  15
ATOM     15  C   UNL A   1      36.700 -37.771 -29.180  0.00  0.00    +0.050 C 
BRANCH  15  16
ATOM     16  N   UNL A   1      36.797 -36.521 -29.933  0.00  0.00    -0.339 N 
ATOM     17  C   UNL A   1      35.875 -35.497 -29.915  0.00  0.00    +0.023 A 
ATOM     18  C   UNL A   1      36.388 -34.445 -30.648  0.00  0.00    -0.019 A 
ATOM     19  C   UNL A   1      37.656 -34.841 -31.148  0.00  0.00    +0.003 A 
ATOM     20  C   UNL A   1      38.638 -34.191 -31.924  0.00  0.00    -0.052 A 
ATOM     21  C   UNL A   1      39.831 -34.850 -32.224  0.00  0.00    -0.061 A 
ATOM     22  C   UNL A   1      40.054 -36.144 -31.768  0.00  0.00    -0.060 A 
ATOM     23  C   UNL A   1      39.095 -36.814 -31.001  0.00  0.00    -0.038 A 
ATOM     24  C   UNL A   1      37.895 -36.144 -30.695  0.00  0.00    +0.050 A 
ATOM     25  C   UNL A   1      35.680 -33.139 -30.808  0.00  0.00    -0.025 C 
ATOM     26  C   UNL A   1      34.583 -32.970 -29.744  0.00  0.00    -0.049 C 
ATOM     27  C   UNL A   1      33.741 -34.247 -29.592  0.00  0.00    -0.047 C 
ATOM     28  C   UNL A   1      34.588 -35.454 -29.153  0.00  0.00    -0.012 C 
ENDBRANCH  15  16
ENDBRANCH   5  15
TORSDOF 4
ENDMDL
MODEL 4
REMARK VINA RESULT:    -7.440      2.863      6.518
REMARK INTER + INTRA:         -11.027
REMARK INTER:                 -10.278
REMARK INTRA:                  -0.749
REMARK UNBOUND:                -1.848
REMARK  Name = cpd363.pdb
REMARK  4 active torsions:
REMARK  status: ('A' for Active; 'I' for Inactive)
REMARK    1  A    between atoms: C_7  and  C_8
REMARK    2  A    between atoms: C_8  and  N_9
REMARK    3  A    between atoms: C_13  and  C_14
REMARK    4  A    between atoms: C_14  and  N_15
REMARK                            x       y       z     vdW  Elec       q    Type
REMARK                         _______ _______ _______ _____ _____    ______ ____
ROOT
ATOM      1  N   UNL A   1      38.258 -36.116 -30.739  0.00  0.00    -0.349 N 
ATOM      2  C   UNL A   1      38.673 -37.098 -29.903  0.00  0.00    +0.005 A 
ATOM      3  C   UNL A   1      37.758 -37.917 -29.258  0.00  0.00    -0.045 A 
ATOM      4  C   UNL A   1      36.404 -37.752 -29.509  0.00  0.00    -0.054 A 
ATOM      5  C   UNL A   1      35.979 -36.780 -30.420  0.00  0.00    -0.012 A 
ATOM      6  C   UNL A   1      36.940 -35.948 -31.008  0.00  0.00    +0.010 A 
ENDROOT
BRANCH   1   7
ATOM      7  C   UNL A   1      39.266 -35.255 -31.418  0.00  0.00    +0.050 C 
BRANCH   7  14
ATOM      8  F   UNL A   1      40.057 -36.696 -33.680  0.00  0.00    -0.205 F 
ATOM      9  C   UNL A   1      40.942 -36.636 -32.675  0.00  0.00    +0.128 A 
ATOM     10  C   UNL A   1      42.150 -37.309 -32.797  0.00  0.00    -0.026 A 
ATOM     11  C   UNL A   1      43.053 -37.287 -31.739  0.00  0.00    -0.059 A 
ATOM     12  C   UNL A   1      42.739 -36.592 -30.569  0.00  0.00    -0.061 A 
ATOM     13  C   UNL A   1      41.519 -35.918 -30.451  0.00  0.00    -0.054 A 
ATOM     14  C   UNL A   1      40.604 -35.935 -31.512  0.00  0.00    +0.007 A 
ENDBRANCH   7  14
ENDBRANCH   1   7
BRANCH   5  15
ATOM     15  C   UNL A   1      34.509 -36.657 -30.748  0.00  0.00    +0.050 C 
BRANCH  15  16
ATOM     16  N   UNL A   1      33.834 -35.622 -29.966  0.00  0.00    -0.339 N 
ATOM     17  C   UNL A   1      33.621 -34.321 -30.369  0.00  0.00    +0.023 A 
ATOM     18  C   UNL A   1      32.842 -33.699 -29.414  0.00  0.00    -0.019 A 
ATOM     19  C   UNL A   1      32.583 -34.640 -28.384  0.00  0.00    +0.003 A 
ATOM     20  C   UNL A   1      31.838 -34.586 -27.187  0.00  0.00    -0.052 A 
ATOM     21  C   UNL A   1      31.738 -35.723 -26.383  0.00  0.00    -0.061 A 
ATOM     22  C   UNL A   1      32.371 -36.904 -26.752  0.00  0.00    -0.060 A 
ATOM     23  C   UNL A   1      33.120 -36.983 -27.931  0.00  0.00    -0.038 A 
ATOM     24  C   UNL A   1      33.215 -35.837 -28.743  0.00  0.00    +0.050 A 
ATOM     25  C   UNL A   1      32.368 -32.287 -29.539  0.00  0.00    -0.025 C 
ATOM     26  C   UNL A   1      32.479 -31.793 -30.991  0.00  0.00    -0.049 C 
ATOM     27  C   UNL A   1      33.831 -32.171 -31.615  0.00  0.00    -0.047 C 
ATOM     28  C   UNL A   1      34.047 -33.694 -31.659  0.00  0.00    -0.012 C 
ENDBRANCH  15  16
ENDBRANCH   5  15
TORSDOF 4
ENDMDL
MODEL 5
REMARK VINA RESULT:    -7.415      2.556      5.340
REMARK INTER + INTRA:         -10.997
REMARK INTER:                  -9.992
REMARK INTRA:                  -1.005
REMARK UNBOUND:                -1.848
REMARK  Name = cpd363.pdb
REMARK  4 active torsions:
REMARK  status: ('A' for Active; 'I' for Inactive)
REMARK    1  A    between atoms: C_7  and  C_8
REMARK    2  A    between atoms: C_8  and  N_9
REMARK    3  A    between atoms: C_13  and  C_14
REMARK    4  A    between atoms: C_14  and  N_15
REMARK                            x       y       z     vdW  Elec       q    Type
REMARK                         _______ _______ _______ _____ _____    ______ ____
ROOT
ATOM      1  N   UNL A   1      36.866 -38.947 -28.641  0.00  0.00    -0.349 N 
ATOM      2  C   UNL A   1      36.981 -40.285 -28.820  0.00  0.00    +0.005 A 
ATOM      3  C   UNL A   1      35.955 -41.016 -29.398  0.00  0.00    -0.045 A 
ATOM      4  C   UNL A   1      34.815 -40.358 -29.836  0.00  0.00    -0.054 A 
ATOM      5  C   UNL A   1      34.722 -38.969 -29.708  0.00  0.00    -0.012 A 
ATOM      6  C   UNL A   1      35.766 -38.284 -29.074  0.00  0.00    +0.010 A 
ENDROOT
BRANCH   1   7
ATOM      7  C   UNL A   1      37.988 -38.191 -28.018  0.00  0.00    +0.050 C 
BRANCH   7  14
ATOM      8  F   UNL A   1      40.631 -39.064 -27.744  0.00  0.00    -0.205 F 
ATOM      9  C   UNL A   1      40.358 -38.327 -28.830  0.00  0.00    +0.128 A 
ATOM     10  C   UNL A   1      41.386 -38.016 -29.711  0.00  0.00    -0.026 A 
ATOM     11  C   UNL A   1      41.117 -37.215 -30.816  0.00  0.00    -0.059 A 
ATOM     12  C   UNL A   1      39.824 -36.733 -31.030  0.00  0.00    -0.061 A 
ATOM     13  C   UNL A   1      38.794 -37.048 -30.138  0.00  0.00    -0.054 A 
ATOM     14  C   UNL A   1      39.055 -37.854 -29.023  0.00  0.00    +0.007 A 
ENDBRANCH   7  14
ENDBRANCH   1   7
BRANCH   5  15
ATOM     15  C   UNL A   1      33.512 -38.248 -30.256  0.00  0.00    +0.050 C 
BRANCH  15  16
ATOM     16  N   UNL A   1      33.236 -36.988 -29.567  0.00  0.00    -0.339 N 
ATOM     17  C   UNL A   1      32.502 -36.850 -28.409  0.00  0.00    +0.023 A 
ATOM     18  C   UNL A   1      32.581 -35.531 -28.007  0.00  0.00    -0.019 A 
ATOM     19  C   UNL A   1      33.372 -34.834 -28.957  0.00  0.00    +0.003 A 
ATOM     20  C   UNL A   1      33.811 -33.497 -29.058  0.00  0.00    -0.052 A 
ATOM     21  C   UNL A   1      34.636 -33.118 -30.119  0.00  0.00    -0.061 A 
ATOM     22  C   UNL A   1      35.023 -34.048 -31.076  0.00  0.00    -0.060 A 
ATOM     23  C   UNL A   1      34.599 -35.379 -31.002  0.00  0.00    -0.038 A 
ATOM     24  C   UNL A   1      33.771 -35.760 -29.929  0.00  0.00    +0.050 A 
ATOM     25  C   UNL A   1      31.942 -35.018 -26.757  0.00  0.00    -0.025 C 
ATOM     26  C   UNL A   1      31.588 -36.171 -25.804  0.00  0.00    -0.049 C 
ATOM     27  C   UNL A   1      30.914 -37.334 -26.548  0.00  0.00    -0.047 C 
ATOM     28  C   UNL A   1      31.822 -37.935 -27.635  0.00  0.00    -0.012 C 
ENDBRANCH  15  16
ENDBRANCH   5  15
TORSDOF 4
ENDMDL
MODEL 6
REMARK VINA RESULT:    -7.334     18.892     21.187
REMARK INTER + INTRA:         -10.897
REMARK INTER:                  -9.510
REMARK INTRA:                  -1.387
REMARK UNBOUND:                -1.848
REMARK  Name = cpd363.pdb
REMARK  4 active torsions:
REMARK  status: ('A' for Active; 'I' for Inactive)
REMARK    1  A    between atoms: C_7  and  C_8
REMARK    2  A    between atoms: C_8  and  N_9
REMARK    3  A    between atoms: C_13  and  C_14
REMARK    4  A    between atoms: C_14  and  N_15
REMARK                            x       y       z     vdW  Elec       q    Type
REMARK                         _______ _______ _______ _____ _____    ______ ____
ROOT
ATOM      1  N   UNL A   1      43.745 -20.653 -41.489  0.00  0.00    -0.349 N 
ATOM      2  C   UNL A   1      42.785 -21.602 -41.621  0.00  0.00    +0.005 A 
ATOM      3  C   UNL A   1      41.756 -21.705 -40.698  0.00  0.00    -0.045 A 
ATOM      4  C   UNL A   1      41.688 -20.797 -39.652  0.00  0.00    -0.054 A 
ATOM      5  C   UNL A   1      42.641 -19.780 -39.551  0.00  0.00    -0.012 A 
ATOM      6  C   UNL A   1      43.687 -19.749 -40.481  0.00  0.00    +0.010 A 
ENDROOT
BRANCH   1   7
ATOM      7  C   UNL A   1      44.836 -20.568 -42.499  0.00  0.00    +0.050 C 
BRANCH   7  14
ATOM      8  F   UNL A   1      46.905 -19.704 -40.827  0.00  0.00    -0.205 F 
ATOM      9  C   UNL A   1      46.999 -20.959 -41.290  0.00  0.00    +0.128 A 
ATOM     10  C   UNL A   1      48.110 -21.721 -40.951  0.00  0.00    -0.026 A 
ATOM     11  C   UNL A   1      48.234 -23.009 -41.464  0.00  0.00    -0.059 A 
ATOM     12  C   UNL A   1      47.247 -23.521 -42.310  0.00  0.00    -0.061 A 
ATOM     13  C   UNL A   1      46.133 -22.747 -42.648  0.00  0.00    -0.054 A 
ATOM     14  C   UNL A   1      45.999 -21.449 -42.136  0.00  0.00    +0.007 A 
ENDBRANCH   7  14
ENDBRANCH   1   7
BRANCH   5  15
ATOM     15  C   UNL A   1      42.517 -18.747 -38.455  0.00  0.00    +0.050 C 
BRANCH  15  16
ATOM     16  N   UNL A   1      42.886 -19.265 -37.138  0.00  0.00    -0.339 N 
ATOM     17  C   UNL A   1      42.006 -19.688 -36.166  0.00  0.00    +0.023 A 
ATOM     18  C   UNL A   1      42.741 -20.224 -35.126  0.00  0.00    -0.019 A 
ATOM     19  C   UNL A   1      44.115 -20.110 -35.462  0.00  0.00    +0.003 A 
ATOM     20  C   UNL A   1      45.306 -20.498 -34.814  0.00  0.00    -0.052 A 
ATOM     21  C   UNL A   1      46.536 -20.278 -35.437  0.00  0.00    -0.061 A 
ATOM     22  C   UNL A   1      46.593 -19.675 -36.688  0.00  0.00    -0.060 A 
ATOM     23  C   UNL A   1      45.427 -19.275 -37.350  0.00  0.00    -0.038 A 
ATOM     24  C   UNL A   1      44.188 -19.503 -36.722  0.00  0.00    +0.050 A 
ATOM     25  C   UNL A   1      42.116 -20.830 -33.911  0.00  0.00    -0.025 C 
ATOM     26  C   UNL A   1      40.636 -21.164 -34.158  0.00  0.00    -0.049 C 
ATOM     27  C   UNL A   1      39.905 -20.010 -34.860  0.00  0.00    -0.047 C 
ATOM     28  C   UNL A   1      40.511 -19.688 -36.238  0.00  0.00    -0.012 C 
ENDBRANCH  15  16
ENDBRANCH   5  15
TORSDOF 4
ENDMDL
MODEL 7
REMARK VINA RESULT:    -7.332      1.939      5.164
REMARK INTER + INTRA:         -10.894
REMARK INTER:                  -9.344
REMARK INTRA:                  -1.550
REMARK UNBOUND:                -1.848
REMARK  Name = cpd363.pdb
REMARK  4 active torsions:
REMARK  status: ('A' for Active; 'I' for Inactive)
REMARK    1  A    between atoms: C_7  and  C_8
REMARK    2  A    between atoms: C_8  and  N_9
REMARK    3  A    between atoms: C_13  and  C_14
REMARK    4  A    between atoms: C_14  and  N_15
REMARK                            x       y       z     vdW  Elec       q    Type
REMARK                         _______ _______ _______ _____ _____    ______ ____
ROOT
ATOM      1  N   UNL A   1      33.729 -39.061 -32.268  0.00  0.00    -0.349 N 
ATOM      2  C   UNL A   1      34.251 -40.299 -32.448  0.00  0.00    +0.005 A 
ATOM      3  C   UNL A   1      35.369 -40.709 -31.738  0.00  0.00    -0.045 A 
ATOM      4  C   UNL A   1      35.930 -39.854 -30.801  0.00  0.00    -0.054 A 
ATOM      5  C   UNL A   1      35.355 -38.601 -30.570  0.00  0.00    -0.012 A 
ATOM      6  C   UNL A   1      34.256 -38.217 -31.347  0.00  0.00    +0.010 A 
ENDROOT
BRANCH   1   7
ATOM      7  C   UNL A   1      32.526 -38.651 -33.045  0.00  0.00    +0.050 C 
BRANCH   7  14
ATOM      8  F   UNL A   1      33.449 -36.226 -34.087  0.00  0.00    -0.205 F 
ATOM      9  C   UNL A   1      32.493 -36.145 -33.150  0.00  0.00    +0.128 A 
ATOM     10  C   UNL A   1      32.058 -34.893 -32.736  0.00  0.00    -0.026 A 
ATOM     11  C   UNL A   1      31.098 -34.803 -31.733  0.00  0.00    -0.059 A 
ATOM     12  C   UNL A   1      30.583 -35.965 -31.154  0.00  0.00    -0.061 A 
ATOM     13  C   UNL A   1      31.027 -37.223 -31.575  0.00  0.00    -0.054 A 
ATOM     14  C   UNL A   1      31.993 -37.323 -32.585  0.00  0.00    +0.007 A 
ENDBRANCH   7  14
ENDBRANCH   1   7
BRANCH   5  15
ATOM     15  C   UNL A   1      35.924 -37.706 -29.494  0.00  0.00    +0.050 C 
BRANCH  15  16
ATOM     16  N   UNL A   1      36.356 -36.405 -30.003  0.00  0.00    -0.339 N 
ATOM     17  C   UNL A   1      37.540 -36.152 -30.660  0.00  0.00    +0.023 A 
ATOM     18  C   UNL A   1      37.519 -34.840 -31.092  0.00  0.00    -0.019 A 
ATOM     19  C   UNL A   1      36.292 -34.265 -30.672  0.00  0.00    +0.003 A 
ATOM     20  C   UNL A   1      35.712 -32.991 -30.842  0.00  0.00    -0.052 A 
ATOM     21  C   UNL A   1      34.437 -32.737 -30.331  0.00  0.00    -0.061 A 
ATOM     22  C   UNL A   1      33.741 -33.730 -29.654  0.00  0.00    -0.060 A 
ATOM     23  C   UNL A   1      34.295 -35.002 -29.468  0.00  0.00    -0.038 A 
ATOM     24  C   UNL A   1      35.578 -35.256 -29.988  0.00  0.00    +0.050 A 
ATOM     25  C   UNL A   1      38.623 -34.225 -31.889  0.00  0.00    -0.025 C 
ATOM     26  C   UNL A   1      39.525 -35.304 -32.510  0.00  0.00    -0.049 C 
ATOM     27  C   UNL A   1      39.878 -36.401 -31.494  0.00  0.00    -0.047 C 
ATOM     28  C   UNL A   1      38.629 -37.131 -30.968  0.00  0.00    -0.012 C 
ENDBRANCH  15  16
ENDBRANCH   5  15
TORSDOF 4
ENDMDL
MODEL 8
REMARK VINA RESULT:    -7.278     18.047     20.759
REMARK INTER + INTRA:         -10.827
REMARK INTER:                  -9.202
REMARK INTRA:                  -1.625
REMARK UNBOUND:                -1.848
REMARK  Name = cpd363.pdb
REMARK  4 active torsions:
REMARK  status: ('A' for Active; 'I' for Inactive)
REMARK    1  A    between atoms: C_7  and  C_8
REMARK    2  A    between atoms: C_8  and  N_9
REMARK    3  A    between atoms: C_13  and  C_14
REMARK    4  A    between atoms: C_14  and  N_15
REMARK                            x       y       z     vdW  Elec       q    Type
REMARK                         _______ _______ _______ _____ _____    ______ ____
ROOT
ATOM      1  N   UNL A   1      46.217 -19.575 -37.165  0.00  0.00    -0.349 N 
ATOM      2  C   UNL A   1      46.727 -20.147 -36.047  0.00  0.00    +0.005 A 
ATOM      3  C   UNL A   1      45.920 -20.407 -34.950  0.00  0.00    -0.045 A 
ATOM      4  C   UNL A   1      44.566 -20.115 -35.019  0.00  0.00    -0.054 A 
ATOM      5  C   UNL A   1      44.028 -19.583 -36.194  0.00  0.00    -0.012 A 
ATOM      6  C   UNL A   1      44.894 -19.295 -37.256  0.00  0.00    +0.010 A 
ENDROOT
BRANCH   1   7
ATOM      7  C   UNL A   1      47.111 -19.311 -38.327  0.00  0.00    +0.050 C 
BRANCH   7  14
ATOM      8  F   UNL A   1      46.867 -22.054 -38.813  0.00  0.00    -0.205 F 
ATOM      9  C   UNL A   1      46.435 -21.238 -39.785  0.00  0.00    +0.128 A 
ATOM     10  C   UNL A   1      45.942 -21.789 -40.960  0.00  0.00    -0.026 A 
ATOM     11  C   UNL A   1      45.533 -20.946 -41.989  0.00  0.00    -0.059 A 
ATOM     12  C   UNL A   1      45.622 -19.561 -41.833  0.00  0.00    -0.061 A 
ATOM     13  C   UNL A   1      46.122 -19.013 -40.647  0.00  0.00    -0.054 A 
ATOM     14  C   UNL A   1      46.535 -19.854 -39.605  0.00  0.00    +0.007 A 
ENDBRANCH   7  14
ENDBRANCH   1   7
BRANCH   5  15
ATOM     15  C   UNL A   1      42.540 -19.340 -36.291  0.00  0.00    +0.050 C 
BRANCH  15  16
ATOM     16  N   UNL A   1      41.794 -20.524 -36.714  0.00  0.00    -0.339 N 
ATOM     17  C   UNL A   1      40.924 -21.250 -35.929  0.00  0.00    +0.023 A 
ATOM     18  C   UNL A   1      40.326 -22.207 -36.725  0.00  0.00    -0.019 A 
ATOM     19  C   UNL A   1      40.857 -22.078 -38.034  0.00  0.00    +0.003 A 
ATOM     20  C   UNL A   1      40.612 -22.749 -39.250  0.00  0.00    -0.052 A 
ATOM     21  C   UNL A   1      41.284 -22.352 -40.408  0.00  0.00    -0.061 A 
ATOM     22  C   UNL A   1      42.196 -21.304 -40.367  0.00  0.00    -0.060 A 
ATOM     23  C   UNL A   1      42.461 -20.624 -39.174  0.00  0.00    -0.038 A 
ATOM     24  C   UNL A   1      41.778 -21.023 -38.009  0.00  0.00    +0.050 A 
ATOM     25  C   UNL A   1      39.283 -23.152 -36.221  0.00  0.00    -0.025 C 
ATOM     26  C   UNL A   1      38.677 -22.654 -34.900  0.00  0.00    -0.049 C 
ATOM     27  C   UNL A   1      39.762 -22.173 -33.925  0.00  0.00    -0.047 C 
ATOM     28  C   UNL A   1      40.579 -21.000 -34.495  0.00  0.00    -0.012 C 
ENDBRANCH  15  16
ENDBRANCH   5  15
TORSDOF 4
ENDMDL
MODEL 9
REMARK VINA RESULT:    -7.169     19.246     21.676
REMARK INTER + INTRA:         -10.693
REMARK INTER:                  -9.354
REMARK INTRA:                  -1.338
REMARK UNBOUND:                -1.848
REMARK  Name = cpd363.pdb
REMARK  4 active torsions:
REMARK  status: ('A' for Active; 'I' for Inactive)
REMARK    1  A    between atoms: C_7  and  C_8
REMARK    2  A    between atoms: C_8  and  N_9
REMARK    3  A    between atoms: C_13  and  C_14
REMARK    4  A    between atoms: C_14  and  N_15
REMARK                            x       y       z     vdW  Elec       q    Type
REMARK                         _______ _______ _______ _____ _____    ______ ____
ROOT
ATOM      1  N   UNL A   1      43.810 -20.784 -41.641  0.00  0.00    -0.349 N 
ATOM      2  C   UNL A   1      42.781 -21.660 -41.745  0.00  0.00    +0.005 A 
ATOM      3  C   UNL A   1      41.777 -21.696 -40.790  0.00  0.00    -0.045 A 
ATOM      4  C   UNL A   1      41.809 -20.792 -39.738  0.00  0.00    -0.054 A 
ATOM      5  C   UNL A   1      42.836 -19.847 -39.664  0.00  0.00    -0.012 A 
ATOM      6  C   UNL A   1      43.850 -19.884 -40.627  0.00  0.00    +0.010 A 
ENDROOT
BRANCH   1   7
ATOM      7  C   UNL A   1      44.872 -20.771 -42.685  0.00  0.00    +0.050 C 
BRANCH   7  14
ATOM      8  F   UNL A   1      46.936 -19.664 -41.157  0.00  0.00    -0.205 F 
ATOM      9  C   UNL A   1      47.072 -20.955 -41.494  0.00  0.00    +0.128 A 
ATOM     10  C   UNL A   1      48.219 -21.636 -41.108  0.00  0.00    -0.026 A 
ATOM     11  C   UNL A   1      48.385 -22.963 -41.493  0.00  0.00    -0.059 A 
ATOM     12  C   UNL A   1      47.404 -23.595 -42.259  0.00  0.00    -0.061 A 
ATOM     13  C   UNL A   1      46.252 -22.902 -42.647  0.00  0.00    -0.054 A 
ATOM     14  C   UNL A   1      46.076 -21.566 -42.264  0.00  0.00    +0.007 A 
ENDBRANCH   7  14
ENDBRANCH   1   7
BRANCH   5  15
ATOM     15  C   UNL A   1      42.822 -18.815 -38.559  0.00  0.00    +0.050 C 
BRANCH  15  16
ATOM     16  N   UNL A   1      43.405 -19.306 -37.312  0.00  0.00    -0.339 N 
ATOM     17  C   UNL A   1      44.748 -19.319 -37.003  0.00  0.00    +0.023 A 
ATOM     18  C   UNL A   1      44.883 -19.734 -35.692  0.00  0.00    -0.019 A 
ATOM     19  C   UNL A   1      43.584 -20.001 -35.186  0.00  0.00    +0.003 A 
ATOM     20  C   UNL A   1      43.102 -20.420 -33.929  0.00  0.00    -0.052 A 
ATOM     21  C   UNL A   1      41.727 -20.557 -33.725  0.00  0.00    -0.061 A 
ATOM     22  C   UNL A   1      40.834 -20.288 -34.755  0.00  0.00    -0.060 A 
ATOM     23  C   UNL A   1      41.285 -19.875 -36.013  0.00  0.00    -0.038 A 
ATOM     24  C   UNL A   1      42.671 -19.733 -36.213  0.00  0.00    +0.050 A 
ATOM     25  C   UNL A   1      46.201 -19.822 -34.995  0.00  0.00    -0.025 C 
ATOM     26  C   UNL A   1      47.276 -19.014 -35.739  0.00  0.00    -0.049 C 
ATOM     27  C   UNL A   1      47.229 -19.269 -37.253  0.00  0.00    -0.047 C 
ATOM     28  C   UNL A   1      45.879 -18.864 -37.870  0.00  0.00    -0.012 C 
ENDBRANCH  15  16
ENDBRANCH   5  15
TORSDOF 4
ENDMDL
MODEL 10
REMARK VINA RESULT:    -7.142     17.260     19.614
REMARK INTER + INTRA:         -10.659
REMARK INTER:                  -9.497
REMARK INTRA:                  -1.162
REMARK UNBOUND:                -1.848
REMARK  Name = cpd363.pdb
REMARK  4 active torsions:
REMARK  status: ('A' for Active; 'I' for Inactive)
REMARK    1  A    between atoms: C_7  and  C_8
REMARK    2  A    between atoms: C_8  and  N_9
REMARK    3  A    between atoms: C_13  and  C_14
REMARK    4  A    between atoms: C_14  and  N_15
REMARK                            x       y       z     vdW  Elec       q    Type
REMARK                         _______ _______ _______ _____ _____    ______ ____
ROOT
ATOM      1  N   UNL A   1      42.294 -20.872 -39.168  0.00  0.00    -0.349 N 
ATOM      2  C   UNL A   1      41.167 -21.048 -39.901  0.00  0.00    +0.005 A 
ATOM      3  C   UNL A   1      40.084 -21.743 -39.385  0.00  0.00    -0.045 A 
ATOM      4  C   UNL A   1      40.143 -22.225 -38.086  0.00  0.00    -0.054 A 
ATOM      5  C   UNL A   1      41.280 -21.990 -37.308  0.00  0.00    -0.012 A 
ATOM      6  C   UNL A   1      42.365 -21.324 -37.892  0.00  0.00    +0.010 A 
ENDROOT
BRANCH   1   7
ATOM      7  C   UNL A   1      43.439 -20.118 -39.751  0.00  0.00    +0.050 C 
BRANCH   7  14
ATOM      8  F   UNL A   1      45.686 -21.370 -38.652  0.00  0.00    -0.205 F 
ATOM      9  C   UNL A   1      45.444 -21.613 -39.948  0.00  0.00    +0.128 A 
ATOM     10  C   UNL A   1      46.323 -22.420 -40.659  0.00  0.00    -0.026 A 
ATOM     11  C   UNL A   1      46.100 -22.640 -42.015  0.00  0.00    -0.059 A 
ATOM     12  C   UNL A   1      45.002 -22.053 -42.646  0.00  0.00    -0.061 A 
ATOM     13  C   UNL A   1      44.122 -21.240 -41.925  0.00  0.00    -0.054 A 
ATOM     14  C   UNL A   1      44.338 -21.012 -40.559  0.00  0.00    +0.007 A 
ENDBRANCH   7  14
ENDBRANCH   1   7
BRANCH   5  15
ATOM     15  C   UNL A   1      41.308 -22.450 -35.869  0.00  0.00    +0.050 C 
BRANCH  15  16
ATOM     16  N   UNL A   1      40.979 -21.384 -34.923  0.00  0.00    -0.339 N 
ATOM     17  C   UNL A   1      39.731 -21.132 -34.396  0.00  0.00    +0.023 A 
ATOM     18  C   UNL A   1      39.858 -20.134 -33.450  0.00  0.00    -0.019 A 
ATOM     19  C   UNL A   1      41.223 -19.748 -33.406  0.00  0.00    +0.003 A 
ATOM     20  C   UNL A   1      41.941 -18.814 -32.631  0.00  0.00    -0.052 A 
ATOM     21  C   UNL A   1      43.322 -18.692 -32.799  0.00  0.00    -0.061 A 
ATOM     22  C   UNL A   1      43.990 -19.481 -33.727  0.00  0.00    -0.060 A 
ATOM     23  C   UNL A   1      43.301 -20.412 -34.512  0.00  0.00    -0.038 A 
ATOM     24  C   UNL A   1      41.910 -20.537 -34.337  0.00  0.00    +0.050 A 
ATOM     25  C   UNL A   1      38.712 -19.633 -32.633  0.00  0.00    -0.025 C 
ATOM     26  C   UNL A   1      37.535 -20.622 -32.664  0.00  0.00    -0.049 C 
ATOM     27  C   UNL A   1      37.256 -21.124 -34.089  0.00  0.00    -0.047 C 
ATOM     28  C   UNL A   1      38.462 -21.867 -34.691  0.00  0.00    -0.012 C 
ENDBRANCH  15  16
ENDBRANCH   5  15
TORSDOF 4
ENDMDL
MODEL 11
REMARK VINA RESULT:    -7.055     18.405     21.030
REMARK INTER + INTRA:         -10.553
REMARK INTER:                  -9.054
REMARK INTRA:                  -1.499
REMARK UNBOUND:                -1.848
REMARK  Name = cpd363.pdb
REMARK  4 active torsions:
REMARK  status: ('A' for Active; 'I' for Inactive)
REMARK    1  A    between atoms: C_7  and  C_8
REMARK    2  A    between atoms: C_8  and  N_9
REMARK    3  A    between atoms: C_13  and  C_14
REMARK    4  A    between atoms: C_14  and  N_15
REMARK                            x       y       z     vdW  Elec       q    Type
REMARK                         _______ _______ _______ _____ _____    ______ ____
ROOT
ATOM      1  N   UNL A   1      45.923 -19.225 -38.337  0.00  0.00    -0.349 N 
ATOM      2  C   UNL A   1      46.681 -19.767 -37.352  0.00  0.00    +0.005 A 
ATOM      3  C   UNL A   1      46.132 -20.070 -36.117  0.00  0.00    -0.045 A 
ATOM      4  C   UNL A   1      44.778 -19.855 -35.904  0.00  0.00    -0.054 A 
ATOM      5  C   UNL A   1      43.982 -19.355 -36.939  0.00  0.00    -0.012 A 
ATOM      6  C   UNL A   1      44.596 -19.021 -38.152  0.00  0.00    +0.010 A 
ENDROOT
BRANCH   1   7
ATOM      7  C   UNL A   1      46.544 -18.912 -39.654  0.00  0.00    +0.050 C 
BRANCH   7  14
ATOM      8  F   UNL A   1      44.986 -17.878 -41.734  0.00  0.00    -0.205 F 
ATOM      9  C   UNL A   1      45.219 -19.198 -41.765  0.00  0.00    +0.128 A 
ATOM     10  C   UNL A   1      44.655 -19.959 -42.781  0.00  0.00    -0.026 A 
ATOM     11  C   UNL A   1      44.858 -21.335 -42.794  0.00  0.00    -0.059 A 
ATOM     12  C   UNL A   1      45.622 -21.937 -41.792  0.00  0.00    -0.061 A 
ATOM     13  C   UNL A   1      46.186 -21.165 -40.771  0.00  0.00    -0.054 A 
ATOM     14  C   UNL A   1      45.987 -19.778 -40.750  0.00  0.00    +0.007 A 
ENDBRANCH   7  14
ENDBRANCH   1   7
BRANCH   5  15
ATOM     15  C   UNL A   1      42.494 -19.197 -36.727  0.00  0.00    +0.050 C 
BRANCH  15  16
ATOM     16  N   UNL A   1      41.750 -20.435 -36.954  0.00  0.00    -0.339 N 
ATOM     17  C   UNL A   1      40.991 -21.100 -36.017  0.00  0.00    +0.023 A 
ATOM     18  C   UNL A   1      40.347 -22.145 -36.650  0.00  0.00    -0.019 A 
ATOM     19  C   UNL A   1      40.737 -22.133 -38.015  0.00  0.00    +0.003 A 
ATOM     20  C   UNL A   1      40.391 -22.926 -39.128  0.00  0.00    -0.052 A 
ATOM     21  C   UNL A   1      40.927 -22.629 -40.383  0.00  0.00    -0.061 A 
ATOM     22  C   UNL A   1      41.802 -21.560 -40.538  0.00  0.00    -0.060 A 
ATOM     23  C   UNL A   1      42.165 -20.760 -39.450  0.00  0.00    -0.038 A 
ATOM     24  C   UNL A   1      41.619 -21.059 -38.187  0.00  0.00    +0.050 A 
ATOM     25  C   UNL A   1      39.394 -23.061 -35.952  0.00  0.00    -0.025 C 
ATOM     26  C   UNL A   1      38.910 -22.450 -34.627  0.00  0.00    -0.049 C 
ATOM     27  C   UNL A   1      40.072 -21.850 -33.822  0.00  0.00    -0.047 C 
ATOM     28  C   UNL A   1      40.786 -20.719 -34.584  0.00  0.00    -0.012 C 
ENDBRANCH  15  16
ENDBRANCH   5  15
TORSDOF 4
ENDMDL
MODEL 12
REMARK VINA RESULT:    -6.944     18.020     20.821
REMARK INTER + INTRA:         -10.416
REMARK INTER:                  -8.718
REMARK INTRA:                  -1.698
REMARK UNBOUND:                -1.848
REMARK  Name = cpd363.pdb
REMARK  4 active torsions:
REMARK  status: ('A' for Active; 'I' for Inactive)
REMARK    1  A    between atoms: C_7  and  C_8
REMARK    2  A    between atoms: C_8  and  N_9
REMARK    3  A    between atoms: C_13  and  C_14
REMARK    4  A    between atoms: C_14  and  N_15
REMARK                            x       y       z     vdW  Elec       q    Type
REMARK                         _______ _______ _______ _____ _____    ______ ____
ROOT
ATOM      1  N   UNL A   1      46.192 -19.459 -37.246  0.00  0.00    -0.349 N 
ATOM      2  C   UNL A   1      46.893 -20.092 -36.274  0.00  0.00    +0.005 A 
ATOM      3  C   UNL A   1      46.334 -20.320 -35.026  0.00  0.00    -0.045 A 
ATOM      4  C   UNL A   1      45.023 -19.932 -34.789  0.00  0.00    -0.054 A 
ATOM      5  C   UNL A   1      44.279 -19.335 -35.810  0.00  0.00    -0.012 A 
ATOM      6  C   UNL A   1      44.906 -19.084 -37.037  0.00  0.00    +0.010 A 
ENDROOT
BRANCH   1   7
ATOM      7  C   UNL A   1      46.822 -19.231 -38.576  0.00  0.00    +0.050 C 
BRANCH   7  14
ATOM      8  F   UNL A   1      46.455 -21.957 -39.077  0.00  0.00    -0.205 F 
ATOM      9  C   UNL A   1      45.807 -21.111 -39.890  0.00  0.00    +0.128 A 
ATOM     10  C   UNL A   1      45.043 -21.625 -40.930  0.00  0.00    -0.026 A 
ATOM     11  C   UNL A   1      44.404 -20.751 -41.802  0.00  0.00    -0.059 A 
ATOM     12  C   UNL A   1      44.534 -19.371 -41.628  0.00  0.00    -0.061 A 
ATOM     13  C   UNL A   1      45.307 -18.860 -40.579  0.00  0.00    -0.054 A 
ATOM     14  C   UNL A   1      45.954 -19.733 -39.695  0.00  0.00    +0.007 A 
ENDBRANCH   7  14
ENDBRANCH   1   7
BRANCH   5  15
ATOM     15  C   UNL A   1      42.828 -18.986 -35.570  0.00  0.00    +0.050 C 
BRANCH  15  16
ATOM     16  N   UNL A   1      41.923 -20.108 -35.813  0.00  0.00    -0.339 N 
ATOM     17  C   UNL A   1      41.522 -20.564 -37.050  0.00  0.00    +0.023 A 
ATOM     18  C   UNL A   1      40.777 -21.712 -36.863  0.00  0.00    -0.019 A 
ATOM     19  C   UNL A   1      40.703 -21.959 -35.467  0.00  0.00    +0.003 A 
ATOM     20  C   UNL A   1      40.110 -22.979 -34.694  0.00  0.00    -0.052 A 
ATOM     21  C   UNL A   1      40.251 -22.964 -33.304  0.00  0.00    -0.061 A 
ATOM     22  C   UNL A   1      40.966 -21.949 -32.681  0.00  0.00    -0.060 A 
ATOM     23  C   UNL A   1      41.560 -20.923 -33.424  0.00  0.00    -0.038 A 
ATOM     24  C   UNL A   1      41.421 -20.943 -34.824  0.00  0.00    +0.050 A 
ATOM     25  C   UNL A   1      40.215 -22.514 -37.991  0.00  0.00    -0.025 C 
ATOM     26  C   UNL A   1      40.909 -22.166 -39.318  0.00  0.00    -0.049 C 
ATOM     27  C   UNL A   1      41.054 -20.647 -39.498  0.00  0.00    -0.047 C 
ATOM     28  C   UNL A   1      41.902 -20.006 -38.385  0.00  0.00    -0.012 C 
ENDBRANCH  15  16
ENDBRANCH   5  15
TORSDOF 4
ENDMDL
MODEL 13
REMARK VINA RESULT:    -6.905     20.537     23.006
REMARK INTER + INTRA:         -10.367
REMARK INTER:                  -9.152
REMARK INTRA:                  -1.215
REMARK UNBOUND:                -1.848
REMARK  Name = cpd363.pdb
REMARK  4 active torsions:
REMARK  status: ('A' for Active; 'I' for Inactive)
REMARK    1  A    between atoms: C_7  and  C_8
REMARK    2  A    between atoms: C_8  and  N_9
REMARK    3  A    between atoms: C_13  and  C_14
REMARK    4  A    between atoms: C_14  and  N_15
REMARK                            x       y       z     vdW  Elec       q    Type
REMARK                         _______ _______ _______ _____ _____    ______ ____
ROOT
ATOM      1  N   UNL A   1      44.227 -20.612 -40.895  0.00  0.00    -0.349 N 
ATOM      2  C   UNL A   1      43.219 -21.519 -40.873  0.00  0.00    +0.005 A 
ATOM      3  C   UNL A   1      42.323 -21.562 -39.817  0.00  0.00    -0.045 A 
ATOM      4  C   UNL A   1      42.438 -20.635 -38.791  0.00  0.00    -0.054 A 
ATOM      5  C   UNL A   1      43.438 -19.660 -38.843  0.00  0.00    -0.012 A 
ATOM      6  C   UNL A   1      44.346 -19.690 -39.908  0.00  0.00    +0.010 A 
ENDROOT
BRANCH   1   7
ATOM      7  C   UNL A   1      45.171 -20.592 -42.046  0.00  0.00    +0.050 C 
BRANCH   7  14
ATOM      8  F   UNL A   1      47.392 -20.335 -40.365  0.00  0.00    -0.205 F 
ATOM      9  C   UNL A   1      47.302 -21.477 -41.061  0.00  0.00    +0.128 A 
ATOM     10  C   UNL A   1      48.312 -22.423 -40.940  0.00  0.00    -0.026 A 
ATOM     11  C   UNL A   1      48.246 -23.591 -41.693  0.00  0.00    -0.059 A 
ATOM     12  C   UNL A   1      47.172 -23.801 -42.561  0.00  0.00    -0.061 A 
ATOM     13  C   UNL A   1      46.160 -22.843 -42.680  0.00  0.00    -0.054 A 
ATOM     14  C   UNL A   1      46.217 -21.664 -41.925  0.00  0.00    +0.007 A 
ENDBRANCH   7  14
ENDBRANCH   1   7
BRANCH   5  15
ATOM     15  C   UNL A   1      43.509 -18.606 -37.763  0.00  0.00    +0.050 C 
BRANCH  15  16
ATOM     16  N   UNL A   1      44.869 -18.124 -37.524  0.00  0.00    -0.339 N 
ATOM     17  C   UNL A   1      45.411 -16.962 -38.028  0.00  0.00    +0.023 A 
ATOM     18  C   UNL A   1      46.664 -16.797 -37.472  0.00  0.00    -0.019 A 
ATOM     19  C   UNL A   1      46.907 -17.900 -36.613  0.00  0.00    +0.003 A 
ATOM     20  C   UNL A   1      47.983 -18.256 -35.774  0.00  0.00    -0.052 A 
ATOM     21  C   UNL A   1      47.904 -19.416 -35.001  0.00  0.00    -0.061 A 
ATOM     22  C   UNL A   1      46.775 -20.224 -35.060  0.00  0.00    -0.060 A 
ATOM     23  C   UNL A   1      45.696 -19.897 -35.887  0.00  0.00    -0.038 A 
ATOM     24  C   UNL A   1      45.776 -18.724 -36.661  0.00  0.00    +0.050 A 
ATOM     25  C   UNL A   1      47.532 -15.613 -37.752  0.00  0.00    -0.025 C 
ATOM     26  C   UNL A   1      46.716 -14.457 -38.351  0.00  0.00    -0.049 C 
ATOM     27  C   UNL A   1      45.766 -14.947 -39.455  0.00  0.00    -0.047 C 
ATOM     28  C   UNL A   1      44.744 -15.972 -38.931  0.00  0.00    -0.012 C 
ENDBRANCH  15  16
ENDBRANCH   5  15
TORSDOF 4
ENDMDL
MODEL 14
REMARK VINA RESULT:    -6.891     18.438     20.894
REMARK INTER + INTRA:         -10.350
REMARK INTER:                  -9.095
REMARK INTRA:                  -1.255
REMARK UNBOUND:                -1.848
REMARK  Name = cpd363.pdb
REMARK  4 active torsions:
REMARK  status: ('A' for Active; 'I' for Inactive)
REMARK    1  A    between atoms: C_7  and  C_8
REMARK    2  A    between atoms: C_8  and  N_9
REMARK    3  A    between atoms: C_13  and  C_14
REMARK    4  A    between atoms: C_14  and  N_15
REMARK                            x       y       z     vdW  Elec       q    Type
REMARK                         _______ _______ _______ _____ _____    ______ ____
ROOT
ATOM      1  N   UNL A   1      43.201 -20.505 -40.509  0.00  0.00    -0.349 N 
ATOM      2  C   UNL A   1      42.435 -21.601 -40.735  0.00  0.00    +0.005 A 
ATOM      3  C   UNL A   1      41.368 -21.907 -39.906  0.00  0.00    -0.045 A 
ATOM      4  C   UNL A   1      41.057 -21.054 -38.856  0.00  0.00    -0.054 A 
ATOM      5  C   UNL A   1      41.808 -19.892 -38.660  0.00  0.00    -0.012 A 
ATOM      6  C   UNL A   1      42.905 -19.653 -39.497  0.00  0.00    +0.010 A 
ENDROOT
BRANCH   1   7
ATOM      7  C   UNL A   1      44.340 -20.204 -41.420  0.00  0.00    +0.050 C 
BRANCH   7  14
ATOM      8  F   UNL A   1      45.048 -22.024 -43.422  0.00  0.00    -0.205 F 
ATOM      9  C   UNL A   1      45.771 -22.070 -42.293  0.00  0.00    +0.128 A 
ATOM     10  C   UNL A   1      46.776 -23.021 -42.174  0.00  0.00    -0.026 A 
ATOM     11  C   UNL A   1      47.499 -23.102 -40.988  0.00  0.00    -0.059 A 
ATOM     12  C   UNL A   1      47.211 -22.232 -39.934  0.00  0.00    -0.061 A 
ATOM     13  C   UNL A   1      46.196 -21.278 -40.061  0.00  0.00    -0.054 A 
ATOM     14  C   UNL A   1      45.462 -21.189 -41.251  0.00  0.00    +0.007 A 
ENDBRANCH   7  14
ENDBRANCH   1   7
BRANCH   5  15
ATOM     15  C   UNL A   1      41.416 -18.928 -37.563  0.00  0.00    +0.050 C 
BRANCH  15  16
ATOM     16  N   UNL A   1      41.922 -19.322 -36.249  0.00  0.00    -0.339 N 
ATOM     17  C   UNL A   1      43.148 -18.977 -35.723  0.00  0.00    +0.023 A 
ATOM     18  C   UNL A   1      43.198 -19.429 -34.419  0.00  0.00    -0.019 A 
ATOM     19  C   UNL A   1      41.972 -20.088 -34.141  0.00  0.00    +0.003 A 
ATOM     20  C   UNL A   1      41.448 -20.716 -32.992  0.00  0.00    -0.052 A 
ATOM     21  C   UNL A   1      40.159 -21.250 -33.022  0.00  0.00    -0.061 A 
ATOM     22  C   UNL A   1      39.392 -21.171 -34.178  0.00  0.00    -0.060 A 
ATOM     23  C   UNL A   1      39.888 -20.558 -35.333  0.00  0.00    -0.038 A 
ATOM     24  C   UNL A   1      41.187 -20.016 -35.298  0.00  0.00    +0.050 A 
ATOM     25  C   UNL A   1      44.364 -19.191 -33.516  0.00  0.00    -0.025 C 
ATOM     26  C   UNL A   1      45.258 -18.061 -34.051  0.00  0.00    -0.049 C 
ATOM     27  C   UNL A   1      45.516 -18.209 -35.558  0.00  0.00    -0.047 C 
ATOM     28  C   UNL A   1      44.215 -18.159 -36.380  0.00  0.00    -0.012 C 
ENDBRANCH  15  16
ENDBRANCH   5  15
TORSDOF 4
ENDMDL
MODEL 15
REMARK VINA RESULT:    -6.850     17.693     20.377
REMARK INTER + INTRA:         -10.299
REMARK INTER:                  -9.095
REMARK INTRA:                  -1.205
REMARK UNBOUND:                -1.848
REMARK  Name = cpd363.pdb
REMARK  4 active torsions:
REMARK  status: ('A' for Active; 'I' for Inactive)
REMARK    1  A    between atoms: C_7  and  C_8
REMARK    2  A    between atoms: C_8  and  N_9
REMARK    3  A    between atoms: C_13  and  C_14
REMARK    4  A    between atoms: C_14  and  N_15
REMARK                            x       y       z     vdW  Elec       q    Type
REMARK                         _______ _______ _______ _____ _____    ______ ____
ROOT
ATOM      1  N   UNL A   1      44.168 -20.018 -38.730  0.00  0.00    -0.349 N 
ATOM      2  C   UNL A   1      44.712 -19.790 -37.510  0.00  0.00    +0.005 A 
ATOM      3  C   UNL A   1      44.079 -20.223 -36.355  0.00  0.00    -0.045 A 
ATOM      4  C   UNL A   1      42.894 -20.936 -36.458  0.00  0.00    -0.054 A 
ATOM      5  C   UNL A   1      42.364 -21.227 -37.718  0.00  0.00    -0.012 A 
ATOM      6  C   UNL A   1      43.018 -20.726 -38.850  0.00  0.00    +0.010 A 
ENDROOT
BRANCH   1   7
ATOM      7  C   UNL A   1      44.875 -19.541 -39.951  0.00  0.00    +0.050 C 
BRANCH   7  14
ATOM      8  F   UNL A   1      43.973 -19.988 -42.560  0.00  0.00    -0.205 F 
ATOM      9  C   UNL A   1      44.884 -20.852 -42.090  0.00  0.00    +0.128 A 
ATOM     10  C   UNL A   1      45.285 -21.914 -42.891  0.00  0.00    -0.026 A 
ATOM     11  C   UNL A   1      46.196 -22.838 -42.391  0.00  0.00    -0.059 A 
ATOM     12  C   UNL A   1      46.698 -22.693 -41.096  0.00  0.00    -0.061 A 
ATOM     13  C   UNL A   1      46.288 -21.623 -40.294  0.00  0.00    -0.054 A 
ATOM     14  C   UNL A   1      45.371 -20.687 -40.788  0.00  0.00    +0.007 A 
ENDBRANCH   7  14
ENDBRANCH   1   7
BRANCH   5  15
ATOM     15  C   UNL A   1      41.115 -22.071 -37.826  0.00  0.00    +0.050 C 
BRANCH  15  16
ATOM     16  N   UNL A   1      39.958 -21.465 -37.168  0.00  0.00    -0.339 N 
ATOM     17  C   UNL A   1      39.440 -21.840 -35.947  0.00  0.00    +0.023 A 
ATOM     18  C   UNL A   1      38.438 -20.948 -35.615  0.00  0.00    -0.019 A 
ATOM     19  C   UNL A   1      38.325 -20.008 -36.673  0.00  0.00    +0.003 A 
ATOM     20  C   UNL A   1      37.511 -18.876 -36.879  0.00  0.00    -0.052 A 
ATOM     21  C   UNL A   1      37.670 -18.110 -38.035  0.00  0.00    -0.061 A 
ATOM     22  C   UNL A   1      38.622 -18.461 -38.985  0.00  0.00    -0.060 A 
ATOM     23  C   UNL A   1      39.439 -19.582 -38.808  0.00  0.00    -0.038 A 
ATOM     24  C   UNL A   1      39.280 -20.349 -37.639  0.00  0.00    +0.050 A 
ATOM     25  C   UNL A   1      37.680 -21.014 -34.329  0.00  0.00    -0.025 C 
ATOM     26  C   UNL A   1      38.420 -21.876 -33.294  0.00  0.00    -0.049 C 
ATOM     27  C   UNL A   1      38.932 -23.187 -33.911  0.00  0.00    -0.047 C 
ATOM     28  C   UNL A   1      39.927 -22.941 -35.059  0.00  0.00    -0.012 C 
ENDBRANCH  15  16
ENDBRANCH   5  15
TORSDOF 4
ENDMDL
MODEL 16
REMARK VINA RESULT:    -6.806     19.591     22.375
REMARK INTER + INTRA:         -10.246
REMARK INTER:                  -9.008
REMARK INTRA:                  -1.238
REMARK UNBOUND:                -1.848
REMARK  Name = cpd363.pdb
REMARK  4 active torsions:
REMARK  status: ('A' for Active; 'I' for Inactive)
REMARK    1  A    between atoms: C_7  and  C_8
REMARK    2  A    between atoms: C_8  and  N_9
REMARK    3  A    between atoms: C_13  and  C_14
REMARK    4  A    between atoms: C_14  and  N_15
REMARK                            x       y       z     vdW  Elec       q    Type
REMARK                         _______ _______ _______ _____ _____    ______ ____
ROOT
ATOM      1  N   UNL A   1      44.108 -19.839 -35.886  0.00  0.00    -0.349 N 
ATOM      2  C   UNL A   1      44.343 -18.945 -34.894  0.00  0.00    +0.005 A 
ATOM      3  C   UNL A   1      45.505 -18.190 -34.878  0.00  0.00    -0.045 A 
ATOM      4  C   UNL A   1      46.416 -18.323 -35.916  0.00  0.00    -0.054 A 
ATOM      5  C   UNL A   1      46.145 -19.199 -36.971  0.00  0.00    -0.012 A 
ATOM      6  C   UNL A   1      44.980 -19.973 -36.915  0.00  0.00    +0.010 A 
ENDROOT
BRANCH   1   7
ATOM      7  C   UNL A   1      42.848 -20.634 -35.874  0.00  0.00    +0.050 C 
BRANCH   7  14
ATOM      8  F   UNL A   1      41.515 -23.001 -36.540  0.00  0.00    -0.205 F 
ATOM      9  C   UNL A   1      41.692 -22.119 -37.533  0.00  0.00    +0.128 A 
ATOM     10  C   UNL A   1      41.249 -22.441 -38.810  0.00  0.00    -0.026 A 
ATOM     11  C   UNL A   1      41.469 -21.548 -39.853  0.00  0.00    -0.059 A 
ATOM     12  C   UNL A   1      42.130 -20.342 -39.611  0.00  0.00    -0.061 A 
ATOM     13  C   UNL A   1      42.575 -20.024 -38.324  0.00  0.00    -0.054 A 
ATOM     14  C   UNL A   1      42.358 -20.917 -37.266  0.00  0.00    +0.007 A 
ENDBRANCH   7  14
ENDBRANCH   1   7
BRANCH   5  15
ATOM     15  C   UNL A   1      47.103 -19.281 -38.137  0.00  0.00    +0.050 C 
BRANCH  15  16
ATOM     16  N   UNL A   1      46.426 -19.271 -39.434  0.00  0.00    -0.339 N 
ATOM     17  C   UNL A   1      46.391 -20.317 -40.330  0.00  0.00    +0.023 A 
ATOM     18  C   UNL A   1      45.550 -19.963 -41.368  0.00  0.00    -0.019 A 
ATOM     19  C   UNL A   1      45.068 -18.654 -41.109  0.00  0.00    +0.003 A 
ATOM     20  C   UNL A   1      44.176 -17.798 -41.789  0.00  0.00    -0.052 A 
ATOM     21  C   UNL A   1      43.863 -16.551 -41.244  0.00  0.00    -0.061 A 
ATOM     22  C   UNL A   1      44.429 -16.147 -40.041  0.00  0.00    -0.060 A 
ATOM     23  C   UNL A   1      45.320 -16.975 -39.349  0.00  0.00    -0.038 A 
ATOM     24  C   UNL A   1      45.630 -18.233 -39.898  0.00  0.00    +0.050 A 
ATOM     25  C   UNL A   1      45.230 -20.876 -42.506  0.00  0.00    -0.025 C 
ATOM     26  C   UNL A   1      45.582 -22.333 -42.164  0.00  0.00    -0.049 C 
ATOM     27  C   UNL A   1      46.965 -22.441 -41.505  0.00  0.00    -0.047 C 
ATOM     28  C   UNL A   1      47.044 -21.655 -40.184  0.00  0.00    -0.012 C 
ENDBRANCH  15  16
ENDBRANCH   5  15
TORSDOF 4
ENDMDL
MODEL 17
REMARK VINA RESULT:    -6.736     17.868     20.641
REMARK INTER + INTRA:         -10.159
REMARK INTER:                  -9.080
REMARK INTRA:                  -1.078
REMARK UNBOUND:                -1.848
REMARK  Name = cpd363.pdb
REMARK  4 active torsions:
REMARK  status: ('A' for Active; 'I' for Inactive)
REMARK    1  A    between atoms: C_7  and  C_8
REMARK    2  A    between atoms: C_8  and  N_9
REMARK    3  A    between atoms: C_13  and  C_14
REMARK    4  A    between atoms: C_14  and  N_15
REMARK                            x       y       z     vdW  Elec       q    Type
REMARK                         _______ _______ _______ _____ _____    ______ ____
ROOT
ATOM      1  N   UNL A   1      44.617 -20.197 -39.214  0.00  0.00    -0.349 N 
ATOM      2  C   UNL A   1      45.121 -19.952 -37.980  0.00  0.00    +0.005 A 
ATOM      3  C   UNL A   1      44.372 -20.209 -36.842  0.00  0.00    -0.045 A 
ATOM      4  C   UNL A   1      43.107 -20.763 -36.972  0.00  0.00    -0.054 A 
ATOM      5  C   UNL A   1      42.611 -21.073 -38.242  0.00  0.00    -0.012 A 
ATOM      6  C   UNL A   1      43.388 -20.751 -39.361  0.00  0.00    +0.010 A 
ENDROOT
BRANCH   1   7
ATOM      7  C   UNL A   1      45.449 -19.912 -40.417  0.00  0.00    +0.050 C 
BRANCH   7  14
ATOM      8  F   UNL A   1      44.663 -21.353 -42.681  0.00  0.00    -0.205 F 
ATOM      9  C   UNL A   1      45.742 -21.810 -42.031  0.00  0.00    +0.128 A 
ATOM     10  C   UNL A   1      46.366 -22.964 -42.486  0.00  0.00    -0.026 A 
ATOM     11  C   UNL A   1      47.461 -23.467 -41.789  0.00  0.00    -0.059 A 
ATOM     12  C   UNL A   1      47.920 -22.811 -40.645  0.00  0.00    -0.061 A 
ATOM     13  C   UNL A   1      47.286 -21.650 -40.192  0.00  0.00    -0.054 A 
ATOM     14  C   UNL A   1      46.183 -21.136 -40.887  0.00  0.00    +0.007 A 
ENDBRANCH   7  14
ENDBRANCH   1   7
BRANCH   5  15
ATOM     15  C   UNL A   1      41.266 -21.748 -38.372  0.00  0.00    +0.050 C 
BRANCH  15  16
ATOM     16  N   UNL A   1      40.230 -21.120 -37.553  0.00  0.00    -0.339 N 
ATOM     17  C   UNL A   1      39.564 -19.952 -37.857  0.00  0.00    +0.023 A 
ATOM     18  C   UNL A   1      38.578 -19.762 -36.907  0.00  0.00    -0.019 A 
ATOM     19  C   UNL A   1      38.653 -20.837 -35.983  0.00  0.00    +0.003 A 
ATOM     20  C   UNL A   1      37.902 -21.186 -34.841  0.00  0.00    -0.052 A 
ATOM     21  C   UNL A   1      38.204 -22.359 -34.147  0.00  0.00    -0.061 A 
ATOM     22  C   UNL A   1      39.241 -23.180 -34.572  0.00  0.00    -0.060 A 
ATOM     23  C   UNL A   1      40.004 -22.855 -35.698  0.00  0.00    -0.038 A 
ATOM     24  C   UNL A   1      39.695 -21.674 -36.399  0.00  0.00    +0.050 A 
ATOM     25  C   UNL A   1      37.619 -18.617 -36.944  0.00  0.00    -0.025 C 
ATOM     26  C   UNL A   1      37.587 -17.965 -38.335  0.00  0.00    -0.049 C 
ATOM     27  C   UNL A   1      39.003 -17.755 -38.895  0.00  0.00    -0.047 C 
ATOM     28  C   UNL A   1      39.769 -19.080 -39.055  0.00  0.00    -0.012 C 
ENDBRANCH  15  16
ENDBRANCH   5  15
TORSDOF 4
ENDMDL
MODEL 18
REMARK VINA RESULT:    -6.700     17.488     20.013
REMARK INTER + INTRA:         -10.115
REMARK INTER:                  -8.741
REMARK INTRA:                  -1.373
REMARK UNBOUND:                -1.848
REMARK  Name = cpd363.pdb
REMARK  4 active torsions:
REMARK  status: ('A' for Active; 'I' for Inactive)
REMARK    1  A    between atoms: C_7  and  C_8
REMARK    2  A    between atoms: C_8  and  N_9
REMARK    3  A    between atoms: C_13  and  C_14
REMARK    4  A    between atoms: C_14  and  N_15
REMARK                            x       y       z     vdW  Elec       q    Type
REMARK                         _______ _______ _______ _____ _____    ______ ____
ROOT
ATOM      1  N   UNL A   1      39.889 -20.859 -37.202  0.00  0.00    -0.349 N 
ATOM      2  C   UNL A   1      39.573 -21.961 -37.926  0.00  0.00    +0.005 A 
ATOM      3  C   UNL A   1      40.227 -22.242 -39.116  0.00  0.00    -0.045 A 
ATOM      4  C   UNL A   1      41.246 -21.404 -39.545  0.00  0.00    -0.054 A 
ATOM      5  C   UNL A   1      41.614 -20.302 -38.768  0.00  0.00    -0.012 A 
ATOM      6  C   UNL A   1      40.891 -20.037 -37.599  0.00  0.00    +0.010 A 
ENDROOT
BRANCH   1   7
ATOM      7  C   UNL A   1      39.169 -20.588 -35.927  0.00  0.00    +0.050 C 
BRANCH   7  14
ATOM      8  F   UNL A   1      38.456 -23.152 -35.069  0.00  0.00    -0.205 F 
ATOM      9  C   UNL A   1      39.436 -22.547 -34.383  0.00  0.00    +0.128 A 
ATOM     10  C   UNL A   1      39.997 -23.197 -33.291  0.00  0.00    -0.026 A 
ATOM     11  C   UNL A   1      40.984 -22.555 -32.550  0.00  0.00    -0.059 A 
ATOM     12  C   UNL A   1      41.400 -21.270 -32.907  0.00  0.00    -0.061 A 
ATOM     13  C   UNL A   1      40.829 -20.621 -34.006  0.00  0.00    -0.054 A 
ATOM     14  C   UNL A   1      39.835 -21.259 -34.759  0.00  0.00    +0.007 A 
ENDBRANCH   7  14
ENDBRANCH   1   7
BRANCH   5  15
ATOM     15  C   UNL A   1      42.776 -19.439 -39.201  0.00  0.00    +0.050 C 
BRANCH  15  16
ATOM     16  N   UNL A   1      44.074 -20.004 -38.838  0.00  0.00    -0.339 N 
ATOM     17  C   UNL A   1      44.899 -20.725 -39.674  0.00  0.00    +0.023 A 
ATOM     18  C   UNL A   1      46.082 -20.969 -39.003  0.00  0.00    -0.019 A 
ATOM     19  C   UNL A   1      45.973 -20.397 -37.709  0.00  0.00    +0.003 A 
ATOM     20  C   UNL A   1      46.855 -20.307 -36.612  0.00  0.00    -0.052 A 
ATOM     21  C   UNL A   1      46.460 -19.625 -35.460  0.00  0.00    -0.061 A 
ATOM     22  C   UNL A   1      45.202 -19.040 -35.386  0.00  0.00    -0.060 A 
ATOM     23  C   UNL A   1      44.306 -19.117 -36.458  0.00  0.00    -0.038 A 
ATOM     24  C   UNL A   1      44.709 -19.801 -37.620  0.00  0.00    +0.050 A 
ATOM     25  C   UNL A   1      47.238 -21.688 -39.621  0.00  0.00    -0.025 C 
ATOM     26  C   UNL A   1      47.113 -21.723 -41.152  0.00  0.00    -0.049 C 
ATOM     27  C   UNL A   1      45.692 -22.103 -41.596  0.00  0.00    -0.047 C 
ATOM     28  C   UNL A   1      44.639 -21.097 -41.100  0.00  0.00    -0.012 C 
ENDBRANCH  15  16
ENDBRANCH   5  15
TORSDOF 4
ENDMDL
MODEL 19
REMARK VINA RESULT:    -6.691     19.793     22.541
REMARK INTER + INTRA:         -10.103
REMARK INTER:                  -8.254
REMARK INTRA:                  -1.849
REMARK UNBOUND:                -1.848
REMARK  Name = cpd363.pdb
REMARK  4 active torsions:
REMARK  status: ('A' for Active; 'I' for Inactive)
REMARK    1  A    between atoms: C_7  and  C_8
REMARK    2  A    between atoms: C_8  and  N_9
REMARK    3  A    between atoms: C_13  and  C_14
REMARK    4  A    between atoms: C_14  and  N_15
REMARK                            x       y       z     vdW  Elec       q    Type
REMARK                         _______ _______ _______ _____ _____    ______ ____
ROOT
ATOM      1  N   UNL A   1      43.234 -20.585 -36.384  0.00  0.00    -0.349 N 
ATOM      2  C   UNL A   1      42.184 -21.286 -35.891  0.00  0.00    +0.005 A 
ATOM      3  C   UNL A   1      41.233 -21.833 -36.739  0.00  0.00    -0.045 A 
ATOM      4  C   UNL A   1      41.385 -21.694 -38.110  0.00  0.00    -0.054 A 
ATOM      5  C   UNL A   1      42.501 -21.025 -38.622  0.00  0.00    -0.012 A 
ATOM      6  C   UNL A   1      43.407 -20.451 -37.722  0.00  0.00    +0.010 A 
ENDROOT
BRANCH   1   7
ATOM      7  C   UNL A   1      44.239 -20.012 -35.447  0.00  0.00    +0.050 C 
BRANCH   7  14
ATOM      8  F   UNL A   1      46.588 -20.861 -36.706  0.00  0.00    -0.205 F 
ATOM      9  C   UNL A   1      46.326 -19.547 -36.760  0.00  0.00    +0.128 A 
ATOM     10  C   UNL A   1      47.232 -18.703 -37.388  0.00  0.00    -0.026 A 
ATOM     11  C   UNL A   1      46.986 -17.334 -37.409  0.00  0.00    -0.059 A 
ATOM     12  C   UNL A   1      45.837 -16.822 -36.802  0.00  0.00    -0.061 A 
ATOM     13  C   UNL A   1      44.929 -17.678 -36.170  0.00  0.00    -0.054 A 
ATOM     14  C   UNL A   1      45.168 -19.058 -36.144  0.00  0.00    +0.007 A 
ENDBRANCH   7  14
ENDBRANCH   1   7
BRANCH   5  15
ATOM     15  C   UNL A   1      42.702 -20.945 -40.117  0.00  0.00    +0.050 C 
BRANCH  15  16
ATOM     16  N   UNL A   1      43.976 -20.332 -40.490  0.00  0.00    -0.339 N 
ATOM     17  C   UNL A   1      44.207 -18.981 -40.631  0.00  0.00    +0.023 A 
ATOM     18  C   UNL A   1      45.557 -18.799 -40.861  0.00  0.00    -0.019 A 
ATOM     19  C   UNL A   1      46.171 -20.078 -40.881  0.00  0.00    +0.003 A 
ATOM     20  C   UNL A   1      47.503 -20.511 -41.044  0.00  0.00    -0.052 A 
ATOM     21  C   UNL A   1      47.802 -21.873 -40.971  0.00  0.00    -0.061 A 
ATOM     22  C   UNL A   1      46.795 -22.803 -40.744  0.00  0.00    -0.060 A 
ATOM     23  C   UNL A   1      45.464 -22.401 -40.583  0.00  0.00    -0.038 A 
ATOM     24  C   UNL A   1      45.167 -21.027 -40.652  0.00  0.00    +0.050 A 
ATOM     25  C   UNL A   1      46.185 -17.451 -41.016  0.00  0.00    -0.025 C 
ATOM     26  C   UNL A   1      45.265 -16.347 -40.472  0.00  0.00    -0.049 C 
ATOM     27  C   UNL A   1      43.814 -16.537 -40.939  0.00  0.00    -0.047 C 
ATOM     28  C   UNL A   1      43.218 -17.872 -40.458  0.00  0.00    -0.012 C 
ENDBRANCH  15  16
ENDBRANCH   5  15
TORSDOF 4
ENDMDL
MODEL 20
REMARK VINA RESULT:    -6.606     19.388     22.098
REMARK INTER + INTRA:          -9.998
REMARK INTER:                  -8.620
REMARK INTRA:                  -1.379
REMARK UNBOUND:                -1.848
REMARK  Name = cpd363.pdb
REMARK  4 active torsions:
REMARK  status: ('A' for Active; 'I' for Inactive)
REMARK    1  A    between atoms: C_7  and  C_8
REMARK    2  A    between atoms: C_8  and  N_9
REMARK    3  A    between atoms: C_13  and  C_14
REMARK    4  A    between atoms: C_14  and  N_15
REMARK                            x       y       z     vdW  Elec       q    Type
REMARK                         _______ _______ _______ _____ _____    ______ ____
ROOT
ATOM      1  N   UNL A   1      46.528 -18.007 -39.211  0.00  0.00    -0.349 N 
ATOM      2  C   UNL A   1      46.565 -16.805 -38.585  0.00  0.00    +0.005 A 
ATOM      3  C   UNL A   1      46.102 -16.664 -37.286  0.00  0.00    -0.045 A 
ATOM      4  C   UNL A   1      45.636 -17.780 -36.607  0.00  0.00    -0.054 A 
ATOM      5  C   UNL A   1      45.656 -19.032 -37.229  0.00  0.00    -0.012 A 
ATOM      6  C   UNL A   1      46.089 -19.111 -38.558  0.00  0.00    +0.010 A 
ENDROOT
BRANCH   1   7
ATOM      7  C   UNL A   1      47.035 -18.125 -40.606  0.00  0.00    +0.050 C 
BRANCH   7  14
ATOM      8  F   UNL A   1      44.547 -17.650 -41.792  0.00  0.00    -0.205 F 
ATOM      9  C   UNL A   1      45.057 -18.879 -41.952  0.00  0.00    +0.128 A 
ATOM     10  C   UNL A   1      44.320 -19.831 -42.646  0.00  0.00    -0.026 A 
ATOM     11  C   UNL A   1      44.825 -21.121 -42.777  0.00  0.00    -0.059 A 
ATOM     12  C   UNL A   1      46.061 -21.447 -42.214  0.00  0.00    -0.061 A 
ATOM     13  C   UNL A   1      46.797 -20.484 -41.515  0.00  0.00    -0.054 A 
ATOM     14  C   UNL A   1      46.297 -19.183 -41.378  0.00  0.00    +0.007 A 
ENDBRANCH   7  14
ENDBRANCH   1   7
BRANCH   5  15
ATOM     15  C   UNL A   1      45.220 -20.255 -36.457  0.00  0.00    +0.050 C 
BRANCH  15  16
ATOM     16  N   UNL A   1      43.773 -20.463 -36.486  0.00  0.00    -0.339 N 
ATOM     17  C   UNL A   1      43.046 -20.912 -37.567  0.00  0.00    +0.023 A 
ATOM     18  C   UNL A   1      41.740 -21.099 -37.158  0.00  0.00    -0.019 A 
ATOM     19  C   UNL A   1      41.658 -20.736 -35.788  0.00  0.00    +0.003 A 
ATOM     20  C   UNL A   1      40.608 -20.742 -34.846  0.00  0.00    -0.052 A 
ATOM     21  C   UNL A   1      40.859 -20.355 -33.528  0.00  0.00    -0.061 A 
ATOM     22  C   UNL A   1      42.134 -19.960 -33.142  0.00  0.00    -0.060 A 
ATOM     23  C   UNL A   1      43.192 -19.940 -34.058  0.00  0.00    -0.038 A 
ATOM     24  C   UNL A   1      42.937 -20.336 -35.384  0.00  0.00    +0.050 A 
ATOM     25  C   UNL A   1      40.671 -21.629 -38.057  0.00  0.00    -0.025 C 
ATOM     26  C   UNL A   1      41.276 -22.319 -39.290  0.00  0.00    -0.049 C 
ATOM     27  C   UNL A   1      42.406 -21.483 -39.909  0.00  0.00    -0.047 C 
ATOM     28  C   UNL A   1      43.569 -21.256 -38.926  0.00  0.00    -0.012 C 
ENDBRANCH  15  16
ENDBRANCH   5  15
TORSDOF 4
ENDMDL
