REMARK  Name = cpd363.pdb
REMARK  4 active torsions:
REMARK  status: ('A' for Active; 'I' for Inactive)
REMARK    1  A    between atoms: C_7  and  C_8
REMARK    2  A    between atoms: C_8  and  N_9
REMARK    3  A    between atoms: C_13  and  C_14
REMARK    4  A    between atoms: C_14  and  N_15
REMARK                            x       y       z     vdW  Elec       q    Type
REMARK                         _______ _______ _______ _____ _____    ______ ____
ROOT
ATOM      1  N   UNL A   1       1.177  -1.367   0.123  0.00  0.00    -0.349 N 
ATOM      2  C   UNL A   1       1.802  -2.396   0.746  0.00  0.00    +0.005 A 
ATOM      3  C   UNL A   1       1.230  -3.014   1.847  0.00  0.00    -0.045 A 
ATOM      4  C   UNL A   1      -0.018  -2.598   2.287  0.00  0.00    -0.054 A 
ATOM      5  C   UNL A   1      -0.691  -1.579   1.607  0.00  0.00    -0.012 A 
ATOM      6  C   UNL A   1      -0.049  -0.956   0.530  0.00  0.00    +0.010 A 
ENDROOT
BRANCH   1   7
ATOM      7  C   UNL A   1       1.818  -0.726  -1.059  0.00  0.00    +0.050 C 
BRANCH   7  14
ATOM      8  F   UNL A   1       4.197  -2.008  -1.779  0.00  0.00    -0.205 F 
ATOM      9  C   UNL A   1       4.323  -0.851  -1.114  0.00  0.00    +0.128 A 
ATOM     10  C   UNL A   1       5.594  -0.390  -0.796  0.00  0.00    -0.026 A 
ATOM     11  C   UNL A   1       5.729   0.788  -0.068  0.00  0.00    -0.059 A 
ATOM     12  C   UNL A   1       4.593   1.493   0.335  0.00  0.00    -0.061 A 
ATOM     13  C   UNL A   1       3.316   1.022   0.013  0.00  0.00    -0.054 A 
ATOM     14  C   UNL A   1       3.170  -0.163  -0.720  0.00  0.00    +0.007 A 
ENDBRANCH   7  14
ENDBRANCH   1   7
BRANCH   5  15
ATOM     15  C   UNL A   1      -2.083  -1.184   2.043  0.00  0.00    +0.050 C 
BRANCH  15  16
ATOM     16  N   UNL A   1      -3.022  -1.077   0.927  0.00  0.00    -0.339 N 
ATOM     17  C   UNL A   1      -3.394  -2.105   0.088  0.00  0.00    +0.023 A 
ATOM     18  C   UNL A   1      -4.389  -1.637  -0.748  0.00  0.00    -0.019 A 
ATOM     19  C   UNL A   1      -4.623  -0.275  -0.425  0.00  0.00    +0.003 A 
ATOM     20  C   UNL A   1      -5.521   0.696  -0.914  0.00  0.00    -0.052 A 
ATOM     21  C   UNL A   1      -5.537   1.972  -0.347  0.00  0.00    -0.061 A 
ATOM     22  C   UNL A   1      -4.670   2.291   0.691  0.00  0.00    -0.060 A 
ATOM     23  C   UNL A   1      -3.766   1.348   1.192  0.00  0.00    -0.038 A 
ATOM     24  C   UNL A   1      -3.756   0.061   0.622  0.00  0.00    +0.050 A 
ATOM     25  C   UNL A   1      -5.072  -2.494  -1.764  0.00  0.00    -0.025 C 
ATOM     26  C   UNL A   1      -4.850  -3.986  -1.469  0.00  0.00    -0.049 C 
ATOM     27  C   UNL A   1      -3.382  -4.283  -1.127  0.00  0.00    -0.047 C 
ATOM     28  C   UNL A   1      -2.909  -3.520   0.123  0.00  0.00    -0.012 C 
ENDBRANCH  15  16
ENDBRANCH   5  15
TORSDOF 4
