REMARK  Name = cpd233.pdb
REMARK  6 active torsions:
REMARK  status: ('A' for Active; 'I' for Inactive)
REMARK    1  A    between atoms: C_1  and  C_2
REMARK    2  A    between atoms: C_11  and  N_12
REMARK    3  A    between atoms: C_13  and  C_14
REMARK    4  A    between atoms: C_14  and  O_15
REMARK    5  A    between atoms: O_15  and  C_16
REMARK    6  A    between atoms: C_16  and  C_17
REMARK                            x       y       z     vdW  Elec       q    Type
REMARK                         _______ _______ _______ _____ _____    ______ ____
ROOT
ATOM      1  C   UNL A   1      -4.689  -1.607  -0.965  0.00  0.00    -0.022 C 
ATOM      2  C   UNL A   1      -4.362  -0.207  -0.527  0.00  0.00    +0.046 A 
ATOM      3  N   UNL A   1      -5.433   0.547  -0.179  0.00  0.00    -0.251 NA
ATOM      4  C   UNL A   1      -5.241   1.810   0.217  0.00  0.00    +0.076 A 
ATOM      5  C   UNL A   1      -6.366   2.565   0.533  0.00  0.00    -0.035 A 
ATOM      6  C   UNL A   1      -6.275   3.891   0.959  0.00  0.00    -0.057 A 
ATOM      7  C   UNL A   1      -5.027   4.478   1.080  0.00  0.00    -0.026 A 
ATOM      8  C   UNL A   1      -3.893   3.732   0.770  0.00  0.00    +0.134 A 
ATOM      9  F   UNL A   1      -2.699   4.330   0.927  0.00  0.00    -0.205 F 
ATOM     10  C   UNL A   1      -3.964   2.390   0.326  0.00  0.00    +0.056 A 
ATOM     11  C   UNL A   1      -2.842   1.576   0.001  0.00  0.00    +0.044 A 
ATOM     12  C   UNL A   1      -3.050   0.278  -0.506  0.00  0.00    +0.020 A 
ENDROOT
BRANCH  11  13
ATOM     13  N   UNL A   1      -1.537   2.131  -0.011  0.00  0.00    -0.357 N 
ATOM     14  H   UNL A   1      -1.384   3.037   0.342  0.00  0.00    +0.000 HD
ATOM     15  H   UNL A   1      -0.784   1.610  -0.372  0.00  0.00    +0.000 HD
ENDBRANCH  11  13
BRANCH  12  16
ATOM     16  C   UNL A   1      -1.906  -0.579  -0.982  0.00  0.00    +0.077 C 
BRANCH  16  17
ATOM     17  O   UNL A   1      -1.454  -1.374   0.112  0.00  0.00    -0.370 OA
BRANCH  17  18
ATOM     18  C   UNL A   1      -0.284  -2.125  -0.208  0.00  0.00    +0.073 C 
BRANCH  18  19
ATOM     19  C   UNL A   1       0.958  -1.288  -0.038  0.00  0.00    -0.022 A 
ATOM     20  C   UNL A   1       1.223  -0.656   1.186  0.00  0.00    -0.056 A 
ATOM     21  C   UNL A   1       2.376   0.111   1.352  0.00  0.00    -0.061 A 
ATOM     22  C   UNL A   1       3.277   0.252   0.299  0.00  0.00    -0.062 A 
ATOM     23  C   UNL A   1       3.025  -0.372  -0.922  0.00  0.00    -0.061 A 
ATOM     24  C   UNL A   1       1.872  -1.141  -1.090  0.00  0.00    -0.056 A 
ENDBRANCH  18  19
ENDBRANCH  17  18
ENDBRANCH  16  17
ENDBRANCH  12  16
TORSDOF 5
