MODEL 1
REMARK VINA RESULT:    -8.039      0.000      0.000
REMARK INTER + INTRA:         -11.404
REMARK INTER:                 -10.154
REMARK INTRA:                  -1.249
REMARK UNBOUND:                -1.249
REMARK  Name = cpd233.pdb
REMARK  6 active torsions:
REMARK  status: ('A' for Active; 'I' for Inactive)
REMARK    1  A    between atoms: C_1  and  C_2
REMARK    2  A    between atoms: C_11  and  N_12
REMARK    3  A    between atoms: C_13  and  C_14
REMARK    4  A    between atoms: C_14  and  O_15
REMARK    5  A    between atoms: O_15  and  C_16
REMARK    6  A    between atoms: C_16  and  C_17
REMARK                            x       y       z     vdW  Elec       q    Type
REMARK                         _______ _______ _______ _____ _____    ______ ____
ROOT
ATOM      1  C   UNL A   1      37.167 -37.730 -27.884  0.00  0.00    -0.022 C 
ATOM      2  C   UNL A   1      37.959 -37.337 -29.100  0.00  0.00    +0.046 A 
ATOM      3  N   UNL A   1      39.227 -37.812 -29.133  0.00  0.00    -0.251 NA
ATOM      4  C   UNL A   1      40.011 -37.508 -30.173  0.00  0.00    +0.076 A 
ATOM      5  C   UNL A   1      41.319 -37.983 -30.156  0.00  0.00    -0.035 A 
ATOM      6  C   UNL A   1      42.216 -37.725 -31.193  0.00  0.00    -0.057 A 
ATOM      7  C   UNL A   1      41.797 -36.978 -32.280  0.00  0.00    -0.026 A 
ATOM      8  C   UNL A   1      40.490 -36.499 -32.311  0.00  0.00    +0.134 A 
ATOM      9  F   UNL A   1      40.113 -35.801 -33.396  0.00  0.00    -0.205 F 
ATOM     10  C   UNL A   1      39.567 -36.740 -31.265  0.00  0.00    +0.056 A 
ATOM     11  C   UNL A   1      38.219 -36.283 -31.242  0.00  0.00    +0.044 A 
ATOM     12  C   UNL A   1      37.424 -36.523 -30.104  0.00  0.00    +0.020 A 
ENDROOT
BRANCH  11  13
ATOM     13  N   UNL A   1      37.741 -35.418 -32.260  0.00  0.00    -0.357 N 
ATOM     14  H   UNL A   1      37.227 -35.784 -33.015  0.00  0.00    +0.000 HD
ATOM     15  H   UNL A   1      37.923 -34.452 -32.210  0.00  0.00    +0.000 HD
ENDBRANCH  11  13
BRANCH  12  16
ATOM     16  C   UNL A   1      36.034 -35.956 -29.975  0.00  0.00    +0.077 C 
BRANCH  16  17
ATOM     17  O   UNL A   1      35.214 -36.541 -30.985  0.00  0.00    -0.370 OA
BRANCH  17  18
ATOM     18  C   UNL A   1      34.200 -37.384 -30.442  0.00  0.00    +0.073 C 
BRANCH  18  19
ATOM     19  C   UNL A   1      34.688 -38.805 -30.318  0.00  0.00    -0.022 A 
ATOM     20  C   UNL A   1      35.473 -39.374 -31.331  0.00  0.00    -0.056 A 
ATOM     21  C   UNL A   1      35.936 -40.685 -31.217  0.00  0.00    -0.061 A 
ATOM     22  C   UNL A   1      35.623 -41.438 -30.088  0.00  0.00    -0.062 A 
ATOM     23  C   UNL A   1      34.844 -40.883 -29.073  0.00  0.00    -0.061 A 
ATOM     24  C   UNL A   1      34.380 -39.571 -29.186  0.00  0.00    -0.056 A 
ENDBRANCH  18  19
ENDBRANCH  17  18
ENDBRANCH  16  17
ENDBRANCH  12  16
TORSDOF 5
ENDMDL
MODEL 2
REMARK VINA RESULT:    -7.392      1.545      2.730
REMARK INTER + INTRA:         -10.586
REMARK INTER:                  -9.441
REMARK INTRA:                  -1.144
REMARK UNBOUND:                -1.249
REMARK  Name = cpd233.pdb
REMARK  6 active torsions:
REMARK  status: ('A' for Active; 'I' for Inactive)
REMARK    1  A    between atoms: C_1  and  C_2
REMARK    2  A    between atoms: C_11  and  N_12
REMARK    3  A    between atoms: C_13  and  C_14
REMARK    4  A    between atoms: C_14  and  O_15
REMARK    5  A    between atoms: O_15  and  C_16
REMARK    6  A    between atoms: C_16  and  C_17
REMARK                            x       y       z     vdW  Elec       q    Type
REMARK                         _______ _______ _______ _____ _____    ______ ____
ROOT
ATOM      1  C   UNL A   1      35.435 -35.726 -30.567  0.00  0.00    -0.022 C 
ATOM      2  C   UNL A   1      36.870 -36.171 -30.569  0.00  0.00    +0.046 A 
ATOM      3  N   UNL A   1      37.579 -35.810 -31.666  0.00  0.00    -0.251 NA
ATOM      4  C   UNL A   1      38.864 -36.169 -31.761  0.00  0.00    +0.076 A 
ATOM      5  C   UNL A   1      39.550 -35.811 -32.916  0.00  0.00    -0.035 A 
ATOM      6  C   UNL A   1      40.893 -36.134 -33.113  0.00  0.00    -0.057 A 
ATOM      7  C   UNL A   1      41.573 -36.828 -32.126  0.00  0.00    -0.026 A 
ATOM      8  C   UNL A   1      40.898 -37.189 -30.963  0.00  0.00    +0.134 A 
ATOM      9  F   UNL A   1      41.601 -37.837 -30.017  0.00  0.00    -0.205 F 
ATOM     10  C   UNL A   1      39.534 -36.880 -30.749  0.00  0.00    +0.056 A 
ATOM     11  C   UNL A   1      38.793 -37.217 -29.580  0.00  0.00    +0.044 A 
ATOM     12  C   UNL A   1      37.417 -36.922 -29.522  0.00  0.00    +0.020 A 
ENDROOT
BRANCH  11  13
ATOM     13  N   UNL A   1      39.379 -38.023 -28.571  0.00  0.00    -0.357 N 
ATOM     14  H   UNL A   1      40.307 -37.859 -28.287  0.00  0.00    +0.000 HD
ATOM     15  H   UNL A   1      38.857 -38.745 -28.154  0.00  0.00    +0.000 HD
ENDBRANCH  11  13
BRANCH  12  16
ATOM     16  C   UNL A   1      36.560 -37.365 -28.365  0.00  0.00    +0.077 C 
BRANCH  16  17
ATOM     17  O   UNL A   1      36.580 -38.790 -28.310  0.00  0.00    -0.370 OA
BRANCH  17  18
ATOM     18  C   UNL A   1      35.283 -39.360 -28.480  0.00  0.00    +0.073 C 
BRANCH  18  19
ATOM     19  C   UNL A   1      35.038 -39.725 -29.922  0.00  0.00    -0.022 A 
ATOM     20  C   UNL A   1      35.834 -40.694 -30.551  0.00  0.00    -0.056 A 
ATOM     21  C   UNL A   1      35.605 -41.043 -31.882  0.00  0.00    -0.061 A 
ATOM     22  C   UNL A   1      34.578 -40.430 -32.596  0.00  0.00    -0.062 A 
ATOM     23  C   UNL A   1      33.780 -39.466 -31.982  0.00  0.00    -0.061 A 
ATOM     24  C   UNL A   1      34.007 -39.116 -30.649  0.00  0.00    -0.056 A 
ENDBRANCH  18  19
ENDBRANCH  17  18
ENDBRANCH  16  17
ENDBRANCH  12  16
TORSDOF 5
ENDMDL
MODEL 3
REMARK VINA RESULT:    -7.153      2.522      4.238
REMARK INTER + INTRA:         -10.284
REMARK INTER:                  -9.471
REMARK INTRA:                  -0.813
REMARK UNBOUND:                -1.249
REMARK  Name = cpd233.pdb
REMARK  6 active torsions:
REMARK  status: ('A' for Active; 'I' for Inactive)
REMARK    1  A    between atoms: C_1  and  C_2
REMARK    2  A    between atoms: C_11  and  N_12
REMARK    3  A    between atoms: C_13  and  C_14
REMARK    4  A    between atoms: C_14  and  O_15
REMARK    5  A    between atoms: O_15  and  C_16
REMARK    6  A    between atoms: C_16  and  C_17
REMARK                            x       y       z     vdW  Elec       q    Type
REMARK                         _______ _______ _______ _____ _____    ______ ____
ROOT
ATOM      1  C   UNL A   1      37.251 -39.044 -28.763  0.00  0.00    -0.022 C 
ATOM      2  C   UNL A   1      37.803 -37.904 -29.572  0.00  0.00    +0.046 A 
ATOM      3  N   UNL A   1      39.154 -37.877 -29.672  0.00  0.00    -0.251 NA
ATOM      4  C   UNL A   1      39.737 -36.894 -30.367  0.00  0.00    +0.076 A 
ATOM      5  C   UNL A   1      41.127 -36.878 -30.419  0.00  0.00    -0.035 A 
ATOM      6  C   UNL A   1      41.833 -35.898 -31.119  0.00  0.00    -0.057 A 
ATOM      7  C   UNL A   1      41.133 -34.912 -31.792  0.00  0.00    -0.026 A 
ATOM      8  C   UNL A   1      39.741 -34.919 -31.751  0.00  0.00    +0.134 A 
ATOM      9  F   UNL A   1      39.099 -33.959 -32.440  0.00  0.00    -0.205 F 
ATOM     10  C   UNL A   1      39.007 -35.896 -31.038  0.00  0.00    +0.056 A 
ATOM     11  C   UNL A   1      37.586 -35.959 -30.964  0.00  0.00    +0.044 A 
ATOM     12  C   UNL A   1      36.976 -36.938 -30.155  0.00  0.00    +0.020 A 
ENDROOT
BRANCH  11  13
ATOM     13  N   UNL A   1      36.796 -34.926 -31.530  0.00  0.00    -0.357 N 
ATOM     14  H   UNL A   1      35.889 -34.756 -31.186  0.00  0.00    +0.000 HD
ATOM     15  H   UNL A   1      37.154 -34.379 -32.265  0.00  0.00    +0.000 HD
ENDBRANCH  11  13
BRANCH  12  16
ATOM     16  C   UNL A   1      35.485 -36.972 -29.943  0.00  0.00    +0.077 C 
BRANCH  16  17
ATOM     17  O   UNL A   1      35.130 -35.903 -29.068  0.00  0.00    -0.370 OA
BRANCH  17  18
ATOM     18  C   UNL A   1      33.735 -35.611 -29.105  0.00  0.00    +0.073 C 
BRANCH  18  19
ATOM     19  C   UNL A   1      33.479 -34.278 -29.762  0.00  0.00    -0.022 A 
ATOM     20  C   UNL A   1      34.306 -33.181 -29.481  0.00  0.00    -0.056 A 
ATOM     21  C   UNL A   1      34.081 -31.949 -30.094  0.00  0.00    -0.061 A 
ATOM     22  C   UNL A   1      33.030 -31.801 -30.997  0.00  0.00    -0.062 A 
ATOM     23  C   UNL A   1      32.202 -32.885 -31.285  0.00  0.00    -0.061 A 
ATOM     24  C   UNL A   1      32.426 -34.119 -30.673  0.00  0.00    -0.056 A 
ENDBRANCH  18  19
ENDBRANCH  17  18
ENDBRANCH  16  17
ENDBRANCH  12  16
TORSDOF 5
ENDMDL
MODEL 4
REMARK VINA RESULT:    -7.012      3.137      6.643
REMARK INTER + INTRA:         -10.106
REMARK INTER:                  -9.477
REMARK INTRA:                  -0.629
REMARK UNBOUND:                -1.249
REMARK  Name = cpd233.pdb
REMARK  6 active torsions:
REMARK  status: ('A' for Active; 'I' for Inactive)
REMARK    1  A    between atoms: C_1  and  C_2
REMARK    2  A    between atoms: C_11  and  N_12
REMARK    3  A    between atoms: C_13  and  C_14
REMARK    4  A    between atoms: C_14  and  O_15
REMARK    5  A    between atoms: O_15  and  C_16
REMARK    6  A    between atoms: C_16  and  C_17
REMARK                            x       y       z     vdW  Elec       q    Type
REMARK                         _______ _______ _______ _____ _____    ______ ____
ROOT
ATOM      1  C   UNL A   1      34.196 -37.462 -28.570  0.00  0.00    -0.022 C 
ATOM      2  C   UNL A   1      34.334 -36.121 -29.235  0.00  0.00    +0.046 A 
ATOM      3  N   UNL A   1      33.321 -35.255 -28.989  0.00  0.00    -0.251 NA
ATOM      4  C   UNL A   1      33.353 -34.039 -29.545  0.00  0.00    +0.076 A 
ATOM      5  C   UNL A   1      32.279 -33.189 -29.299  0.00  0.00    -0.035 A 
ATOM      6  C   UNL A   1      32.216 -31.899 -29.828  0.00  0.00    -0.057 A 
ATOM      7  C   UNL A   1      33.256 -31.442 -30.619  0.00  0.00    -0.026 A 
ATOM      8  C   UNL A   1      34.338 -32.281 -30.870  0.00  0.00    +0.134 A 
ATOM      9  F   UNL A   1      35.340 -31.789 -31.620  0.00  0.00    -0.205 F 
ATOM     10  C   UNL A   1      34.416 -33.596 -30.352  0.00  0.00    +0.056 A 
ATOM     11  C   UNL A   1      35.498 -34.497 -30.568  0.00  0.00    +0.044 A 
ATOM     12  C   UNL A   1      35.419 -35.809 -30.061  0.00  0.00    +0.020 A 
ENDROOT
BRANCH  11  13
ATOM     13  N   UNL A   1      36.548 -34.151 -31.455  0.00  0.00    -0.357 N 
ATOM     14  H   UNL A   1      37.395 -33.795 -31.101  0.00  0.00    +0.000 HD
ATOM     15  H   UNL A   1      36.431 -34.266 -32.426  0.00  0.00    +0.000 HD
ENDBRANCH  11  13
BRANCH  12  16
ATOM     16  C   UNL A   1      36.476 -36.839 -30.365  0.00  0.00    +0.077 C 
BRANCH  16  17
ATOM     17  O   UNL A   1      37.732 -36.345 -29.906  0.00  0.00    -0.370 OA
BRANCH  17  18
ATOM     18  C   UNL A   1      38.692 -37.384 -29.726  0.00  0.00    +0.073 C 
BRANCH  18  19
ATOM     19  C   UNL A   1      39.971 -37.070 -30.459  0.00  0.00    -0.022 A 
ATOM     20  C   UNL A   1      41.155 -37.750 -30.139  0.00  0.00    -0.056 A 
ATOM     21  C   UNL A   1      42.339 -37.471 -30.822  0.00  0.00    -0.061 A 
ATOM     22  C   UNL A   1      42.351 -36.513 -31.833  0.00  0.00    -0.062 A 
ATOM     23  C   UNL A   1      41.180 -35.831 -32.161  0.00  0.00    -0.061 A 
ATOM     24  C   UNL A   1      39.994 -36.109 -31.479  0.00  0.00    -0.056 A 
ENDBRANCH  18  19
ENDBRANCH  17  18
ENDBRANCH  16  17
ENDBRANCH  12  16
TORSDOF 5
ENDMDL
MODEL 5
REMARK VINA RESULT:    -6.728      2.063      3.574
REMARK INTER + INTRA:          -9.748
REMARK INTER:                  -8.681
REMARK INTRA:                  -1.066
REMARK UNBOUND:                -1.249
REMARK  Name = cpd233.pdb
REMARK  6 active torsions:
REMARK  status: ('A' for Active; 'I' for Inactive)
REMARK    1  A    between atoms: C_1  and  C_2
REMARK    2  A    between atoms: C_11  and  N_12
REMARK    3  A    between atoms: C_13  and  C_14
REMARK    4  A    between atoms: C_14  and  O_15
REMARK    5  A    between atoms: O_15  and  C_16
REMARK    6  A    between atoms: C_16  and  C_17
REMARK                            x       y       z     vdW  Elec       q    Type
REMARK                         _______ _______ _______ _____ _____    ______ ____
ROOT
ATOM      1  C   UNL A   1      36.389 -35.113 -30.759  0.00  0.00    -0.022 C 
ATOM      2  C   UNL A   1      37.616 -35.949 -30.527  0.00  0.00    +0.046 A 
ATOM      3  N   UNL A   1      38.592 -35.801 -31.455  0.00  0.00    -0.251 NA
ATOM      4  C   UNL A   1      39.719 -36.510 -31.336  0.00  0.00    +0.076 A 
ATOM      5  C   UNL A   1      40.684 -36.359 -32.327  0.00  0.00    -0.035 A 
ATOM      6  C   UNL A   1      41.896 -37.051 -32.295  0.00  0.00    -0.057 A 
ATOM      7  C   UNL A   1      42.156 -37.912 -31.243  0.00  0.00    -0.026 A 
ATOM      8  C   UNL A   1      41.199 -38.070 -30.243  0.00  0.00    +0.134 A 
ATOM      9  F   UNL A   1      41.501 -38.894 -29.225  0.00  0.00    -0.205 F 
ATOM     10  C   UNL A   1      39.960 -37.386 -30.262  0.00  0.00    +0.056 A 
ATOM     11  C   UNL A   1      38.948 -37.502 -29.268  0.00  0.00    +0.044 A 
ATOM     12  C   UNL A   1      37.723 -36.827 -29.443  0.00  0.00    +0.020 A 
ENDROOT
BRANCH  11  13
ATOM     13  N   UNL A   1      39.083 -38.444 -28.217  0.00  0.00    -0.357 N 
ATOM     14  H   UNL A   1      38.400 -38.496 -27.511  0.00  0.00    +0.000 HD
ATOM     15  H   UNL A   1      39.860 -39.048 -28.194  0.00  0.00    +0.000 HD
ENDBRANCH  11  13
BRANCH  12  16
ATOM     16  C   UNL A   1      36.573 -37.012 -28.487  0.00  0.00    +0.077 C 
BRANCH  16  17
ATOM     17  O   UNL A   1      35.954 -38.266 -28.765  0.00  0.00    -0.370 OA
BRANCH  17  18
ATOM     18  C   UNL A   1      34.573 -38.281 -28.410  0.00  0.00    +0.073 C 
BRANCH  18  19
ATOM     19  C   UNL A   1      33.778 -37.349 -29.288  0.00  0.00    -0.022 A 
ATOM     20  C   UNL A   1      33.192 -36.195 -28.747  0.00  0.00    -0.056 A 
ATOM     21  C   UNL A   1      32.465 -35.324 -29.558  0.00  0.00    -0.061 A 
ATOM     22  C   UNL A   1      32.319 -35.594 -30.917  0.00  0.00    -0.062 A 
ATOM     23  C   UNL A   1      32.898 -36.737 -31.466  0.00  0.00    -0.061 A 
ATOM     24  C   UNL A   1      33.627 -37.610 -30.657  0.00  0.00    -0.056 A 
ENDBRANCH  18  19
ENDBRANCH  17  18
ENDBRANCH  16  17
ENDBRANCH  12  16
TORSDOF 5
ENDMDL
MODEL 6
REMARK VINA RESULT:    -6.508      3.249      5.036
REMARK INTER + INTRA:          -9.470
REMARK INTER:                  -8.881
REMARK INTRA:                  -0.589
REMARK UNBOUND:                -1.249
REMARK  Name = cpd233.pdb
REMARK  6 active torsions:
REMARK  status: ('A' for Active; 'I' for Inactive)
REMARK    1  A    between atoms: C_1  and  C_2
REMARK    2  A    between atoms: C_11  and  N_12
REMARK    3  A    between atoms: C_13  and  C_14
REMARK    4  A    between atoms: C_14  and  O_15
REMARK    5  A    between atoms: O_15  and  C_16
REMARK    6  A    between atoms: C_16  and  C_17
REMARK                            x       y       z     vdW  Elec       q    Type
REMARK                         _______ _______ _______ _____ _____    ______ ____
ROOT
ATOM      1  C   UNL A   1      34.607 -37.477 -27.956  0.00  0.00    -0.022 C 
ATOM      2  C   UNL A   1      35.881 -37.331 -28.740  0.00  0.00    +0.046 A 
ATOM      3  N   UNL A   1      36.979 -37.862 -28.148  0.00  0.00    -0.251 NA
ATOM      4  C   UNL A   1      38.161 -37.773 -28.767  0.00  0.00    +0.076 A 
ATOM      5  C   UNL A   1      39.272 -38.298 -28.115  0.00  0.00    -0.035 A 
ATOM      6  C   UNL A   1      40.550 -38.259 -28.675  0.00  0.00    -0.057 A 
ATOM      7  C   UNL A   1      40.723 -37.687 -29.924  0.00  0.00    -0.026 A 
ATOM      8  C   UNL A   1      39.618 -37.161 -30.589  0.00  0.00    +0.134 A 
ATOM      9  F   UNL A   1      39.825 -36.639 -31.811  0.00  0.00    -0.205 F 
ATOM     10  C   UNL A   1      38.317 -37.180 -30.034  0.00  0.00    +0.056 A 
ATOM     11  C   UNL A   1      37.150 -36.665 -30.667  0.00  0.00    +0.044 A 
ATOM     12  C   UNL A   1      35.923 -36.674 -29.974  0.00  0.00    +0.020 A 
ENDROOT
BRANCH  11  13
ATOM     13  N   UNL A   1      37.255 -35.963 -31.895  0.00  0.00    -0.357 N 
ATOM     14  H   UNL A   1      36.639 -35.221 -32.092  0.00  0.00    +0.000 HD
ATOM     15  H   UNL A   1      37.944 -36.218 -32.550  0.00  0.00    +0.000 HD
ENDBRANCH  11  13
BRANCH  12  16
ATOM     16  C   UNL A   1      34.687 -36.031 -30.545  0.00  0.00    +0.077 C 
BRANCH  16  17
ATOM     17  O   UNL A   1      34.817 -34.616 -30.421  0.00  0.00    -0.370 OA
BRANCH  17  18
ATOM     18  C   UNL A   1      34.432 -33.928 -31.610  0.00  0.00    +0.073 C 
BRANCH  18  19
ATOM     19  C   UNL A   1      33.307 -32.963 -31.335  0.00  0.00    -0.022 A 
ATOM     20  C   UNL A   1      32.035 -33.185 -31.885  0.00  0.00    -0.056 A 
ATOM     21  C   UNL A   1      30.988 -32.301 -31.625  0.00  0.00    -0.061 A 
ATOM     22  C   UNL A   1      31.199 -31.190 -30.812  0.00  0.00    -0.062 A 
ATOM     23  C   UNL A   1      32.457 -30.960 -30.259  0.00  0.00    -0.061 A 
ATOM     24  C   UNL A   1      33.507 -31.844 -30.517  0.00  0.00    -0.056 A 
ENDBRANCH  18  19
ENDBRANCH  17  18
ENDBRANCH  16  17
ENDBRANCH  12  16
TORSDOF 5
ENDMDL
MODEL 7
REMARK VINA RESULT:    -6.350      3.328      4.501
REMARK INTER + INTRA:          -9.270
REMARK INTER:                  -8.680
REMARK INTRA:                  -0.590
REMARK UNBOUND:                -1.249
REMARK  Name = cpd233.pdb
REMARK  6 active torsions:
REMARK  status: ('A' for Active; 'I' for Inactive)
REMARK    1  A    between atoms: C_1  and  C_2
REMARK    2  A    between atoms: C_11  and  N_12
REMARK    3  A    between atoms: C_13  and  C_14
REMARK    4  A    between atoms: C_14  and  O_15
REMARK    5  A    between atoms: O_15  and  C_16
REMARK    6  A    between atoms: C_16  and  C_17
REMARK                            x       y       z     vdW  Elec       q    Type
REMARK                         _______ _______ _______ _____ _____    ______ ____
ROOT
ATOM      1  C   UNL A   1      35.104 -35.676 -30.643  0.00  0.00    -0.022 C 
ATOM      2  C   UNL A   1      36.417 -36.308 -30.274  0.00  0.00    +0.046 A 
ATOM      3  N   UNL A   1      37.474 -35.906 -31.020  0.00  0.00    -0.251 NA
ATOM      4  C   UNL A   1      38.683 -36.420 -30.769  0.00  0.00    +0.076 A 
ATOM      5  C   UNL A   1      39.739 -36.010 -31.578  0.00  0.00    -0.035 A 
ATOM      6  C   UNL A   1      41.039 -36.484 -31.398  0.00  0.00    -0.057 A 
ATOM      7  C   UNL A   1      41.295 -37.387 -30.380  0.00  0.00    -0.026 A 
ATOM      8  C   UNL A   1      40.248 -37.803 -29.562  0.00  0.00    +0.134 A 
ATOM      9  F   UNL A   1      40.544 -38.658 -28.568  0.00  0.00    -0.205 F 
ATOM     10  C   UNL A   1      38.921 -37.342 -29.734  0.00  0.00    +0.056 A 
ATOM     11  C   UNL A   1      37.812 -37.725 -28.927  0.00  0.00    +0.044 A 
ATOM     12  C   UNL A   1      36.523 -37.256 -29.251  0.00  0.00    +0.020 A 
ENDROOT
BRANCH  11  13
ATOM     13  N   UNL A   1      37.963 -38.729 -27.936  0.00  0.00    -0.357 N 
ATOM     14  H   UNL A   1      37.754 -39.667 -28.150  0.00  0.00    +0.000 HD
ATOM     15  H   UNL A   1      38.277 -38.487 -27.035  0.00  0.00    +0.000 HD
ENDBRANCH  11  13
BRANCH  12  16
ATOM     16  C   UNL A   1      35.300 -37.727 -28.509  0.00  0.00    +0.077 C 
BRANCH  16  17
ATOM     17  O   UNL A   1      35.306 -37.137 -27.211  0.00  0.00    -0.370 OA
BRANCH  17  18
ATOM     18  C   UNL A   1      33.990 -36.876 -26.726  0.00  0.00    +0.073 C 
BRANCH  18  19
ATOM     19  C   UNL A   1      33.782 -37.496 -25.368  0.00  0.00    -0.022 A 
ATOM     20  C   UNL A   1      33.700 -38.889 -25.231  0.00  0.00    -0.056 A 
ATOM     21  C   UNL A   1      33.519 -39.469 -23.976  0.00  0.00    -0.061 A 
ATOM     22  C   UNL A   1      33.420 -38.663 -22.844  0.00  0.00    -0.062 A 
ATOM     23  C   UNL A   1      33.501 -37.276 -22.967  0.00  0.00    -0.061 A 
ATOM     24  C   UNL A   1      33.684 -36.694 -24.222  0.00  0.00    -0.056 A 
ENDBRANCH  18  19
ENDBRANCH  17  18
ENDBRANCH  16  17
ENDBRANCH  12  16
TORSDOF 5
ENDMDL
MODEL 8
REMARK VINA RESULT:    -6.278     16.218     19.190
REMARK INTER + INTRA:          -9.179
REMARK INTER:                  -8.485
REMARK INTRA:                  -0.694
REMARK UNBOUND:                -1.249
REMARK  Name = cpd233.pdb
REMARK  6 active torsions:
REMARK  status: ('A' for Active; 'I' for Inactive)
REMARK    1  A    between atoms: C_1  and  C_2
REMARK    2  A    between atoms: C_11  and  N_12
REMARK    3  A    between atoms: C_13  and  C_14
REMARK    4  A    between atoms: C_14  and  O_15
REMARK    5  A    between atoms: O_15  and  C_16
REMARK    6  A    between atoms: C_16  and  C_17
REMARK                            x       y       z     vdW  Elec       q    Type
REMARK                         _______ _______ _______ _____ _____    ______ ____
ROOT
ATOM      1  C   UNL A   1      41.228 -21.938 -39.881  0.00  0.00    -0.022 C 
ATOM      2  C   UNL A   1      41.210 -21.938 -38.378  0.00  0.00    +0.046 A 
ATOM      3  N   UNL A   1      40.191 -22.634 -37.819  0.00  0.00    -0.251 NA
ATOM      4  C   UNL A   1      40.088 -22.684 -36.486  0.00  0.00    +0.076 A 
ATOM      5  C   UNL A   1      39.009 -23.379 -35.948  0.00  0.00    -0.035 A 
ATOM      6  C   UNL A   1      38.812 -23.493 -34.571  0.00  0.00    -0.057 A 
ATOM      7  C   UNL A   1      39.719 -22.905 -33.707  0.00  0.00    -0.026 A 
ATOM      8  C   UNL A   1      40.805 -22.210 -34.233  0.00  0.00    +0.134 A 
ATOM      9  F   UNL A   1      41.678 -21.677 -33.360  0.00  0.00    -0.205 F 
ATOM     10  C   UNL A   1      41.017 -22.073 -35.626  0.00  0.00    +0.056 A 
ATOM     11  C   UNL A   1      42.110 -21.381 -36.222  0.00  0.00    +0.044 A 
ATOM     12  C   UNL A   1      42.166 -21.249 -37.623  0.00  0.00    +0.020 A 
ENDROOT
BRANCH  11  13
ATOM     13  N   UNL A   1      43.022 -20.656 -35.414  0.00  0.00    -0.357 N 
ATOM     14  H   UNL A   1      43.843 -21.090 -35.087  0.00  0.00    +0.000 HD
ATOM     15  H   UNL A   1      42.835 -19.719 -35.180  0.00  0.00    +0.000 HD
ENDBRANCH  11  13
BRANCH  12  16
ATOM     16  C   UNL A   1      43.230 -20.424 -38.299  0.00  0.00    +0.077 C 
BRANCH  16  17
ATOM     17  O   UNL A   1      44.467 -21.126 -38.212  0.00  0.00    -0.370 OA
BRANCH  17  18
ATOM     18  C   UNL A   1      45.493 -20.521 -38.998  0.00  0.00    +0.073 C 
BRANCH  18  19
ATOM     19  C   UNL A   1      45.845 -21.384 -40.182  0.00  0.00    -0.022 A 
ATOM     20  C   UNL A   1      46.913 -22.291 -40.105  0.00  0.00    -0.056 A 
ATOM     21  C   UNL A   1      47.236 -23.099 -41.194  0.00  0.00    -0.061 A 
ATOM     22  C   UNL A   1      46.496 -23.011 -42.371  0.00  0.00    -0.062 A 
ATOM     23  C   UNL A   1      45.433 -22.114 -42.460  0.00  0.00    -0.061 A 
ATOM     24  C   UNL A   1      45.106 -21.305 -41.370  0.00  0.00    -0.056 A 
ENDBRANCH  18  19
ENDBRANCH  17  18
ENDBRANCH  16  17
ENDBRANCH  12  16
TORSDOF 5
ENDMDL
MODEL 9
REMARK VINA RESULT:    -6.192     17.332     19.630
REMARK INTER + INTRA:          -9.071
REMARK INTER:                  -8.248
REMARK INTRA:                  -0.823
REMARK UNBOUND:                -1.249
REMARK  Name = cpd233.pdb
REMARK  6 active torsions:
REMARK  status: ('A' for Active; 'I' for Inactive)
REMARK    1  A    between atoms: C_1  and  C_2
REMARK    2  A    between atoms: C_11  and  N_12
REMARK    3  A    between atoms: C_13  and  C_14
REMARK    4  A    between atoms: C_14  and  O_15
REMARK    5  A    between atoms: O_15  and  C_16
REMARK    6  A    between atoms: C_16  and  C_17
REMARK                            x       y       z     vdW  Elec       q    Type
REMARK                         _______ _______ _______ _____ _____    ______ ____
ROOT
ATOM      1  C   UNL A   1      45.123 -19.855 -37.244  0.00  0.00    -0.022 C 
ATOM      2  C   UNL A   1      45.297 -20.499 -38.591  0.00  0.00    +0.046 A 
ATOM      3  N   UNL A   1      46.431 -21.226 -38.734  0.00  0.00    -0.251 NA
ATOM      4  C   UNL A   1      46.677 -21.831 -39.901  0.00  0.00    +0.076 A 
ATOM      5  C   UNL A   1      47.867 -22.539 -40.023  0.00  0.00    -0.035 A 
ATOM      6  C   UNL A   1      48.217 -23.208 -41.197  0.00  0.00    -0.057 A 
ATOM      7  C   UNL A   1      47.352 -23.175 -42.277  0.00  0.00    -0.026 A 
ATOM      8  C   UNL A   1      46.155 -22.471 -42.167  0.00  0.00    +0.134 A 
ATOM      9  F   UNL A   1      45.331 -22.487 -43.229  0.00  0.00    -0.205 F 
ATOM     10  C   UNL A   1      45.787 -21.778 -40.990  0.00  0.00    +0.056 A 
ATOM     11  C   UNL A   1      44.577 -21.049 -40.815  0.00  0.00    +0.044 A 
ATOM     12  C   UNL A   1      44.363 -20.335 -39.620  0.00  0.00    +0.020 A 
ENDROOT
BRANCH  11  13
ATOM     13  N   UNL A   1      43.688 -20.869 -41.906  0.00  0.00    -0.357 N 
ATOM     14  H   UNL A   1      42.767 -21.214 -41.852  0.00  0.00    +0.000 HD
ATOM     15  H   UNL A   1      43.991 -20.400 -42.716  0.00  0.00    +0.000 HD
ENDBRANCH  11  13
BRANCH  12  16
ATOM     16  C   UNL A   1      43.160 -19.448 -39.431  0.00  0.00    +0.077 C 
BRANCH  16  17
ATOM     17  O   UNL A   1      41.997 -20.271 -39.381  0.00  0.00    -0.370 OA
BRANCH  17  18
ATOM     18  C   UNL A   1      41.027 -19.787 -38.454  0.00  0.00    +0.073 C 
BRANCH  18  19
ATOM     19  C   UNL A   1      40.704 -20.831 -37.416  0.00  0.00    -0.022 A 
ATOM     20  C   UNL A   1      39.724 -21.802 -37.670  0.00  0.00    -0.056 A 
ATOM     21  C   UNL A   1      39.428 -22.776 -36.717  0.00  0.00    -0.061 A 
ATOM     22  C   UNL A   1      40.110 -22.793 -35.502  0.00  0.00    -0.062 A 
ATOM     23  C   UNL A   1      41.087 -21.833 -35.238  0.00  0.00    -0.061 A 
ATOM     24  C   UNL A   1      41.385 -20.857 -36.191  0.00  0.00    -0.056 A 
ENDBRANCH  18  19
ENDBRANCH  17  18
ENDBRANCH  16  17
ENDBRANCH  12  16
TORSDOF 5
ENDMDL
MODEL 10
REMARK VINA RESULT:    -6.167      1.695      2.985
REMARK INTER + INTRA:          -9.039
REMARK INTER:                  -8.322
REMARK INTRA:                  -0.717
REMARK UNBOUND:                -1.249
REMARK  Name = cpd233.pdb
REMARK  6 active torsions:
REMARK  status: ('A' for Active; 'I' for Inactive)
REMARK    1  A    between atoms: C_1  and  C_2
REMARK    2  A    between atoms: C_11  and  N_12
REMARK    3  A    between atoms: C_13  and  C_14
REMARK    4  A    between atoms: C_14  and  O_15
REMARK    5  A    between atoms: O_15  and  C_16
REMARK    6  A    between atoms: C_16  and  C_17
REMARK                            x       y       z     vdW  Elec       q    Type
REMARK                         _______ _______ _______ _____ _____    ______ ____
ROOT
ATOM      1  C   UNL A   1      39.419 -39.120 -27.755  0.00  0.00    -0.022 C 
ATOM      2  C   UNL A   1      39.444 -38.153 -28.905  0.00  0.00    +0.046 A 
ATOM      3  N   UNL A   1      40.672 -37.925 -29.432  0.00  0.00    -0.251 NA
ATOM      4  C   UNL A   1      40.795 -37.072 -30.455  0.00  0.00    +0.076 A 
ATOM      5  C   UNL A   1      42.074 -36.836 -30.947  0.00  0.00    -0.035 A 
ATOM      6  C   UNL A   1      42.311 -35.967 -32.013  0.00  0.00    -0.057 A 
ATOM      7  C   UNL A   1      41.241 -35.321 -32.609  0.00  0.00    -0.026 A 
ATOM      8  C   UNL A   1      39.955 -35.552 -32.128  0.00  0.00    +0.134 A 
ATOM      9  F   UNL A   1      38.942 -34.927 -32.752  0.00  0.00    -0.205 F 
ATOM     10  C   UNL A   1      39.695 -36.420 -31.042  0.00  0.00    +0.056 A 
ATOM     11  C   UNL A   1      38.404 -36.701 -30.510  0.00  0.00    +0.044 A 
ATOM     12  C   UNL A   1      38.285 -37.525 -29.373  0.00  0.00    +0.020 A 
ENDROOT
BRANCH  11  13
ATOM     13  N   UNL A   1      37.268 -35.998 -30.987  0.00  0.00    -0.357 N 
ATOM     14  H   UNL A   1      36.364 -36.293 -30.731  0.00  0.00    +0.000 HD
ATOM     15  H   UNL A   1      37.383 -35.216 -31.573  0.00  0.00    +0.000 HD
ENDBRANCH  11  13
BRANCH  12  16
ATOM     16  C   UNL A   1      36.959 -37.754 -28.696  0.00  0.00    +0.077 C 
BRANCH  16  17
ATOM     17  O   UNL A   1      36.141 -38.536 -29.563  0.00  0.00    -0.370 OA
BRANCH  17  18
ATOM     18  C   UNL A   1      34.753 -38.419 -29.254  0.00  0.00    +0.073 C 
BRANCH  18  19
ATOM     19  C   UNL A   1      34.217 -37.076 -29.677  0.00  0.00    -0.022 A 
ATOM     20  C   UNL A   1      33.940 -36.818 -31.028  0.00  0.00    -0.056 A 
ATOM     21  C   UNL A   1      33.434 -35.581 -31.424  0.00  0.00    -0.061 A 
ATOM     22  C   UNL A   1      33.196 -34.589 -30.475  0.00  0.00    -0.062 A 
ATOM     23  C   UNL A   1      33.466 -34.833 -29.129  0.00  0.00    -0.061 A 
ATOM     24  C   UNL A   1      33.972 -36.072 -28.731  0.00  0.00    -0.056 A 
ENDBRANCH  18  19
ENDBRANCH  17  18
ENDBRANCH  16  17
ENDBRANCH  12  16
TORSDOF 5
ENDMDL
MODEL 11
REMARK VINA RESULT:    -6.077      2.575      3.890
REMARK INTER + INTRA:          -8.925
REMARK INTER:                  -8.172
REMARK INTRA:                  -0.753
REMARK UNBOUND:                -1.249
REMARK  Name = cpd233.pdb
REMARK  6 active torsions:
REMARK  status: ('A' for Active; 'I' for Inactive)
REMARK    1  A    between atoms: C_1  and  C_2
REMARK    2  A    between atoms: C_11  and  N_12
REMARK    3  A    between atoms: C_13  and  C_14
REMARK    4  A    between atoms: C_14  and  O_15
REMARK    5  A    between atoms: O_15  and  C_16
REMARK    6  A    between atoms: C_16  and  C_17
REMARK                            x       y       z     vdW  Elec       q    Type
REMARK                         _______ _______ _______ _____ _____    ______ ____
ROOT
ATOM      1  C   UNL A   1      34.996 -36.551 -30.856  0.00  0.00    -0.022 C 
ATOM      2  C   UNL A   1      36.477 -36.689 -30.634  0.00  0.00    +0.046 A 
ATOM      3  N   UNL A   1      37.239 -35.782 -31.292  0.00  0.00    -0.251 NA
ATOM      4  C   UNL A   1      38.569 -35.831 -31.162  0.00  0.00    +0.076 A 
ATOM      5  C   UNL A   1      39.322 -34.907 -31.879  0.00  0.00    -0.035 A 
ATOM      6  C   UNL A   1      40.716 -34.871 -31.811  0.00  0.00    -0.057 A 
ATOM      7  C   UNL A   1      41.377 -35.778 -31.000  0.00  0.00    -0.026 A 
ATOM      8  C   UNL A   1      40.634 -36.707 -30.275  0.00  0.00    +0.134 A 
ATOM      9  F   UNL A   1      41.312 -37.552 -29.479  0.00  0.00    -0.205 F 
ATOM     10  C   UNL A   1      39.222 -36.766 -30.338  0.00  0.00    +0.056 A 
ATOM     11  C   UNL A   1      38.410 -37.686 -29.616  0.00  0.00    +0.044 A 
ATOM     12  C   UNL A   1      37.016 -37.695 -29.827  0.00  0.00    +0.020 A 
ENDROOT
BRANCH  11  13
ATOM     13  N   UNL A   1      39.008 -38.720 -28.852  0.00  0.00    -0.357 N 
ATOM     14  H   UNL A   1      39.933 -39.000 -29.041  0.00  0.00    +0.000 HD
ATOM     15  H   UNL A   1      38.499 -39.157 -28.132  0.00  0.00    +0.000 HD
ENDBRANCH  11  13
BRANCH  12  16
ATOM     16  C   UNL A   1      36.125 -38.727 -29.185  0.00  0.00    +0.077 C 
BRANCH  16  17
ATOM     17  O   UNL A   1      36.439 -38.791 -27.796  0.00  0.00    -0.370 OA
BRANCH  17  18
ATOM     18  C   UNL A   1      36.045 -37.613 -27.094  0.00  0.00    +0.073 C 
BRANCH  18  19
ATOM     19  C   UNL A   1      34.595 -37.686 -26.689  0.00  0.00    -0.022 A 
ATOM     20  C   UNL A   1      33.742 -36.595 -26.915  0.00  0.00    -0.056 A 
ATOM     21  C   UNL A   1      32.397 -36.661 -26.552  0.00  0.00    -0.061 A 
ATOM     22  C   UNL A   1      31.889 -37.817 -25.963  0.00  0.00    -0.062 A 
ATOM     23  C   UNL A   1      32.727 -38.907 -25.735  0.00  0.00    -0.061 A 
ATOM     24  C   UNL A   1      34.073 -38.844 -26.098  0.00  0.00    -0.056 A 
ENDBRANCH  18  19
ENDBRANCH  17  18
ENDBRANCH  16  17
ENDBRANCH  12  16
TORSDOF 5
ENDMDL
MODEL 12
REMARK VINA RESULT:    -6.022      2.465      3.423
REMARK INTER + INTRA:          -8.855
REMARK INTER:                  -7.912
REMARK INTRA:                  -0.943
REMARK UNBOUND:                -1.249
REMARK  Name = cpd233.pdb
REMARK  6 active torsions:
REMARK  status: ('A' for Active; 'I' for Inactive)
REMARK    1  A    between atoms: C_1  and  C_2
REMARK    2  A    between atoms: C_11  and  N_12
REMARK    3  A    between atoms: C_13  and  C_14
REMARK    4  A    between atoms: C_14  and  O_15
REMARK    5  A    between atoms: O_15  and  C_16
REMARK    6  A    between atoms: C_16  and  C_17
REMARK                            x       y       z     vdW  Elec       q    Type
REMARK                         _______ _______ _______ _____ _____    ______ ____
ROOT
ATOM      1  C   UNL A   1      34.198 -36.372 -28.100  0.00  0.00    -0.022 C 
ATOM      2  C   UNL A   1      35.451 -36.215 -28.916  0.00  0.00    +0.046 A 
ATOM      3  N   UNL A   1      36.464 -37.046 -28.571  0.00  0.00    -0.251 NA
ATOM      4  C   UNL A   1      37.622 -36.974 -29.236  0.00  0.00    +0.076 A 
ATOM      5  C   UNL A   1      38.652 -37.818 -28.833  0.00  0.00    -0.035 A 
ATOM      6  C   UNL A   1      39.898 -37.824 -29.462  0.00  0.00    -0.057 A 
ATOM      7  C   UNL A   1      40.121 -36.968 -30.527  0.00  0.00    -0.026 A 
ATOM      8  C   UNL A   1      39.098 -36.121 -30.943  0.00  0.00    +0.134 A 
ATOM      9  F   UNL A   1      39.346 -35.325 -31.999  0.00  0.00    -0.205 F 
ATOM     10  C   UNL A   1      37.831 -36.092 -30.312  0.00  0.00    +0.056 A 
ATOM     11  C   UNL A   1      36.746 -35.254 -30.695  0.00  0.00    +0.044 A 
ATOM     12  C   UNL A   1      35.560 -35.263 -29.935  0.00  0.00    +0.020 A 
ENDROOT
BRANCH  11  13
ATOM     13  N   UNL A   1      36.924 -34.270 -31.702  0.00  0.00    -0.357 N 
ATOM     14  H   UNL A   1      37.772 -33.775 -31.761  0.00  0.00    +0.000 HD
ATOM     15  H   UNL A   1      36.199 -34.083 -32.341  0.00  0.00    +0.000 HD
ENDBRANCH  11  13
BRANCH  12  16
ATOM     16  C   UNL A   1      34.429 -34.310 -30.220  0.00  0.00    +0.077 C 
BRANCH  16  17
ATOM     17  O   UNL A   1      34.010 -34.498 -31.570  0.00  0.00    -0.370 OA
BRANCH  17  18
ATOM     18  C   UNL A   1      32.636 -34.869 -31.667  0.00  0.00    +0.073 C 
BRANCH  18  19
ATOM     19  C   UNL A   1      32.480 -36.174 -32.406  0.00  0.00    -0.022 A 
ATOM     20  C   UNL A   1      31.437 -36.343 -33.329  0.00  0.00    -0.056 A 
ATOM     21  C   UNL A   1      31.294 -37.545 -34.023  0.00  0.00    -0.061 A 
ATOM     22  C   UNL A   1      32.193 -38.586 -33.806  0.00  0.00    -0.062 A 
ATOM     23  C   UNL A   1      33.234 -38.429 -32.892  0.00  0.00    -0.061 A 
ATOM     24  C   UNL A   1      33.380 -37.228 -32.197  0.00  0.00    -0.056 A 
ENDBRANCH  18  19
ENDBRANCH  17  18
ENDBRANCH  16  17
ENDBRANCH  12  16
TORSDOF 5
ENDMDL
MODEL 13
REMARK VINA RESULT:    -6.018     18.314     20.719
REMARK INTER + INTRA:          -8.851
REMARK INTER:                  -7.704
REMARK INTRA:                  -1.146
REMARK UNBOUND:                -1.249
REMARK  Name = cpd233.pdb
REMARK  6 active torsions:
REMARK  status: ('A' for Active; 'I' for Inactive)
REMARK    1  A    between atoms: C_1  and  C_2
REMARK    2  A    between atoms: C_11  and  N_12
REMARK    3  A    between atoms: C_13  and  C_14
REMARK    4  A    between atoms: C_14  and  O_15
REMARK    5  A    between atoms: O_15  and  C_16
REMARK    6  A    between atoms: C_16  and  C_17
REMARK                            x       y       z     vdW  Elec       q    Type
REMARK                         _______ _______ _______ _____ _____    ______ ____
ROOT
ATOM      1  C   UNL A   1      46.460 -18.439 -37.905  0.00  0.00    -0.022 C 
ATOM      2  C   UNL A   1      46.310 -19.387 -39.062  0.00  0.00    +0.046 A 
ATOM      3  N   UNL A   1      47.181 -20.426 -39.065  0.00  0.00    -0.251 NA
ATOM      4  C   UNL A   1      47.129 -21.318 -40.060  0.00  0.00    +0.076 A 
ATOM      5  C   UNL A   1      48.060 -22.351 -40.048  0.00  0.00    -0.035 A 
ATOM      6  C   UNL A   1      48.090 -23.335 -41.038  0.00  0.00    -0.057 A 
ATOM      7  C   UNL A   1      47.160 -23.292 -42.063  0.00  0.00    -0.026 A 
ATOM      8  C   UNL A   1      46.220 -22.265 -42.083  0.00  0.00    +0.134 A 
ATOM      9  F   UNL A   1      45.318 -22.274 -43.080  0.00  0.00    -0.205 F 
ATOM     10  C   UNL A   1      46.180 -21.251 -41.096  0.00  0.00    +0.056 A 
ATOM     11  C   UNL A   1      45.241 -20.182 -41.061  0.00  0.00    +0.044 A 
ATOM     12  C   UNL A   1      45.356 -19.190 -40.066  0.00  0.00    +0.020 A 
ENDROOT
BRANCH  11  13
ATOM     13  N   UNL A   1      44.328 -19.997 -42.130  0.00  0.00    -0.357 N 
ATOM     14  H   UNL A   1      43.637 -20.675 -42.309  0.00  0.00    +0.000 HD
ATOM     15  H   UNL A   1      44.384 -19.191 -42.692  0.00  0.00    +0.000 HD
ENDBRANCH  11  13
BRANCH  12  16
ATOM     16  C   UNL A   1      44.469 -17.973 -40.055  0.00  0.00    +0.077 C 
BRANCH  16  17
ATOM     17  O   UNL A   1      43.115 -18.404 -39.939  0.00  0.00    -0.370 OA
BRANCH  17  18
ATOM     18  C   UNL A   1      42.750 -18.693 -38.590  0.00  0.00    +0.073 C 
BRANCH  18  19
ATOM     19  C   UNL A   1      42.222 -20.099 -38.463  0.00  0.00    -0.022 A 
ATOM     20  C   UNL A   1      41.844 -20.819 -39.606  0.00  0.00    -0.056 A 
ATOM     21  C   UNL A   1      41.365 -22.123 -39.495  0.00  0.00    -0.061 A 
ATOM     22  C   UNL A   1      41.260 -22.723 -38.242  0.00  0.00    -0.062 A 
ATOM     23  C   UNL A   1      41.633 -22.018 -37.099  0.00  0.00    -0.061 A 
ATOM     24  C   UNL A   1      42.114 -20.712 -37.208  0.00  0.00    -0.056 A 
ENDBRANCH  18  19
ENDBRANCH  17  18
ENDBRANCH  16  17
ENDBRANCH  12  16
TORSDOF 5
ENDMDL
MODEL 14
REMARK VINA RESULT:    -5.970     20.897     23.211
REMARK INTER + INTRA:          -8.790
REMARK INTER:                  -7.725
REMARK INTRA:                  -1.065
REMARK UNBOUND:                -1.249
REMARK  Name = cpd233.pdb
REMARK  6 active torsions:
REMARK  status: ('A' for Active; 'I' for Inactive)
REMARK    1  A    between atoms: C_1  and  C_2
REMARK    2  A    between atoms: C_11  and  N_12
REMARK    3  A    between atoms: C_13  and  C_14
REMARK    4  A    between atoms: C_14  and  O_15
REMARK    5  A    between atoms: O_15  and  C_16
REMARK    6  A    between atoms: C_16  and  C_17
REMARK                            x       y       z     vdW  Elec       q    Type
REMARK                         _______ _______ _______ _____ _____    ______ ____
ROOT
ATOM      1  C   UNL A   1      43.428 -18.365 -40.140  0.00  0.00    -0.022 C 
ATOM      2  C   UNL A   1      44.462 -19.455 -40.171  0.00  0.00    +0.046 A 
ATOM      3  N   UNL A   1      44.512 -20.162 -41.327  0.00  0.00    -0.251 NA
ATOM      4  C   UNL A   1      45.397 -21.158 -41.445  0.00  0.00    +0.076 A 
ATOM      5  C   UNL A   1      45.396 -21.884 -42.631  0.00  0.00    -0.035 A 
ATOM      6  C   UNL A   1      46.280 -22.941 -42.856  0.00  0.00    -0.057 A 
ATOM      7  C   UNL A   1      47.194 -23.278 -41.873  0.00  0.00    -0.026 A 
ATOM      8  C   UNL A   1      47.207 -22.557 -40.682  0.00  0.00    +0.134 A 
ATOM      9  F   UNL A   1      48.129 -22.899 -39.764  0.00  0.00    -0.205 F 
ATOM     10  C   UNL A   1      46.313 -21.490 -40.430  0.00  0.00    +0.056 A 
ATOM     11  C   UNL A   1      46.282 -20.713 -39.237  0.00  0.00    +0.044 A 
ATOM     12  C   UNL A   1      45.289 -19.727 -39.076  0.00  0.00    +0.020 A 
ENDROOT
BRANCH  11  13
ATOM     13  N   UNL A   1      47.107 -21.062 -38.137  0.00  0.00    -0.357 N 
ATOM     14  H   UNL A   1      47.436 -20.363 -37.527  0.00  0.00    +0.000 HD
ATOM     15  H   UNL A   1      47.349 -22.004 -37.982  0.00  0.00    +0.000 HD
ENDBRANCH  11  13
BRANCH  12  16
ATOM     16  C   UNL A   1      45.133 -18.963 -37.787  0.00  0.00    +0.077 C 
BRANCH  16  17
ATOM     17  O   UNL A   1      46.269 -18.115 -37.627  0.00  0.00    -0.370 OA
BRANCH  17  18
ATOM     18  C   UNL A   1      45.940 -16.734 -37.769  0.00  0.00    +0.073 C 
BRANCH  18  19
ATOM     19  C   UNL A   1      46.816 -16.074 -38.803  0.00  0.00    -0.022 A 
ATOM     20  C   UNL A   1      46.689 -16.414 -40.158  0.00  0.00    -0.056 A 
ATOM     21  C   UNL A   1      47.490 -15.799 -41.120  0.00  0.00    -0.061 A 
ATOM     22  C   UNL A   1      48.422 -14.837 -40.740  0.00  0.00    -0.062 A 
ATOM     23  C   UNL A   1      48.557 -14.490 -39.396  0.00  0.00    -0.061 A 
ATOM     24  C   UNL A   1      47.756 -15.104 -38.432  0.00  0.00    -0.056 A 
ENDBRANCH  18  19
ENDBRANCH  17  18
ENDBRANCH  16  17
ENDBRANCH  12  16
TORSDOF 5
ENDMDL
MODEL 15
REMARK VINA RESULT:    -5.937     18.614     21.189
REMARK INTER + INTRA:          -8.748
REMARK INTER:                  -7.698
REMARK INTRA:                  -1.050
REMARK UNBOUND:                -1.249
REMARK  Name = cpd233.pdb
REMARK  6 active torsions:
REMARK  status: ('A' for Active; 'I' for Inactive)
REMARK    1  A    between atoms: C_1  and  C_2
REMARK    2  A    between atoms: C_11  and  N_12
REMARK    3  A    between atoms: C_13  and  C_14
REMARK    4  A    between atoms: C_14  and  O_15
REMARK    5  A    between atoms: O_15  and  C_16
REMARK    6  A    between atoms: C_16  and  C_17
REMARK                            x       y       z     vdW  Elec       q    Type
REMARK                         _______ _______ _______ _____ _____    ______ ____
ROOT
ATOM      1  C   UNL A   1      45.810 -16.871 -38.057  0.00  0.00    -0.022 C 
ATOM      2  C   UNL A   1      45.843 -18.117 -38.897  0.00  0.00    +0.046 A 
ATOM      3  N   UNL A   1      45.176 -18.030 -40.073  0.00  0.00    -0.251 NA
ATOM      4  C   UNL A   1      45.143 -19.092 -40.885  0.00  0.00    +0.076 A 
ATOM      5  C   UNL A   1      44.419 -18.979 -42.067  0.00  0.00    -0.035 A 
ATOM      6  C   UNL A   1      44.324 -20.027 -42.984  0.00  0.00    -0.057 A 
ATOM      7  C   UNL A   1      44.975 -21.219 -42.717  0.00  0.00    -0.026 A 
ATOM      8  C   UNL A   1      45.706 -21.345 -41.539  0.00  0.00    +0.134 A 
ATOM      9  F   UNL A   1      46.346 -22.509 -41.330  0.00  0.00    -0.205 F 
ATOM     10  C   UNL A   1      45.806 -20.298 -40.591  0.00  0.00    +0.056 A 
ATOM     11  C   UNL A   1      46.542 -20.365 -39.374  0.00  0.00    +0.044 A 
ATOM     12  C   UNL A   1      46.498 -19.280 -38.476  0.00  0.00    +0.020 A 
ENDROOT
BRANCH  11  13
ATOM     13  N   UNL A   1      47.144 -21.583 -38.970  0.00  0.00    -0.357 N 
ATOM     14  H   UNL A   1      46.582 -22.346 -38.703  0.00  0.00    +0.000 HD
ATOM     15  H   UNL A   1      48.125 -21.666 -38.956  0.00  0.00    +0.000 HD
ENDBRANCH  11  13
BRANCH  12  16
ATOM     16  C   UNL A   1      47.154 -19.345 -37.122  0.00  0.00    +0.077 C 
BRANCH  16  17
ATOM     17  O   UNL A   1      46.416 -20.254 -36.308  0.00  0.00    -0.370 OA
BRANCH  17  18
ATOM     18  C   UNL A   1      45.588 -19.585 -35.359  0.00  0.00    +0.073 C 
BRANCH  18  19
ATOM     19  C   UNL A   1      44.171 -20.096 -35.424  0.00  0.00    -0.022 A 
ATOM     20  C   UNL A   1      43.346 -20.039 -34.290  0.00  0.00    -0.056 A 
ATOM     21  C   UNL A   1      42.032 -20.501 -34.348  0.00  0.00    -0.061 A 
ATOM     22  C   UNL A   1      41.527 -21.021 -35.537  0.00  0.00    -0.062 A 
ATOM     23  C   UNL A   1      42.336 -21.082 -36.671  0.00  0.00    -0.061 A 
ATOM     24  C   UNL A   1      43.652 -20.619 -36.616  0.00  0.00    -0.056 A 
ENDBRANCH  18  19
ENDBRANCH  17  18
ENDBRANCH  16  17
ENDBRANCH  12  16
TORSDOF 5
ENDMDL
MODEL 16
REMARK VINA RESULT:    -5.879     24.413     27.324
REMARK INTER + INTRA:          -8.675
REMARK INTER:                  -7.683
REMARK INTRA:                  -0.992
REMARK UNBOUND:                -1.249
REMARK  Name = cpd233.pdb
REMARK  6 active torsions:
REMARK  status: ('A' for Active; 'I' for Inactive)
REMARK    1  A    between atoms: C_1  and  C_2
REMARK    2  A    between atoms: C_11  and  N_12
REMARK    3  A    between atoms: C_13  and  C_14
REMARK    4  A    between atoms: C_14  and  O_15
REMARK    5  A    between atoms: O_15  and  C_16
REMARK    6  A    between atoms: C_16  and  C_17
REMARK                            x       y       z     vdW  Elec       q    Type
REMARK                         _______ _______ _______ _____ _____    ______ ____
ROOT
ATOM      1  C   UNL A   1      53.451 -37.353 -51.939  0.00  0.00    -0.022 C 
ATOM      2  C   UNL A   1      54.078 -35.999 -52.120  0.00  0.00    +0.046 A 
ATOM      3  N   UNL A   1      53.270 -35.065 -52.678  0.00  0.00    -0.251 NA
ATOM      4  C   UNL A   1      53.743 -33.832 -52.886  0.00  0.00    +0.076 A 
ATOM      5  C   UNL A   1      52.896 -32.910 -53.493  0.00  0.00    -0.035 A 
ATOM      6  C   UNL A   1      53.292 -31.596 -53.752  0.00  0.00    -0.057 A 
ATOM      7  C   UNL A   1      54.564 -31.189 -53.388  0.00  0.00    -0.026 A 
ATOM      8  C   UNL A   1      55.420 -32.101 -52.776  0.00  0.00    +0.134 A 
ATOM      9  F   UNL A   1      56.636 -31.659 -52.413  0.00  0.00    -0.205 F 
ATOM     10  C   UNL A   1      55.042 -33.440 -52.515  0.00  0.00    +0.056 A 
ATOM     11  C   UNL A   1      55.869 -34.415 -51.888  0.00  0.00    +0.044 A 
ATOM     12  C   UNL A   1      55.404 -35.739 -51.756  0.00  0.00    +0.020 A 
ENDROOT
BRANCH  11  13
ATOM     13  N   UNL A   1      57.222 -34.116 -51.586  0.00  0.00    -0.357 N 
ATOM     14  H   UNL A   1      57.677 -33.375 -52.047  0.00  0.00    +0.000 HD
ATOM     15  H   UNL A   1      57.706 -34.649 -50.914  0.00  0.00    +0.000 HD
ENDBRANCH  11  13
BRANCH  12  16
ATOM     16  C   UNL A   1      56.282 -36.837 -51.215  0.00  0.00    +0.077 C 
BRANCH  16  17
ATOM     17  O   UNL A   1      56.839 -36.398 -49.978  0.00  0.00    -0.370 OA
BRANCH  17  18
ATOM     18  C   UNL A   1      56.001 -36.703 -48.865  0.00  0.00    +0.073 C 
BRANCH  18  19
ATOM     19  C   UNL A   1      55.950 -35.549 -47.896  0.00  0.00    -0.022 A 
ATOM     20  C   UNL A   1      56.667 -34.373 -48.158  0.00  0.00    -0.056 A 
ATOM     21  C   UNL A   1      56.614 -33.298 -47.270  0.00  0.00    -0.061 A 
ATOM     22  C   UNL A   1      55.843 -33.387 -46.114  0.00  0.00    -0.062 A 
ATOM     23  C   UNL A   1      55.125 -34.551 -45.842  0.00  0.00    -0.061 A 
ATOM     24  C   UNL A   1      55.176 -35.627 -46.730  0.00  0.00    -0.056 A 
ENDBRANCH  18  19
ENDBRANCH  17  18
ENDBRANCH  16  17
ENDBRANCH  12  16
TORSDOF 5
ENDMDL
MODEL 17
REMARK VINA RESULT:    -5.877     21.125     22.980
REMARK INTER + INTRA:          -8.672
REMARK INTER:                  -7.815
REMARK INTRA:                  -0.857
REMARK UNBOUND:                -1.249
REMARK  Name = cpd233.pdb
REMARK  6 active torsions:
REMARK  status: ('A' for Active; 'I' for Inactive)
REMARK    1  A    between atoms: C_1  and  C_2
REMARK    2  A    between atoms: C_11  and  N_12
REMARK    3  A    between atoms: C_13  and  C_14
REMARK    4  A    between atoms: C_14  and  O_15
REMARK    5  A    between atoms: O_15  and  C_16
REMARK    6  A    between atoms: C_16  and  C_17
REMARK                            x       y       z     vdW  Elec       q    Type
REMARK                         _______ _______ _______ _____ _____    ______ ____
ROOT
ATOM      1  C   UNL A   1      44.103 -15.814 -41.008  0.00  0.00    -0.022 C 
ATOM      2  C   UNL A   1      44.757 -17.166 -40.956  0.00  0.00    +0.046 A 
ATOM      3  N   UNL A   1      44.339 -18.039 -41.903  0.00  0.00    -0.251 NA
ATOM      4  C   UNL A   1      44.859 -19.271 -41.931  0.00  0.00    +0.076 A 
ATOM      5  C   UNL A   1      44.380 -20.152 -42.895  0.00  0.00    -0.035 A 
ATOM      6  C   UNL A   1      44.859 -21.458 -43.011  0.00  0.00    -0.057 A 
ATOM      7  C   UNL A   1      45.847 -21.896 -42.145  0.00  0.00    -0.026 A 
ATOM      8  C   UNL A   1      46.337 -21.022 -41.178  0.00  0.00    +0.134 A 
ATOM      9  F   UNL A   1      47.315 -21.477 -40.375  0.00  0.00    -0.205 F 
ATOM     10  C   UNL A   1      45.858 -19.698 -41.037  0.00  0.00    +0.056 A 
ATOM     11  C   UNL A   1      46.323 -18.759 -40.073  0.00  0.00    +0.044 A 
ATOM     12  C   UNL A   1      45.708 -17.494 -39.984  0.00  0.00    +0.020 A 
ENDROOT
BRANCH  11  13
ATOM     13  N   UNL A   1      47.251 -19.157 -39.078  0.00  0.00    -0.357 N 
ATOM     14  H   UNL A   1      47.482 -20.109 -38.972  0.00  0.00    +0.000 HD
ATOM     15  H   UNL A   1      47.666 -18.483 -38.493  0.00  0.00    +0.000 HD
ENDBRANCH  11  13
BRANCH  12  16
ATOM     16  C   UNL A   1      46.076 -16.510 -38.904  0.00  0.00    +0.077 C 
BRANCH  16  17
ATOM     17  O   UNL A   1      45.272 -16.779 -37.758  0.00  0.00    -0.370 OA
BRANCH  17  18
ATOM     18  C   UNL A   1      45.922 -16.416 -36.540  0.00  0.00    +0.073 C 
BRANCH  18  19
ATOM     19  C   UNL A   1      46.684 -17.584 -35.967  0.00  0.00    -0.022 A 
ATOM     20  C   UNL A   1      48.066 -17.488 -35.747  0.00  0.00    -0.056 A 
ATOM     21  C   UNL A   1      48.773 -18.561 -35.207  0.00  0.00    -0.061 A 
ATOM     22  C   UNL A   1      48.108 -19.740 -34.878  0.00  0.00    -0.062 A 
ATOM     23  C   UNL A   1      46.734 -19.848 -35.092  0.00  0.00    -0.061 A 
ATOM     24  C   UNL A   1      46.024 -18.774 -35.631  0.00  0.00    -0.056 A 
ENDBRANCH  18  19
ENDBRANCH  17  18
ENDBRANCH  16  17
ENDBRANCH  12  16
TORSDOF 5
ENDMDL
MODEL 18
REMARK VINA RESULT:    -5.844     18.761     20.545
REMARK INTER + INTRA:          -8.631
REMARK INTER:                  -7.335
REMARK INTRA:                  -1.297
REMARK UNBOUND:                -1.249
REMARK  Name = cpd233.pdb
REMARK  6 active torsions:
REMARK  status: ('A' for Active; 'I' for Inactive)
REMARK    1  A    between atoms: C_1  and  C_2
REMARK    2  A    between atoms: C_11  and  N_12
REMARK    3  A    between atoms: C_13  and  C_14
REMARK    4  A    between atoms: C_14  and  O_15
REMARK    5  A    between atoms: O_15  and  C_16
REMARK    6  A    between atoms: C_16  and  C_17
REMARK                            x       y       z     vdW  Elec       q    Type
REMARK                         _______ _______ _______ _____ _____    ______ ____
ROOT
ATOM      1  C   UNL A   1      43.279 -18.470 -40.093  0.00  0.00    -0.022 C 
ATOM      2  C   UNL A   1      44.368 -19.506 -40.089  0.00  0.00    +0.046 A 
ATOM      3  N   UNL A   1      44.445 -20.257 -41.215  0.00  0.00    -0.251 NA
ATOM      4  C   UNL A   1      45.379 -21.210 -41.300  0.00  0.00    +0.076 A 
ATOM      5  C   UNL A   1      45.407 -21.985 -42.455  0.00  0.00    -0.035 A 
ATOM      6  C   UNL A   1      46.342 -23.003 -42.645  0.00  0.00    -0.057 A 
ATOM      7  C   UNL A   1      47.280 -23.252 -41.658  0.00  0.00    -0.026 A 
ATOM      8  C   UNL A   1      47.265 -22.482 -40.498  0.00  0.00    +0.134 A 
ATOM      9  F   UNL A   1      48.210 -22.737 -39.576  0.00  0.00    -0.205 F 
ATOM     10  C   UNL A   1      46.319 -21.452 -40.281  0.00  0.00    +0.056 A 
ATOM     11  C   UNL A   1      46.258 -20.628 -39.121  0.00  0.00    +0.044 A 
ATOM     12  C   UNL A   1      45.216 -19.688 -38.992  0.00  0.00    +0.020 A 
ENDROOT
BRANCH  11  13
ATOM     13  N   UNL A   1      47.107 -20.888 -38.016  0.00  0.00    -0.357 N 
ATOM     14  H   UNL A   1      47.684 -20.175 -37.660  0.00  0.00    +0.000 HD
ATOM     15  H   UNL A   1      47.120 -21.782 -37.605  0.00  0.00    +0.000 HD
ENDBRANCH  11  13
BRANCH  12  16
ATOM     16  C   UNL A   1      45.031 -18.880 -37.734  0.00  0.00    +0.077 C 
BRANCH  16  17
ATOM     17  O   UNL A   1      44.603 -19.757 -36.694  0.00  0.00    -0.370 OA
BRANCH  17  18
ATOM     18  C   UNL A   1      43.367 -19.347 -36.112  0.00  0.00    +0.073 C 
BRANCH  18  19
ATOM     19  C   UNL A   1      42.196 -19.892 -36.890  0.00  0.00    -0.022 A 
ATOM     20  C   UNL A   1      41.082 -19.081 -37.152  0.00  0.00    -0.056 A 
ATOM     21  C   UNL A   1      40.001 -19.576 -37.880  0.00  0.00    -0.061 A 
ATOM     22  C   UNL A   1      40.023 -20.885 -38.357  0.00  0.00    -0.062 A 
ATOM     23  C   UNL A   1      41.125 -21.701 -38.104  0.00  0.00    -0.061 A 
ATOM     24  C   UNL A   1      42.209 -21.206 -37.375  0.00  0.00    -0.056 A 
ENDBRANCH  18  19
ENDBRANCH  17  18
ENDBRANCH  16  17
ENDBRANCH  12  16
TORSDOF 5
ENDMDL
MODEL 19
REMARK VINA RESULT:    -5.708     21.511     24.412
REMARK INTER + INTRA:          -8.459
REMARK INTER:                  -7.460
REMARK INTRA:                  -0.998
REMARK UNBOUND:                -1.249
REMARK  Name = cpd233.pdb
REMARK  6 active torsions:
REMARK  status: ('A' for Active; 'I' for Inactive)
REMARK    1  A    between atoms: C_1  and  C_2
REMARK    2  A    between atoms: C_11  and  N_12
REMARK    3  A    between atoms: C_13  and  C_14
REMARK    4  A    between atoms: C_14  and  O_15
REMARK    5  A    between atoms: O_15  and  C_16
REMARK    6  A    between atoms: C_16  and  C_17
REMARK                            x       y       z     vdW  Elec       q    Type
REMARK                         _______ _______ _______ _____ _____    ______ ____
ROOT
ATOM      1  C   UNL A   1      43.822 -16.880 -40.102  0.00  0.00    -0.022 C 
ATOM      2  C   UNL A   1      44.662 -18.117 -40.256  0.00  0.00    +0.046 A 
ATOM      3  N   UNL A   1      44.334 -18.902 -41.311  0.00  0.00    -0.251 NA
ATOM      4  C   UNL A   1      45.021 -20.029 -41.524  0.00  0.00    +0.076 A 
ATOM      5  C   UNL A   1      44.634 -20.828 -42.595  0.00  0.00    -0.035 A 
ATOM      6  C   UNL A   1      45.287 -22.022 -42.906  0.00  0.00    -0.057 A 
ATOM      7  C   UNL A   1      46.361 -22.426 -42.131  0.00  0.00    -0.026 A 
ATOM      8  C   UNL A   1      46.760 -21.634 -41.058  0.00  0.00    +0.134 A 
ATOM      9  F   UNL A   1      47.824 -22.048 -40.348  0.00  0.00    -0.205 F 
ATOM     10  C   UNL A   1      46.105 -20.426 -40.720  0.00  0.00    +0.056 A 
ATOM     11  C   UNL A   1      46.471 -19.572 -39.641  0.00  0.00    +0.044 A 
ATOM     12  C   UNL A   1      45.688 -18.435 -39.360  0.00  0.00    +0.020 A 
ENDROOT
BRANCH  11  13
ATOM     13  N   UNL A   1      47.485 -19.965 -38.731  0.00  0.00    -0.357 N 
ATOM     14  H   UNL A   1      48.097 -19.292 -38.354  0.00  0.00    +0.000 HD
ATOM     15  H   UNL A   1      47.577 -20.911 -38.476  0.00  0.00    +0.000 HD
ENDBRANCH  11  13
BRANCH  12  16
ATOM     16  C   UNL A   1      45.955 -17.566 -38.158  0.00  0.00    +0.077 C 
BRANCH  16  17
ATOM     17  O   UNL A   1      47.261 -17.008 -38.288  0.00  0.00    -0.370 OA
BRANCH  17  18
ATOM     18  C   UNL A   1      47.236 -15.586 -38.404  0.00  0.00    +0.073 C 
BRANCH  18  19
ATOM     19  C   UNL A   1      47.992 -15.131 -39.626  0.00  0.00    -0.022 A 
ATOM     20  C   UNL A   1      47.685 -15.664 -40.887  0.00  0.00    -0.056 A 
ATOM     21  C   UNL A   1      48.375 -15.238 -42.022  0.00  0.00    -0.061 A 
ATOM     22  C   UNL A   1      49.375 -14.274 -41.910  0.00  0.00    -0.062 A 
ATOM     23  C   UNL A   1      49.688 -13.737 -40.662  0.00  0.00    -0.061 A 
ATOM     24  C   UNL A   1      48.998 -14.161 -39.525  0.00  0.00    -0.056 A 
ENDBRANCH  18  19
ENDBRANCH  17  18
ENDBRANCH  16  17
ENDBRANCH  12  16
TORSDOF 5
ENDMDL
MODEL 20
REMARK VINA RESULT:    -5.682     19.834     21.030
REMARK INTER + INTRA:          -8.426
REMARK INTER:                  -7.846
REMARK INTRA:                  -0.581
REMARK UNBOUND:                -1.249
REMARK  Name = cpd233.pdb
REMARK  6 active torsions:
REMARK  status: ('A' for Active; 'I' for Inactive)
REMARK    1  A    between atoms: C_1  and  C_2
REMARK    2  A    between atoms: C_11  and  N_12
REMARK    3  A    between atoms: C_13  and  C_14
REMARK    4  A    between atoms: C_14  and  O_15
REMARK    5  A    between atoms: O_15  and  C_16
REMARK    6  A    between atoms: C_16  and  C_17
REMARK                            x       y       z     vdW  Elec       q    Type
REMARK                         _______ _______ _______ _____ _____    ______ ____
ROOT
ATOM      1  C   UNL A   1      42.987 -18.794 -39.668  0.00  0.00    -0.022 C 
ATOM      2  C   UNL A   1      44.130 -19.755 -39.835  0.00  0.00    +0.046 A 
ATOM      3  N   UNL A   1      44.158 -20.409 -41.022  0.00  0.00    -0.251 NA
ATOM      4  C   UNL A   1      45.135 -21.291 -41.258  0.00  0.00    +0.076 A 
ATOM      5  C   UNL A   1      45.111 -21.970 -42.473  0.00  0.00    -0.035 A 
ATOM      6  C   UNL A   1      46.085 -22.908 -42.819  0.00  0.00    -0.057 A 
ATOM      7  C   UNL A   1      47.114 -23.172 -41.932  0.00  0.00    -0.026 A 
ATOM      8  C   UNL A   1      47.151 -22.497 -40.714  0.00  0.00    +0.134 A 
ATOM      9  F   UNL A   1      48.183 -22.762 -39.893  0.00  0.00    -0.205 F 
ATOM     10  C   UNL A   1      46.168 -21.550 -40.340  0.00  0.00    +0.056 A 
ATOM     11  C   UNL A   1      46.156 -20.826 -39.114  0.00  0.00    +0.044 A 
ATOM     12  C   UNL A   1      45.076 -19.968 -38.826  0.00  0.00    +0.020 A 
ENDROOT
BRANCH  11  13
ATOM     13  N   UNL A   1      47.108 -21.116 -38.104  0.00  0.00    -0.357 N 
ATOM     14  H   UNL A   1      46.982 -21.897 -37.518  0.00  0.00    +0.000 HD
ATOM     15  H   UNL A   1      47.895 -20.536 -37.988  0.00  0.00    +0.000 HD
ENDBRANCH  11  13
BRANCH  12  16
ATOM     16  C   UNL A   1      44.950 -19.273 -37.495  0.00  0.00    +0.077 C 
BRANCH  16  17
ATOM     17  O   UNL A   1      44.787 -20.266 -36.484  0.00  0.00    -0.370 OA
BRANCH  17  18
ATOM     18  C   UNL A   1      45.533 -19.968 -35.305  0.00  0.00    +0.073 C 
BRANCH  18  19
ATOM     19  C   UNL A   1      44.756 -19.055 -34.391  0.00  0.00    -0.022 A 
ATOM     20  C   UNL A   1      45.179 -17.734 -34.184  0.00  0.00    -0.056 A 
ATOM     21  C   UNL A   1      44.458 -16.882 -33.348  0.00  0.00    -0.061 A 
ATOM     22  C   UNL A   1      43.307 -17.340 -32.711  0.00  0.00    -0.062 A 
ATOM     23  C   UNL A   1      42.876 -18.651 -32.909  0.00  0.00    -0.061 A 
ATOM     24  C   UNL A   1      43.596 -19.505 -33.747  0.00  0.00    -0.056 A 
ENDBRANCH  18  19
ENDBRANCH  17  18
ENDBRANCH  16  17
ENDBRANCH  12  16
TORSDOF 5
ENDMDL
