@<TRIPOS>MOLECULE
*****
 28 31 0 0 0
SMALL
GASTEIGER

@<TRIPOS>ATOM
      1 C           3.6691   -2.4752    0.0000 C.3     1  UNL1        0.2526
      2 O           3.1691   -1.6092    0.0000 O.3     1  UNL1       -0.4684
      3 C           2.1691   -1.6092    0.0000 C.ar    1  UNL1        0.1721
      4 C           1.6691   -0.7431    0.0000 C.ar    1  UNL1        0.0359
      5 C           0.6691   -0.7431    0.0000 C.ar    1  UNL1       -0.0158
      6 C           0.1691   -1.6092    0.0000 C.ar    1  UNL1        0.0340
      7 C           0.6691   -2.4752    0.0000 C.ar    1  UNL1        0.0426
      8 C           1.6691   -2.4752    0.0000 C.ar    1  UNL1        0.1725
      9 O           2.1691   -3.3412    0.0000 O.3     1  UNL1       -0.4684
     10 C           1.6691   -4.2072    0.0000 C.3     1  UNL1        0.2526
     11 C          -0.8090   -1.4013    0.0000 C.2     1  UNL1        0.1727
     12 O          -1.5522   -2.0704    0.0000 O.2     1  UNL1       -0.2913
     13 C          -0.9135   -0.4067    0.0000 C.3     1  UNL1        0.0663
     14 C          -1.7796    0.0933    0.0000 C.3     1  UNL1        0.0081
     15 C          -2.6456   -0.4067    0.0000 C.3     1  UNL1        0.0032
     16 C          -2.6456   -1.4067    0.0000 C.3     1  UNL1        0.0174
     17 C          -3.5116   -1.9067    0.0000 C.3     1  UNL1        0.0724
     18 N          -4.3776   -1.4067    0.0000 N.3     1  UNL1       -0.2690
     19 C          -5.2437   -1.9067    0.0000 C.3     1  UNL1        0.0991
     20 C          -6.1097   -1.4067    0.0000 C.ar    1  UNL1       -0.0061
     21 C          -6.9757   -1.9067    0.0000 C.ar    1  UNL1       -0.0029
     22 C          -7.8417   -1.4067    0.0000 C.ar    1  UNL1       -0.0003
     23 C          -7.8417   -0.4067    0.0000 C.ar    1  UNL1       -0.0000
     24 C          -6.9757    0.0933    0.0000 C.ar    1  UNL1       -0.0003
     25 C          -6.1097   -0.4067    0.0000 C.ar    1  UNL1       -0.0029
     26 C          -4.3776   -0.4067    0.0000 C.3     1  UNL1        0.0724
     27 C          -3.5116    0.0933    0.0000 C.3     1  UNL1        0.0174
     28 C          -0.0000   -0.0000    0.0000 C.3     1  UNL1        0.0342
@<TRIPOS>BOND
     1     1     2    1
     2     2     3    1
     3     3     4   ar
     4     4     5   ar
     5     5     6   ar
     6     6     7   ar
     7     7     8   ar
     8     3     8   ar
     9     8     9    1
    10     9    10    1
    11     6    11    1
    12    11    12    2
    13    11    13    1
    14    13    14    1
    15    14    15    1
    16    15    16    1
    17    16    17    1
    18    17    18    1
    19    18    19    1
    20    19    20    1
    21    20    21   ar
    22    21    22   ar
    23    22    23   ar
    24    23    24   ar
    25    24    25   ar
    26    20    25   ar
    27    18    26    1
    28    26    27    1
    29    15    27    1
    30    13    28    1
    31     5    28    1
