REMARK  Name = cpd7.pdb
REMARK  8 active torsions:
REMARK  status: ('A' for Active; 'I' for Inactive)
REMARK    1  A    between atoms: C_1  and  O_2
REMARK    2  A    between atoms: O_2  and  C_3
REMARK    3  A    between atoms: C_8  and  O_9
REMARK    4  A    between atoms: O_9  and  C_10
REMARK    5  A    between atoms: C_13  and  C_14
REMARK    6  A    between atoms: C_14  and  C_15
REMARK    7  A    between atoms: N_18  and  C_19
REMARK    8  A    between atoms: C_19  and  C_20
REMARK                            x       y       z     vdW  Elec       q    Type
REMARK                         _______ _______ _______ _____ _____    ______ ____
ROOT
ATOM      1  C   UNL     1      -1.652   0.037   0.189  0.00  0.00    -0.040 C 
ENDROOT
BRANCH   1  10
ATOM      2  C   UNL     1       4.146  -1.697  -0.070  0.00  0.00    +0.162 A 
ATOM      3  C   UNL     1       3.300  -0.651   0.353  0.00  0.00    -0.012 A 
ATOM      4  C   UNL     1       1.930  -0.830   0.331  0.00  0.00    -0.033 A 
ATOM      5  C   UNL     1       1.412  -2.022  -0.138  0.00  0.00    +0.025 A 
ATOM      6  C   UNL     1       2.201  -3.070  -0.579  0.00  0.00    -0.006 A 
ATOM      7  C   UNL     1       3.594  -2.919  -0.535  0.00  0.00    +0.162 A 
ATOM      8  C   UNL     1      -0.040  -1.955  -0.050  0.00  0.00    +0.167 C 
ATOM      9  O   UNL     1      -0.770  -2.817  -0.505  0.00  0.00    -0.292 OA
ATOM     10  C   UNL     1      -0.433  -0.713   0.741  0.00  0.00    +0.026 C 
ATOM     11  C   UNL     1       0.858   0.147   0.693  0.00  0.00    -0.017 C 
BRANCH   2  13
ATOM     12  C   UNL     1       6.462  -2.342  -0.156  0.00  0.00    +0.079 C 
ATOM     13  O   UNL     1       5.469  -1.345   0.032  0.00  0.00    -0.491 OA
ENDBRANCH   2  13
BRANCH   7  14
ATOM     14  O   UNL     1       4.450  -3.901  -0.959  0.00  0.00    -0.491 OA
ATOM     15  C   UNL     1       3.923  -5.212  -1.128  0.00  0.00    +0.079 C 
ENDBRANCH   7  14
ENDBRANCH   1  10
BRANCH   1  16
ATOM     16  C   UNL     1      -2.988  -0.342   0.872  0.00  0.00    -0.038 C 
ATOM     17  C   UNL     1      -3.384  -1.802   0.639  0.00  0.00    -0.037 C 
ATOM     18  C   UNL     1      -4.811  -2.089   1.105  0.00  0.00    -0.001 C 
ATOM     19  N   UNL     1      -5.834  -1.173   0.582  0.00  0.00    -0.298 N 
ATOM     20  C   UNL     1      -5.283  -0.103  -0.256  0.00  0.00    -0.001 C 
ATOM     21  C   UNL     1      -4.120   0.610   0.437  0.00  0.00    -0.037 C 
ATOM     22  H   UNL     1      -6.239  -0.704   1.392  0.00  0.00    +0.000 HD
BRANCH  19  23
ATOM     23  C   UNL     1      -6.912  -1.907  -0.099  0.00  0.00    +0.024 C 
BRANCH  23  24
ATOM     24  C   UNL     1      -8.177  -1.094  -0.270  0.00  0.00    -0.033 A 
ATOM     25  C   UNL     1      -8.955  -0.760   0.849  0.00  0.00    -0.057 A 
ATOM     26  C   UNL     1     -10.134  -0.028   0.701  0.00  0.00    -0.061 A 
ATOM     27  C   UNL     1     -10.543   0.384  -0.566  0.00  0.00    -0.062 A 
ATOM     28  C   UNL     1      -9.774   0.067  -1.684  0.00  0.00    -0.061 A 
ATOM     29  C   UNL     1      -8.596  -0.670  -1.539  0.00  0.00    -0.057 A 
ENDBRANCH  23  24
ENDBRANCH  19  23
ENDBRANCH   1  16
TORSDOF 6
