MODEL 1
REMARK VINA RESULT:    -7.859      0.000      0.000
REMARK INTER + INTRA:         -11.514
REMARK INTER:                 -10.615
REMARK INTRA:                  -0.899
REMARK UNBOUND:                -0.899
REMARK  Name = cpd7.pdb
REMARK  8 active torsions:
REMARK  status: ('A' for Active; 'I' for Inactive)
REMARK    1  A    between atoms: C_1  and  O_2
REMARK    2  A    between atoms: O_2  and  C_3
REMARK    3  A    between atoms: C_8  and  O_9
REMARK    4  A    between atoms: O_9  and  C_10
REMARK    5  A    between atoms: C_13  and  C_14
REMARK    6  A    between atoms: C_14  and  C_15
REMARK    7  A    between atoms: N_18  and  C_19
REMARK    8  A    between atoms: C_19  and  C_20
REMARK                            x       y       z     vdW  Elec       q    Type
REMARK                         _______ _______ _______ _____ _____    ______ ____
ROOT
ATOM      1  C   UNL     1      41.052 -19.181 -37.512  0.00  0.00    -0.040 C 
ENDROOT
BRANCH   1  10
ATOM      2  C   UNL     1      40.173 -22.647 -32.623  0.00  0.00    +0.162 A 
ATOM      3  C   UNL     1      40.777 -21.451 -33.063  0.00  0.00    -0.012 A 
ATOM      4  C   UNL     1      40.527 -20.991 -34.341  0.00  0.00    -0.033 A 
ATOM      5  C   UNL     1      39.714 -21.731 -35.179  0.00  0.00    +0.025 A 
ATOM      6  C   UNL     1      39.113 -22.918 -34.798  0.00  0.00    -0.006 A 
ATOM      7  C   UNL     1      39.330 -23.385 -33.494  0.00  0.00    +0.162 A 
ATOM      8  C   UNL     1      39.609 -21.029 -36.451  0.00  0.00    +0.167 C 
ATOM      9  O   UNL     1      39.053 -21.505 -37.424  0.00  0.00    -0.292 OA
ATOM     10  C   UNL     1      40.225 -19.643 -36.305  0.00  0.00    +0.026 C 
ATOM     11  C   UNL     1      41.085 -19.782 -35.021  0.00  0.00    -0.017 C 
BRANCH   2  13
ATOM     12  C   UNL     1      41.664 -23.757 -31.094  0.00  0.00    +0.079 C 
ATOM     13  O   UNL     1      40.526 -22.941 -31.329  0.00  0.00    -0.491 OA
ENDBRANCH   2  13
BRANCH   7  14
ATOM     14  O   UNL     1      38.783 -24.554 -33.035  0.00  0.00    -0.491 OA
ATOM     15  C   UNL     1      37.421 -24.818 -33.354  0.00  0.00    +0.079 C 
ENDBRANCH   7  14
ENDBRANCH   1  10
BRANCH   1  16
ATOM     16  C   UNL     1      42.151 -20.182 -37.943  0.00  0.00    -0.038 C 
ATOM     17  C   UNL     1      43.563 -19.702 -37.600  0.00  0.00    -0.037 C 
ATOM     18  C   UNL     1      44.638 -20.575 -38.247  0.00  0.00    -0.001 C 
ATOM     19  N   UNL     1      44.485 -20.781 -39.694  0.00  0.00    -0.298 N 
ATOM     20  C   UNL     1      43.283 -20.150 -40.248  0.00  0.00    -0.001 C 
ATOM     21  C   UNL     1      42.035 -20.518 -39.443  0.00  0.00    -0.037 C 
ATOM     22  H   UNL     1      44.354 -21.784 -39.828  0.00  0.00    +0.000 HD
BRANCH  19  23
ATOM     23  C   UNL     1      45.701 -20.385 -40.422  0.00  0.00    +0.024 C 
BRANCH  23  24
ATOM     24  C   UNL     1      46.496 -21.561 -40.947  0.00  0.00    -0.033 A 
ATOM     25  C   UNL     1      47.686 -21.946 -40.311  0.00  0.00    -0.057 A 
ATOM     26  C   UNL     1      48.438 -23.016 -40.799  0.00  0.00    -0.061 A 
ATOM     27  C   UNL     1      48.004 -23.716 -41.923  0.00  0.00    -0.062 A 
ATOM     28  C   UNL     1      46.819 -23.350 -42.558  0.00  0.00    -0.061 A 
ATOM     29  C   UNL     1      46.067 -22.276 -42.075  0.00  0.00    -0.057 A 
ENDBRANCH  23  24
ENDBRANCH  19  23
ENDBRANCH   1  16
TORSDOF 6
ENDMDL
MODEL 2
REMARK VINA RESULT:    -7.639     15.549     21.311
REMARK INTER + INTRA:         -11.217
REMARK INTER:                 -11.042
REMARK INTRA:                  -0.175
REMARK UNBOUND:                -0.899
REMARK  Name = cpd7.pdb
REMARK  8 active torsions:
REMARK  status: ('A' for Active; 'I' for Inactive)
REMARK    1  A    between atoms: C_1  and  O_2
REMARK    2  A    between atoms: O_2  and  C_3
REMARK    3  A    between atoms: C_8  and  O_9
REMARK    4  A    between atoms: O_9  and  C_10
REMARK    5  A    between atoms: C_13  and  C_14
REMARK    6  A    between atoms: C_14  and  C_15
REMARK    7  A    between atoms: N_18  and  C_19
REMARK    8  A    between atoms: C_19  and  C_20
REMARK                            x       y       z     vdW  Elec       q    Type
REMARK                         _______ _______ _______ _____ _____    ______ ____
ROOT
ATOM      1  C   UNL     1      35.067 -36.196 -28.788  0.00  0.00    -0.040 C 
ENDROOT
BRANCH   1  10
ATOM      2  C   UNL     1      40.843 -37.331 -30.214  0.00  0.00    +0.162 A 
ATOM      3  C   UNL     1      39.846 -37.598 -29.254  0.00  0.00    -0.012 A 
ATOM      4  C   UNL     1      38.543 -37.204 -29.494  0.00  0.00    -0.033 A 
ATOM      5  C   UNL     1      38.248 -36.522 -30.660  0.00  0.00    +0.025 A 
ATOM      6  C   UNL     1      39.196 -36.222 -31.623  0.00  0.00    -0.006 A 
ATOM      7  C   UNL     1      40.517 -36.642 -31.411  0.00  0.00    +0.162 A 
ATOM      8  C   UNL     1      36.822 -36.231 -30.670  0.00  0.00    +0.167 C 
ATOM      9  O   UNL     1      36.296 -35.534 -31.518  0.00  0.00    -0.292 OA
ATOM     10  C   UNL     1      36.152 -36.987 -29.528  0.00  0.00    +0.026 C 
ATOM     11  C   UNL     1      37.348 -37.348 -28.608  0.00  0.00    -0.017 C 
BRANCH   2  13
ATOM     12  C   UNL     1      42.635 -38.912 -30.494  0.00  0.00    +0.079 C 
ATOM     13  O   UNL     1      42.067 -37.804 -29.811  0.00  0.00    -0.491 OA
ENDBRANCH   2  13
BRANCH   7  14
ATOM     14  O   UNL     1      41.520 -36.381 -32.307  0.00  0.00    -0.491 OA
ATOM     15  C   UNL     1      42.211 -35.144 -32.186  0.00  0.00    +0.079 C 
ENDBRANCH   7  14
ENDBRANCH   1  10
BRANCH   1  16
ATOM     16  C   UNL     1      34.110 -37.074 -27.946  0.00  0.00    -0.038 C 
ATOM     17  C   UNL     1      32.941 -36.283 -27.353  0.00  0.00    -0.037 C 
ATOM     18  C   UNL     1      32.154 -37.105 -26.333  0.00  0.00    -0.001 C 
ATOM     19  N   UNL     1      32.962 -37.727 -25.276  0.00  0.00    -0.298 N 
ATOM     20  C   UNL     1      34.401 -37.490 -25.429  0.00  0.00    -0.001 C 
ATOM     21  C   UNL     1      34.879 -37.827 -26.843  0.00  0.00    -0.037 C 
ATOM     22  H   UNL     1      32.839 -38.735 -25.378  0.00  0.00    +0.000 HD
BRANCH  19  23
ATOM     23  C   UNL     1      32.480 -37.347 -23.939  0.00  0.00    +0.024 C 
BRANCH  23  24
ATOM     24  C   UNL     1      33.227 -38.031 -22.814  0.00  0.00    -0.033 A 
ATOM     25  C   UNL     1      33.233 -39.431 -22.724  0.00  0.00    -0.057 A 
ATOM     26  C   UNL     1      33.902 -40.072 -21.680  0.00  0.00    -0.061 A 
ATOM     27  C   UNL     1      34.577 -39.320 -20.720  0.00  0.00    -0.062 A 
ATOM     28  C   UNL     1      34.585 -37.929 -20.804  0.00  0.00    -0.061 A 
ATOM     29  C   UNL     1      33.913 -37.285 -21.846  0.00  0.00    -0.057 A 
ENDBRANCH  23  24
ENDBRANCH  19  23
ENDBRANCH   1  16
TORSDOF 6
ENDMDL
MODEL 3
REMARK VINA RESULT:    -7.595     15.683     18.315
REMARK INTER + INTRA:         -11.159
REMARK INTER:                 -10.363
REMARK INTRA:                  -0.796
REMARK UNBOUND:                -0.899
REMARK  Name = cpd7.pdb
REMARK  8 active torsions:
REMARK  status: ('A' for Active; 'I' for Inactive)
REMARK    1  A    between atoms: C_1  and  O_2
REMARK    2  A    between atoms: O_2  and  C_3
REMARK    3  A    between atoms: C_8  and  O_9
REMARK    4  A    between atoms: O_9  and  C_10
REMARK    5  A    between atoms: C_13  and  C_14
REMARK    6  A    between atoms: C_14  and  C_15
REMARK    7  A    between atoms: N_18  and  C_19
REMARK    8  A    between atoms: C_19  and  C_20
REMARK                            x       y       z     vdW  Elec       q    Type
REMARK                         _______ _______ _______ _____ _____    ______ ____
ROOT
ATOM      1  C   UNL     1      34.793 -35.713 -31.585  0.00  0.00    -0.040 C 
ENDROOT
BRANCH   1  10
ATOM      2  C   UNL     1      40.704 -36.646 -30.651  0.00  0.00    +0.162 A 
ATOM      3  C   UNL     1      39.789 -35.854 -31.374  0.00  0.00    -0.012 A 
ATOM      4  C   UNL     1      38.440 -35.933 -31.083  0.00  0.00    -0.033 A 
ATOM      5  C   UNL     1      38.009 -36.813 -30.110  0.00  0.00    +0.025 A 
ATOM      6  C   UNL     1      38.868 -37.623 -29.386  0.00  0.00    -0.006 A 
ATOM      7  C   UNL     1      40.243 -37.534 -29.645  0.00  0.00    +0.162 A 
ATOM      8  C   UNL     1      36.562 -36.697 -29.996  0.00  0.00    +0.167 C 
ATOM      9  O   UNL     1      35.892 -37.438 -29.301  0.00  0.00    -0.292 OA
ATOM     10  C   UNL     1      36.096 -35.493 -30.806  0.00  0.00    +0.026 C 
ATOM     11  C   UNL     1      37.303 -35.222 -31.743  0.00  0.00    -0.017 C 
BRANCH   2  13
ATOM     12  C   UNL     1      42.596 -37.357 -31.957  0.00  0.00    +0.079 C 
ATOM     13  O   UNL     1      41.994 -36.428 -31.067  0.00  0.00    -0.491 OA
ENDBRANCH   2  13
BRANCH   7  14
ATOM     14  O   UNL     1      41.163 -38.303 -28.983  0.00  0.00    -0.491 OA
ATOM     15  C   UNL     1      40.903 -38.621 -27.620  0.00  0.00    +0.079 C 
ENDBRANCH   7  14
ENDBRANCH   1  10
BRANCH   1  16
ATOM     16  C   UNL     1      33.570 -34.974 -30.990  0.00  0.00    -0.038 C 
ATOM     17  C   UNL     1      32.847 -34.095 -32.013  0.00  0.00    -0.037 C 
ATOM     18  C   UNL     1      31.805 -33.191 -31.356  0.00  0.00    -0.001 C 
ATOM     19  N   UNL     1      32.296 -32.392 -30.225  0.00  0.00    -0.298 N 
ATOM     20  C   UNL     1      33.701 -32.655 -29.894  0.00  0.00    -0.001 C 
ATOM     21  C   UNL     1      33.971 -34.154 -29.748  0.00  0.00    -0.037 C 
ATOM     22  H   UNL     1      31.763 -32.692 -29.410  0.00  0.00    +0.000 HD
BRANCH  19  23
ATOM     23  C   UNL     1      32.038 -30.958 -30.430  0.00  0.00    +0.024 C 
BRANCH  23  24
ATOM     24  C   UNL     1      30.770 -30.475 -29.759  0.00  0.00    -0.033 A 
ATOM     25  C   UNL     1      30.420 -30.954 -28.488  0.00  0.00    -0.057 A 
ATOM     26  C   UNL     1      29.243 -30.531 -27.868  0.00  0.00    -0.061 A 
ATOM     27  C   UNL     1      28.408 -29.620 -28.511  0.00  0.00    -0.062 A 
ATOM     28  C   UNL     1      28.748 -29.129 -29.770  0.00  0.00    -0.061 A 
ATOM     29  C   UNL     1      29.924 -29.555 -30.394  0.00  0.00    -0.057 A 
ENDBRANCH  23  24
ENDBRANCH  19  23
ENDBRANCH   1  16
TORSDOF 6
ENDMDL
MODEL 4
REMARK VINA RESULT:    -7.375     15.051     16.525
REMARK INTER + INTRA:         -10.861
REMARK INTER:                 -10.124
REMARK INTRA:                  -0.737
REMARK UNBOUND:                -0.899
REMARK  Name = cpd7.pdb
REMARK  8 active torsions:
REMARK  status: ('A' for Active; 'I' for Inactive)
REMARK    1  A    between atoms: C_1  and  O_2
REMARK    2  A    between atoms: O_2  and  C_3
REMARK    3  A    between atoms: C_8  and  O_9
REMARK    4  A    between atoms: O_9  and  C_10
REMARK    5  A    between atoms: C_13  and  C_14
REMARK    6  A    between atoms: C_14  and  C_15
REMARK    7  A    between atoms: N_18  and  C_19
REMARK    8  A    between atoms: C_19  and  C_20
REMARK                            x       y       z     vdW  Elec       q    Type
REMARK                         _______ _______ _______ _____ _____    ______ ____
ROOT
ATOM      1  C   UNL     1      32.734 -33.792 -29.740  0.00  0.00    -0.040 C 
ENDROOT
BRANCH   1  10
ATOM      2  C   UNL     1      28.950 -29.499 -31.728  0.00  0.00    +0.162 A 
ATOM      3  C   UNL     1      30.131 -29.705 -30.985  0.00  0.00    -0.012 A 
ATOM      4  C   UNL     1      30.713 -30.959 -30.961  0.00  0.00    -0.033 A 
ATOM      5  C   UNL     1      30.106 -31.998 -31.640  0.00  0.00    +0.025 A 
ATOM      6  C   UNL     1      28.939 -31.848 -32.368  0.00  0.00    -0.006 A 
ATOM      7  C   UNL     1      28.351 -30.577 -32.430  0.00  0.00    +0.162 A 
ATOM      8  C   UNL     1      30.916 -33.195 -31.461  0.00  0.00    +0.167 C 
ATOM      9  O   UNL     1      30.564 -34.294 -31.848  0.00  0.00    -0.292 OA
ATOM     10  C   UNL     1      32.236 -32.808 -30.806  0.00  0.00    +0.026 C 
ATOM     11  C   UNL     1      31.929 -31.406 -30.216  0.00  0.00    -0.017 C 
BRANCH   2  13
ATOM     12  C   UNL     1      28.427 -27.585 -30.367  0.00  0.00    +0.079 C 
ATOM     13  O   UNL     1      28.526 -28.196 -31.645  0.00  0.00    -0.491 OA
ENDBRANCH   2  13
BRANCH   7  14
ATOM     14  O   UNL     1      27.191 -30.340 -33.120  0.00  0.00    -0.491 OA
ATOM     15  C   UNL     1      25.963 -30.448 -32.410  0.00  0.00    +0.079 C 
ENDBRANCH   7  14
ENDBRANCH   1  10
BRANCH   1  16
ATOM     16  C   UNL     1      34.274 -33.921 -29.671  0.00  0.00    -0.038 C 
ATOM     17  C   UNL     1      34.971 -33.444 -30.947  0.00  0.00    -0.037 C 
ATOM     18  C   UNL     1      36.456 -33.807 -30.958  0.00  0.00    -0.001 C 
ATOM     19  N   UNL     1      36.755 -35.220 -30.689  0.00  0.00    -0.298 N 
ATOM     20  C   UNL     1      35.562 -36.022 -30.398  0.00  0.00    -0.001 C 
ATOM     21  C   UNL     1      34.692 -35.365 -29.324  0.00  0.00    -0.037 C 
ATOM     22  H   UNL     1      37.310 -35.237 -29.834  0.00  0.00    +0.000 HD
BRANCH  19  23
ATOM     23  C   UNL     1      37.567 -35.810 -31.765  0.00  0.00    +0.024 C 
BRANCH  23  24
ATOM     24  C   UNL     1      39.037 -35.910 -31.421  0.00  0.00    -0.033 A 
ATOM     25  C   UNL     1      39.481 -36.871 -30.500  0.00  0.00    -0.057 A 
ATOM     26  C   UNL     1      40.831 -36.959 -30.160  0.00  0.00    -0.061 A 
ATOM     27  C   UNL     1      41.753 -36.092 -30.743  0.00  0.00    -0.062 A 
ATOM     28  C   UNL     1      41.327 -35.139 -31.667  0.00  0.00    -0.061 A 
ATOM     29  C   UNL     1      39.975 -35.046 -32.005  0.00  0.00    -0.057 A 
ENDBRANCH  23  24
ENDBRANCH  19  23
ENDBRANCH   1  16
TORSDOF 6
ENDMDL
MODEL 5
REMARK VINA RESULT:    -7.375      1.533      2.265
REMARK INTER + INTRA:         -10.861
REMARK INTER:                 -10.077
REMARK INTRA:                  -0.784
REMARK UNBOUND:                -0.899
REMARK  Name = cpd7.pdb
REMARK  8 active torsions:
REMARK  status: ('A' for Active; 'I' for Inactive)
REMARK    1  A    between atoms: C_1  and  O_2
REMARK    2  A    between atoms: O_2  and  C_3
REMARK    3  A    between atoms: C_8  and  O_9
REMARK    4  A    between atoms: O_9  and  C_10
REMARK    5  A    between atoms: C_13  and  C_14
REMARK    6  A    between atoms: C_14  and  C_15
REMARK    7  A    between atoms: N_18  and  C_19
REMARK    8  A    between atoms: C_19  and  C_20
REMARK                            x       y       z     vdW  Elec       q    Type
REMARK                         _______ _______ _______ _____ _____    ______ ____
ROOT
ATOM      1  C   UNL     1      39.852 -20.535 -39.089  0.00  0.00    -0.040 C 
ENDROOT
BRANCH   1  10
ATOM      2  C   UNL     1      39.840 -20.150 -33.044  0.00  0.00    +0.162 A 
ATOM      3  C   UNL     1      39.716 -19.386 -34.223  0.00  0.00    -0.012 A 
ATOM      4  C   UNL     1      39.620 -20.025 -35.444  0.00  0.00    -0.033 A 
ATOM      5  C   UNL     1      39.680 -21.405 -35.491  0.00  0.00    +0.025 A 
ATOM      6  C   UNL     1      39.818 -22.196 -34.364  0.00  0.00    -0.006 A 
ATOM      7  C   UNL     1      39.886 -21.567 -33.113  0.00  0.00    +0.162 A 
ATOM      8  C   UNL     1      39.550 -21.821 -36.880  0.00  0.00    +0.167 C 
ATOM      9  O   UNL     1      39.687 -22.976 -37.240  0.00  0.00    -0.292 OA
ATOM     10  C   UNL     1      39.156 -20.615 -37.725  0.00  0.00    +0.026 C 
ATOM     11  C   UNL     1      39.522 -19.418 -36.807  0.00  0.00    -0.017 C 
BRANCH   2  13
ATOM     12  C   UNL     1      39.491 -17.997 -32.030  0.00  0.00    +0.079 C 
ATOM     13  O   UNL     1      39.911 -19.349 -31.932  0.00  0.00    -0.491 OA
ENDBRANCH   2  13
BRANCH   7  14
ATOM     14  O   UNL     1      40.031 -22.271 -31.947  0.00  0.00    -0.491 OA
ATOM     15  C   UNL     1      41.180 -23.100 -31.812  0.00  0.00    +0.079 C 
ENDBRANCH   7  14
ENDBRANCH   1  10
BRANCH   1  16
ATOM     16  C   UNL     1      41.330 -20.994 -39.070  0.00  0.00    -0.038 C 
ATOM     17  C   UNL     1      42.315 -19.843 -39.291  0.00  0.00    -0.037 C 
ATOM     18  C   UNL     1      43.741 -20.345 -39.515  0.00  0.00    -0.001 C 
ATOM     19  N   UNL     1      43.884 -21.372 -40.557  0.00  0.00    -0.298 N 
ATOM     20  C   UNL     1      42.608 -21.772 -41.158  0.00  0.00    -0.001 C 
ATOM     21  C   UNL     1      41.571 -22.125 -40.090  0.00  0.00    -0.037 C 
ATOM     22  H   UNL     1      44.239 -22.206 -40.090  0.00  0.00    +0.000 HD
BRANCH  19  23
ATOM     23  C   UNL     1      44.870 -20.970 -41.573  0.00  0.00    +0.024 C 
BRANCH  23  24
ATOM     24  C   UNL     1      46.100 -21.851 -41.597  0.00  0.00    -0.033 A 
ATOM     25  C   UNL     1      47.077 -21.722 -40.599  0.00  0.00    -0.057 A 
ATOM     26  C   UNL     1      48.225 -22.516 -40.623  0.00  0.00    -0.061 A 
ATOM     27  C   UNL     1      48.404 -23.451 -41.640  0.00  0.00    -0.062 A 
ATOM     28  C   UNL     1      47.436 -23.595 -42.632  0.00  0.00    -0.061 A 
ATOM     29  C   UNL     1      46.288 -22.798 -42.614  0.00  0.00    -0.057 A 
ENDBRANCH  23  24
ENDBRANCH  19  23
ENDBRANCH   1  16
TORSDOF 6
ENDMDL
MODEL 6
REMARK VINA RESULT:    -7.289     15.348     16.911
REMARK INTER + INTRA:         -10.745
REMARK INTER:                 -10.123
REMARK INTRA:                  -0.622
REMARK UNBOUND:                -0.899
REMARK  Name = cpd7.pdb
REMARK  8 active torsions:
REMARK  status: ('A' for Active; 'I' for Inactive)
REMARK    1  A    between atoms: C_1  and  O_2
REMARK    2  A    between atoms: O_2  and  C_3
REMARK    3  A    between atoms: C_8  and  O_9
REMARK    4  A    between atoms: O_9  and  C_10
REMARK    5  A    between atoms: C_13  and  C_14
REMARK    6  A    between atoms: C_14  and  C_15
REMARK    7  A    between atoms: N_18  and  C_19
REMARK    8  A    between atoms: C_19  and  C_20
REMARK                            x       y       z     vdW  Elec       q    Type
REMARK                         _______ _______ _______ _____ _____    ______ ____
ROOT
ATOM      1  C   UNL     1      32.827 -34.146 -29.530  0.00  0.00    -0.040 C 
ENDROOT
BRANCH   1  10
ATOM      2  C   UNL     1      28.637 -29.807 -28.966  0.00  0.00    +0.162 A 
ATOM      3  C   UNL     1      29.206 -30.918 -28.309  0.00  0.00    -0.012 A 
ATOM      4  C   UNL     1      30.334 -31.518 -28.834  0.00  0.00    -0.033 A 
ATOM      5  C   UNL     1      30.867 -31.038 -30.015  0.00  0.00    +0.025 A 
ATOM      6  C   UNL     1      30.335 -29.962 -30.704  0.00  0.00    -0.006 A 
ATOM      7  C   UNL     1      29.209 -29.321 -30.171  0.00  0.00    +0.162 A 
ATOM      8  C   UNL     1      32.042 -31.833 -30.342  0.00  0.00    +0.167 C 
ATOM      9  O   UNL     1      32.648 -31.715 -31.392  0.00  0.00    -0.292 OA
ATOM     10  C   UNL     1      32.385 -32.725 -29.155  0.00  0.00    +0.026 C 
ATOM     11  C   UNL     1      31.071 -32.717 -28.329  0.00  0.00    -0.017 C 
BRANCH   2  13
ATOM     12  C   UNL     1      27.223 -29.878 -27.022  0.00  0.00    +0.079 C 
ATOM     13  O   UNL     1      27.534 -29.338 -28.297  0.00  0.00    -0.491 OA
ENDBRANCH   2  13
BRANCH   7  14
ATOM     14  O   UNL     1      28.612 -28.255 -30.791  0.00  0.00    -0.491 OA
ATOM     15  C   UNL     1      28.331 -28.368 -32.181  0.00  0.00    +0.079 C 
ENDBRANCH   7  14
ENDBRANCH   1  10
BRANCH   1  16
ATOM     16  C   UNL     1      34.354 -34.378 -29.430  0.00  0.00    -0.038 C 
ATOM     17  C   UNL     1      35.063 -34.272 -30.783  0.00  0.00    -0.037 C 
ATOM     18  C   UNL     1      36.514 -34.744 -30.706  0.00  0.00    -0.001 C 
ATOM     19  N   UNL     1      36.707 -36.073 -30.109  0.00  0.00    -0.298 N 
ATOM     20  C   UNL     1      35.461 -36.686 -29.638  0.00  0.00    -0.001 C 
ATOM     21  C   UNL     1      34.664 -35.726 -28.751  0.00  0.00    -0.037 C 
ATOM     22  H   UNL     1      37.275 -35.932 -29.273  0.00  0.00    +0.000 HD
BRANCH  19  23
ATOM     23  C   UNL     1      37.452 -36.963 -31.013  0.00  0.00    +0.024 C 
BRANCH  23  24
ATOM     24  C   UNL     1      38.950 -36.755 -30.961  0.00  0.00    -0.033 A 
ATOM     25  C   UNL     1      39.582 -35.948 -31.919  0.00  0.00    -0.057 A 
ATOM     26  C   UNL     1      40.966 -35.766 -31.892  0.00  0.00    -0.061 A 
ATOM     27  C   UNL     1      41.730 -36.382 -30.904  0.00  0.00    -0.062 A 
ATOM     28  C   UNL     1      41.113 -37.179 -29.941  0.00  0.00    -0.061 A 
ATOM     29  C   UNL     1      39.729 -37.367 -29.968  0.00  0.00    -0.057 A 
ENDBRANCH  23  24
ENDBRANCH  19  23
ENDBRANCH   1  16
TORSDOF 6
ENDMDL
MODEL 7
REMARK VINA RESULT:    -7.235     15.454     18.574
REMARK INTER + INTRA:         -10.672
REMARK INTER:                 -10.284
REMARK INTRA:                  -0.388
REMARK UNBOUND:                -0.899
REMARK  Name = cpd7.pdb
REMARK  8 active torsions:
REMARK  status: ('A' for Active; 'I' for Inactive)
REMARK    1  A    between atoms: C_1  and  O_2
REMARK    2  A    between atoms: O_2  and  C_3
REMARK    3  A    between atoms: C_8  and  O_9
REMARK    4  A    between atoms: O_9  and  C_10
REMARK    5  A    between atoms: C_13  and  C_14
REMARK    6  A    between atoms: C_14  and  C_15
REMARK    7  A    between atoms: N_18  and  C_19
REMARK    8  A    between atoms: C_19  and  C_20
REMARK                            x       y       z     vdW  Elec       q    Type
REMARK                         _______ _______ _______ _____ _____    ______ ____
ROOT
ATOM      1  C   UNL     1      35.719 -34.817 -30.755  0.00  0.00    -0.040 C 
ENDROOT
BRANCH   1  10
ATOM      2  C   UNL     1      40.801 -37.846 -29.460  0.00  0.00    +0.162 A 
ATOM      3  C   UNL     1      39.406 -37.847 -29.257  0.00  0.00    -0.012 A 
ATOM      4  C   UNL     1      38.614 -36.958 -29.959  0.00  0.00    -0.033 A 
ATOM      5  C   UNL     1      39.209 -36.060 -30.823  0.00  0.00    +0.025 A 
ATOM      6  C   UNL     1      40.575 -36.010 -31.042  0.00  0.00    -0.006 A 
ATOM      7  C   UNL     1      41.392 -36.924 -30.363  0.00  0.00    +0.162 A 
ATOM      8  C   UNL     1      38.163 -35.251 -31.433  0.00  0.00    +0.167 C 
ATOM      9  O   UNL     1      38.400 -34.295 -32.149  0.00  0.00    -0.292 OA
ATOM     10  C   UNL     1      36.805 -35.848 -31.083  0.00  0.00    +0.026 C 
ATOM     11  C   UNL     1      37.134 -36.761 -29.872  0.00  0.00    -0.017 C 
BRANCH   2  13
ATOM     12  C   UNL     1      41.189 -38.810 -27.290  0.00  0.00    +0.079 C 
ATOM     13  O   UNL     1      41.421 -38.800 -28.691  0.00  0.00    -0.491 OA
ENDBRANCH   2  13
BRANCH   7  14
ATOM     14  O   UNL     1      42.754 -36.940 -30.513  0.00  0.00    -0.491 OA
ATOM     15  C   UNL     1      43.341 -35.943 -31.341  0.00  0.00    +0.079 C 
ENDBRANCH   7  14
ENDBRANCH   1  10
BRANCH   1  16
ATOM     16  C   UNL     1      34.390 -35.436 -30.258  0.00  0.00    -0.038 C 
ATOM     17  C   UNL     1      33.182 -35.005 -31.092  0.00  0.00    -0.037 C 
ATOM     18  C   UNL     1      31.862 -35.421 -30.444  0.00  0.00    -0.001 C 
ATOM     19  N   UNL     1      31.704 -35.025 -29.038  0.00  0.00    -0.298 N 
ATOM     20  C   UNL     1      32.881 -34.343 -28.491  0.00  0.00    -0.001 C 
ATOM     21  C   UNL     1      34.164 -35.131 -28.764  0.00  0.00    -0.037 C 
ATOM     22  H   UNL     1      31.617 -35.889 -28.505  0.00  0.00    +0.000 HD
BRANCH  19  23
ATOM     23  C   UNL     1      30.472 -34.245 -28.837  0.00  0.00    +0.024 C 
BRANCH  23  24
ATOM     24  C   UNL     1      30.417 -32.984 -29.671  0.00  0.00    -0.033 A 
ATOM     25  C   UNL     1      29.446 -32.847 -30.675  0.00  0.00    -0.057 A 
ATOM     26  C   UNL     1      29.398 -31.696 -31.464  0.00  0.00    -0.061 A 
ATOM     27  C   UNL     1      30.315 -30.668 -31.251  0.00  0.00    -0.062 A 
ATOM     28  C   UNL     1      31.277 -30.788 -30.250  0.00  0.00    -0.061 A 
ATOM     29  C   UNL     1      31.331 -31.941 -29.463  0.00  0.00    -0.057 A 
ENDBRANCH  23  24
ENDBRANCH  19  23
ENDBRANCH   1  16
TORSDOF 6
ENDMDL
MODEL 8
REMARK VINA RESULT:    -7.146     30.280     34.224
REMARK INTER + INTRA:         -10.551
REMARK INTER:                 -10.093
REMARK INTRA:                  -0.459
REMARK UNBOUND:                -0.899
REMARK  Name = cpd7.pdb
REMARK  8 active torsions:
REMARK  status: ('A' for Active; 'I' for Inactive)
REMARK    1  A    between atoms: C_1  and  O_2
REMARK    2  A    between atoms: O_2  and  C_3
REMARK    3  A    between atoms: C_8  and  O_9
REMARK    4  A    between atoms: O_9  and  C_10
REMARK    5  A    between atoms: C_13  and  C_14
REMARK    6  A    between atoms: C_14  and  C_15
REMARK    7  A    between atoms: N_18  and  C_19
REMARK    8  A    between atoms: C_19  and  C_20
REMARK                            x       y       z     vdW  Elec       q    Type
REMARK                         _______ _______ _______ _____ _____    ______ ____
ROOT
ATOM      1  C   UNL     1      63.051 -20.326 -10.310  0.00  0.00    -0.040 C 
ENDROOT
BRANCH   1  10
ATOM      2  C   UNL     1      64.362 -24.358  -5.984  0.00  0.00    +0.162 A 
ATOM      3  C   UNL     1      63.919 -23.036  -6.196  0.00  0.00    -0.012 A 
ATOM      4  C   UNL     1      63.601 -22.619  -7.475  0.00  0.00    -0.033 A 
ATOM      5  C   UNL     1      63.755 -23.499  -8.529  0.00  0.00    +0.025 A 
ATOM      6  C   UNL     1      64.201 -24.799  -8.373  0.00  0.00    -0.006 A 
ATOM      7  C   UNL     1      64.499 -25.250  -7.079  0.00  0.00    +0.162 A 
ATOM      8  C   UNL     1      63.349 -22.820  -9.752  0.00  0.00    +0.167 C 
ATOM      9  O   UNL     1      63.490 -23.311 -10.858  0.00  0.00    -0.292 OA
ATOM     10  C   UNL     1      62.685 -21.497  -9.390  0.00  0.00    +0.026 C 
ATOM     11  C   UNL     1      63.155 -21.267  -7.929  0.00  0.00    -0.017 C 
BRANCH   2  13
ATOM     12  C   UNL     1      65.360 -23.635  -3.918  0.00  0.00    +0.079 C 
ATOM     13  O   UNL     1      64.619 -24.594  -4.656  0.00  0.00    -0.491 OA
ENDBRANCH   2  13
BRANCH   7  14
ATOM     14  O   UNL     1      64.954 -26.518  -6.833  0.00  0.00    -0.491 OA
ATOM     15  C   UNL     1      64.041 -27.453  -6.271  0.00  0.00    +0.079 C 
ENDBRANCH   7  14
ENDBRANCH   1  10
BRANCH   1  16
ATOM     16  C   UNL     1      62.227 -19.041 -10.053  0.00  0.00    -0.038 C 
ATOM     17  C   UNL     1      60.792 -19.332  -9.607  0.00  0.00    -0.037 C 
ATOM     18  C   UNL     1      59.929 -18.070  -9.599  0.00  0.00    -0.001 C 
ATOM     19  N   UNL     1      59.949 -17.293 -10.845  0.00  0.00    -0.298 N 
ATOM     20  C   UNL     1      60.850 -17.846 -11.862  0.00  0.00    -0.001 C 
ATOM     21  C   UNL     1      62.242 -18.119 -11.289  0.00  0.00    -0.037 C 
ATOM     22  H   UNL     1      60.335 -16.380 -10.607  0.00  0.00    +0.000 HD
BRANCH  19  23
ATOM     23  C   UNL     1      58.589 -17.085 -11.368  0.00  0.00    +0.024 C 
BRANCH  23  24
ATOM     24  C   UNL     1      58.084 -18.241 -12.204  0.00  0.00    -0.033 A 
ATOM     25  C   UNL     1      57.591 -19.397 -11.580  0.00  0.00    -0.057 A 
ATOM     26  C   UNL     1      57.141 -20.477 -12.341  0.00  0.00    -0.061 A 
ATOM     27  C   UNL     1      57.172 -20.409 -13.732  0.00  0.00    -0.062 A 
ATOM     28  C   UNL     1      57.650 -19.262 -14.364  0.00  0.00    -0.061 A 
ATOM     29  C   UNL     1      58.106 -18.182 -13.605  0.00  0.00    -0.057 A 
ENDBRANCH  23  24
ENDBRANCH  19  23
ENDBRANCH   1  16
TORSDOF 6
ENDMDL
MODEL 9
REMARK VINA RESULT:    -7.055     15.698     20.385
REMARK INTER + INTRA:         -10.429
REMARK INTER:                  -9.564
REMARK INTRA:                  -0.865
REMARK UNBOUND:                -0.899
REMARK  Name = cpd7.pdb
REMARK  8 active torsions:
REMARK  status: ('A' for Active; 'I' for Inactive)
REMARK    1  A    between atoms: C_1  and  O_2
REMARK    2  A    between atoms: O_2  and  C_3
REMARK    3  A    between atoms: C_8  and  O_9
REMARK    4  A    between atoms: O_9  and  C_10
REMARK    5  A    between atoms: C_13  and  C_14
REMARK    6  A    between atoms: C_14  and  C_15
REMARK    7  A    between atoms: N_18  and  C_19
REMARK    8  A    between atoms: C_19  and  C_20
REMARK                            x       y       z     vdW  Elec       q    Type
REMARK                         _______ _______ _______ _____ _____    ______ ____
ROOT
ATOM      1  C   UNL     1      32.885 -37.365 -27.731  0.00  0.00    -0.040 C 
ENDROOT
BRANCH   1  10
ATOM      2  C   UNL     1      33.544 -39.438 -22.078  0.00  0.00    +0.162 A 
ATOM      3  C   UNL     1      33.774 -39.761 -23.431  0.00  0.00    -0.012 A 
ATOM      4  C   UNL     1      33.576 -38.801 -24.405  0.00  0.00    -0.033 A 
ATOM      5  C   UNL     1      33.124 -37.549 -24.038  0.00  0.00    +0.025 A 
ATOM      6  C   UNL     1      32.868 -37.190 -22.725  0.00  0.00    -0.006 A 
ATOM      7  C   UNL     1      33.092 -38.141 -21.720  0.00  0.00    +0.162 A 
ATOM      8  C   UNL     1      33.007 -36.735 -25.239  0.00  0.00    +0.167 C 
ATOM      9  O   UNL     1      32.516 -35.620 -25.237  0.00  0.00    -0.292 OA
ATOM     10  C   UNL     1      33.649 -37.475 -26.406  0.00  0.00    +0.026 C 
ATOM     11  C   UNL     1      33.720 -38.936 -25.887  0.00  0.00    -0.017 C 
BRANCH   2  13
ATOM     12  C   UNL     1      34.325 -41.699 -21.822  0.00  0.00    +0.079 C 
ATOM     13  O   UNL     1      33.802 -40.506 -21.256  0.00  0.00    -0.491 OA
ENDBRANCH   2  13
BRANCH   7  14
ATOM     14  O   UNL     1      32.858 -37.875 -20.396  0.00  0.00    -0.491 OA
ATOM     15  C   UNL     1      31.564 -38.165 -19.881  0.00  0.00    +0.079 C 
ENDBRANCH   7  14
ENDBRANCH   1  10
BRANCH   1  16
ATOM     16  C   UNL     1      33.782 -37.048 -28.952  0.00  0.00    -0.038 C 
ATOM     17  C   UNL     1      34.366 -38.302 -29.606  0.00  0.00    -0.037 C 
ATOM     18  C   UNL     1      35.435 -37.962 -30.643  0.00  0.00    -0.001 C 
ATOM     19  N   UNL     1      36.500 -37.067 -30.170  0.00  0.00    -0.298 N 
ATOM     20  C   UNL     1      36.308 -36.613 -28.789  0.00  0.00    -0.001 C 
ATOM     21  C   UNL     1      34.899 -36.056 -28.573  0.00  0.00    -0.037 C 
ATOM     22  H   UNL     1      36.443 -36.226 -30.744  0.00  0.00    +0.000 HD
BRANCH  19  23
ATOM     23  C   UNL     1      37.830 -37.662 -30.375  0.00  0.00    +0.024 C 
BRANCH  23  24
ATOM     24  C   UNL     1      38.864 -36.670 -30.862  0.00  0.00    -0.033 A 
ATOM     25  C   UNL     1      40.214 -36.835 -30.517  0.00  0.00    -0.057 A 
ATOM     26  C   UNL     1      41.173 -35.915 -30.944  0.00  0.00    -0.061 A 
ATOM     27  C   UNL     1      40.793 -34.825 -31.725  0.00  0.00    -0.062 A 
ATOM     28  C   UNL     1      39.457 -34.656 -32.082  0.00  0.00    -0.061 A 
ATOM     29  C   UNL     1      38.494 -35.573 -31.652  0.00  0.00    -0.057 A 
ENDBRANCH  23  24
ENDBRANCH  19  23
ENDBRANCH   1  16
TORSDOF 6
ENDMDL
MODEL 10
REMARK VINA RESULT:    -6.905     15.579     22.037
REMARK INTER + INTRA:         -10.227
REMARK INTER:                  -9.387
REMARK INTRA:                  -0.840
REMARK UNBOUND:                -0.899
REMARK  Name = cpd7.pdb
REMARK  8 active torsions:
REMARK  status: ('A' for Active; 'I' for Inactive)
REMARK    1  A    between atoms: C_1  and  O_2
REMARK    2  A    between atoms: O_2  and  C_3
REMARK    3  A    between atoms: C_8  and  O_9
REMARK    4  A    between atoms: O_9  and  C_10
REMARK    5  A    between atoms: C_13  and  C_14
REMARK    6  A    between atoms: C_14  and  C_15
REMARK    7  A    between atoms: N_18  and  C_19
REMARK    8  A    between atoms: C_19  and  C_20
REMARK                            x       y       z     vdW  Elec       q    Type
REMARK                         _______ _______ _______ _____ _____    ______ ____
ROOT
ATOM      1  C   UNL     1      33.496 -37.848 -28.257  0.00  0.00    -0.040 C 
ENDROOT
BRANCH   1  10
ATOM      2  C   UNL     1      38.434 -35.871 -31.154  0.00  0.00    +0.162 A 
ATOM      3  C   UNL     1      37.082 -35.568 -30.896  0.00  0.00    -0.012 A 
ATOM      4  C   UNL     1      36.380 -36.312 -29.967  0.00  0.00    -0.033 A 
ATOM      5  C   UNL     1      37.010 -37.364 -29.330  0.00  0.00    +0.025 A 
ATOM      6  C   UNL     1      38.329 -37.710 -29.562  0.00  0.00    -0.006 A 
ATOM      7  C   UNL     1      39.067 -36.947 -30.478  0.00  0.00    +0.162 A 
ATOM      8  C   UNL     1      36.062 -37.972 -28.407  0.00  0.00    +0.167 C 
ATOM      9  O   UNL     1      36.301 -38.998 -27.795  0.00  0.00    -0.292 OA
ATOM     10  C   UNL     1      34.826 -37.086 -28.308  0.00  0.00    +0.026 C 
ATOM     11  C   UNL     1      34.944 -36.192 -29.571  0.00  0.00    -0.017 C 
BRANCH   2  13
ATOM     12  C   UNL     1      38.786 -33.624 -31.938  0.00  0.00    +0.079 C 
ATOM     13  O   UNL     1      38.969 -35.023 -32.092  0.00  0.00    -0.491 OA
ENDBRANCH   2  13
BRANCH   7  14
ATOM     14  O   UNL     1      40.375 -37.223 -30.775  0.00  0.00    -0.491 OA
ATOM     15  C   UNL     1      41.134 -37.948 -29.813  0.00  0.00    +0.079 C 
ENDBRANCH   7  14
ENDBRANCH   1  10
BRANCH   1  16
ATOM     16  C   UNL     1      32.652 -37.559 -26.992  0.00  0.00    -0.038 C 
ATOM     17  C   UNL     1      32.970 -36.202 -26.360  0.00  0.00    -0.037 C 
ATOM     18  C   UNL     1      32.315 -36.043 -24.988  0.00  0.00    -0.001 C 
ATOM     19  N   UNL     1      32.570 -37.139 -24.044  0.00  0.00    -0.298 N 
ATOM     20  C   UNL     1      33.369 -38.227 -24.618  0.00  0.00    -0.001 C 
ATOM     21  C   UNL     1      32.799 -38.694 -25.959  0.00  0.00    -0.037 C 
ATOM     22  H   UNL     1      31.662 -37.551 -23.832  0.00  0.00    +0.000 HD
BRANCH  19  23
ATOM     23  C   UNL     1      33.144 -36.639 -22.785  0.00  0.00    +0.024 C 
BRANCH  23  24
ATOM     24  C   UNL     1      33.171 -37.677 -21.684  0.00  0.00    -0.033 A 
ATOM     25  C   UNL     1      31.970 -38.177 -21.159  0.00  0.00    -0.057 A 
ATOM     26  C   UNL     1      31.983 -39.120 -20.129  0.00  0.00    -0.061 A 
ATOM     27  C   UNL     1      33.197 -39.577 -19.620  0.00  0.00    -0.062 A 
ATOM     28  C   UNL     1      34.397 -39.095 -20.140  0.00  0.00    -0.061 A 
ATOM     29  C   UNL     1      34.386 -38.148 -21.167  0.00  0.00    -0.057 A 
ENDBRANCH  23  24
ENDBRANCH  19  23
ENDBRANCH   1  16
TORSDOF 6
ENDMDL
MODEL 11
REMARK VINA RESULT:    -6.780      3.392      8.606
REMARK INTER + INTRA:         -10.057
REMARK INTER:                  -9.263
REMARK INTRA:                  -0.794
REMARK UNBOUND:                -0.899
REMARK  Name = cpd7.pdb
REMARK  8 active torsions:
REMARK  status: ('A' for Active; 'I' for Inactive)
REMARK    1  A    between atoms: C_1  and  O_2
REMARK    2  A    between atoms: O_2  and  C_3
REMARK    3  A    between atoms: C_8  and  O_9
REMARK    4  A    between atoms: O_9  and  C_10
REMARK    5  A    between atoms: C_13  and  C_14
REMARK    6  A    between atoms: C_14  and  C_15
REMARK    7  A    between atoms: N_18  and  C_19
REMARK    8  A    between atoms: C_19  and  C_20
REMARK                            x       y       z     vdW  Elec       q    Type
REMARK                         _______ _______ _______ _____ _____    ______ ____
ROOT
ATOM      1  C   UNL     1      40.036 -20.924 -38.767  0.00  0.00    -0.040 C 
ENDROOT
BRANCH   1  10
ATOM      2  C   UNL     1      46.029 -20.381 -39.466  0.00  0.00    +0.162 A 
ATOM      3  C   UNL     1      44.990 -20.275 -38.518  0.00  0.00    -0.012 A 
ATOM      4  C   UNL     1      43.717 -20.695 -38.851  0.00  0.00    -0.033 A 
ATOM      5  C   UNL     1      43.476 -21.181 -40.122  0.00  0.00    +0.025 A 
ATOM      6  C   UNL     1      44.459 -21.288 -41.091  0.00  0.00    -0.006 A 
ATOM      7  C   UNL     1      45.764 -20.896 -40.762  0.00  0.00    +0.162 A 
ATOM      8  C   UNL     1      42.072 -21.556 -40.210  0.00  0.00    +0.167 C 
ATOM      9  O   UNL     1      41.545 -21.905 -41.251  0.00  0.00    -0.292 OA
ATOM     10  C   UNL     1      41.456 -21.503 -38.817  0.00  0.00    +0.026 C 
ATOM     11  C   UNL     1      42.472 -20.639 -38.025  0.00  0.00    -0.017 C 
BRANCH   2  13
ATOM     12  C   UNL     1      47.228 -19.281 -37.694  0.00  0.00    +0.079 C 
ATOM     13  O   UNL     1      47.221 -19.928 -38.958  0.00  0.00    -0.491 OA
ENDBRANCH   2  13
BRANCH   7  14
ATOM     14  O   UNL     1      46.796 -20.960 -41.661  0.00  0.00    -0.491 OA
ATOM     15  C   UNL     1      47.475 -22.202 -41.803  0.00  0.00    +0.079 C 
ENDBRANCH   7  14
ENDBRANCH   1  10
BRANCH   1  16
ATOM     16  C   UNL     1      39.163 -21.491 -37.623  0.00  0.00    -0.038 C 
ATOM     17  C   UNL     1      38.993 -20.511 -36.460  0.00  0.00    -0.037 C 
ATOM     18  C   UNL     1      38.343 -21.172 -35.245  0.00  0.00    -0.001 C 
ATOM     19  N   UNL     1      38.981 -22.418 -34.797  0.00  0.00    -0.298 N 
ATOM     20  C   UNL     1      40.103 -22.834 -35.645  0.00  0.00    -0.001 C 
ATOM     21  C   UNL     1      39.715 -22.842 -37.125  0.00  0.00    -0.037 C 
ATOM     22  H   UNL     1      38.278 -23.150 -34.896  0.00  0.00    +0.000 HD
BRANCH  19  23
ATOM     23  C   UNL     1      39.359 -22.345 -33.378  0.00  0.00    +0.024 C 
BRANCH  23  24
ATOM     24  C   UNL     1      40.041 -21.047 -33.004  0.00  0.00    -0.033 A 
ATOM     25  C   UNL     1      39.305 -20.013 -32.405  0.00  0.00    -0.057 A 
ATOM     26  C   UNL     1      39.919 -18.804 -32.074  0.00  0.00    -0.061 A 
ATOM     27  C   UNL     1      41.277 -18.620 -32.331  0.00  0.00    -0.062 A 
ATOM     28  C   UNL     1      42.021 -19.642 -32.916  0.00  0.00    -0.061 A 
ATOM     29  C   UNL     1      41.407 -20.852 -33.253  0.00  0.00    -0.057 A 
ENDBRANCH  23  24
ENDBRANCH  19  23
ENDBRANCH   1  16
TORSDOF 6
ENDMDL
MODEL 12
REMARK VINA RESULT:    -6.760      2.453      3.940
REMARK INTER + INTRA:         -10.030
REMARK INTER:                  -9.405
REMARK INTRA:                  -0.626
REMARK UNBOUND:                -0.899
REMARK  Name = cpd7.pdb
REMARK  8 active torsions:
REMARK  status: ('A' for Active; 'I' for Inactive)
REMARK    1  A    between atoms: C_1  and  O_2
REMARK    2  A    between atoms: O_2  and  C_3
REMARK    3  A    between atoms: C_8  and  O_9
REMARK    4  A    between atoms: O_9  and  C_10
REMARK    5  A    between atoms: C_13  and  C_14
REMARK    6  A    between atoms: C_14  and  C_15
REMARK    7  A    between atoms: N_18  and  C_19
REMARK    8  A    between atoms: C_19  and  C_20
REMARK                            x       y       z     vdW  Elec       q    Type
REMARK                         _______ _______ _______ _____ _____    ______ ____
ROOT
ATOM      1  C   UNL     1      45.359 -17.683 -36.141  0.00  0.00    -0.040 C 
ENDROOT
BRANCH   1  10
ATOM      2  C   UNL     1      40.569 -21.193 -34.948  0.00  0.00    +0.162 A 
ATOM      3  C   UNL     1      41.263 -20.551 -35.994  0.00  0.00    -0.012 A 
ATOM      4  C   UNL     1      42.487 -19.962 -35.740  0.00  0.00    -0.033 A 
ATOM      5  C   UNL     1      42.994 -19.986 -34.456  0.00  0.00    +0.025 A 
ATOM      6  C   UNL     1      42.343 -20.589 -33.394  0.00  0.00    -0.006 A 
ATOM      7  C   UNL     1      41.114 -21.219 -33.638  0.00  0.00    +0.162 A 
ATOM      8  C   UNL     1      44.285 -19.311 -34.462  0.00  0.00    +0.167 C 
ATOM      9  O   UNL     1      44.911 -19.073 -33.445  0.00  0.00    -0.292 OA
ATOM     10  C   UNL     1      44.702 -19.049 -35.904  0.00  0.00    +0.026 C 
ATOM     11  C   UNL     1      43.366 -19.202 -36.680  0.00  0.00    -0.017 C 
BRANCH   2  13
ATOM     12  C   UNL     1      39.410 -22.905 -36.180  0.00  0.00    +0.079 C 
ATOM     13  O   UNL     1      39.382 -21.728 -35.387  0.00  0.00    -0.491 OA
ENDBRANCH   2  13
BRANCH   7  14
ATOM     14  O   UNL     1      40.397 -21.833 -32.646  0.00  0.00    -0.491 OA
ATOM     15  C   UNL     1      40.925 -23.033 -32.093  0.00  0.00    +0.079 C 
ENDBRANCH   7  14
ENDBRANCH   1  10
BRANCH   1  16
ATOM     16  C   UNL     1      46.456 -17.693 -37.233  0.00  0.00    -0.038 C 
ATOM     17  C   UNL     1      46.088 -16.849 -38.456  0.00  0.00    -0.037 C 
ATOM     18  C   UNL     1      47.060 -17.068 -39.615  0.00  0.00    -0.001 C 
ATOM     19  N   UNL     1      47.281 -18.472 -39.987  0.00  0.00    -0.298 N 
ATOM     20  C   UNL     1      46.563 -19.421 -39.130  0.00  0.00    -0.001 C 
ATOM     21  C   UNL     1      46.810 -19.135 -37.647  0.00  0.00    -0.037 C 
ATOM     22  H   UNL     1      48.271 -18.657 -39.830  0.00  0.00    +0.000 HD
BRANCH  19  23
ATOM     23  C   UNL     1      47.002 -18.697 -41.414  0.00  0.00    +0.024 C 
BRANCH  23  24
ATOM     24  C   UNL     1      46.833 -20.159 -41.769  0.00  0.00    -0.033 A 
ATOM     25  C   UNL     1      45.611 -20.622 -42.280  0.00  0.00    -0.057 A 
ATOM     26  C   UNL     1      45.437 -21.971 -42.592  0.00  0.00    -0.061 A 
ATOM     27  C   UNL     1      46.485 -22.869 -42.403  0.00  0.00    -0.062 A 
ATOM     28  C   UNL     1      47.707 -22.421 -41.905  0.00  0.00    -0.061 A 
ATOM     29  C   UNL     1      47.882 -21.071 -41.588  0.00  0.00    -0.057 A 
ENDBRANCH  23  24
ENDBRANCH  19  23
ENDBRANCH   1  16
TORSDOF 6
ENDMDL
MODEL 13
REMARK VINA RESULT:    -6.752     15.245     16.895
REMARK INTER + INTRA:         -10.020
REMARK INTER:                  -9.586
REMARK INTRA:                  -0.434
REMARK UNBOUND:                -0.899
REMARK  Name = cpd7.pdb
REMARK  8 active torsions:
REMARK  status: ('A' for Active; 'I' for Inactive)
REMARK    1  A    between atoms: C_1  and  O_2
REMARK    2  A    between atoms: O_2  and  C_3
REMARK    3  A    between atoms: C_8  and  O_9
REMARK    4  A    between atoms: O_9  and  C_10
REMARK    5  A    between atoms: C_13  and  C_14
REMARK    6  A    between atoms: C_14  and  C_15
REMARK    7  A    between atoms: N_18  and  C_19
REMARK    8  A    between atoms: C_19  and  C_20
REMARK                            x       y       z     vdW  Elec       q    Type
REMARK                         _______ _______ _______ _____ _____    ______ ____
ROOT
ATOM      1  C   UNL     1      34.125 -33.053 -29.747  0.00  0.00    -0.040 C 
ENDROOT
BRANCH   1  10
ATOM      2  C   UNL     1      28.976 -30.178 -28.365  0.00  0.00    +0.162 A 
ATOM      3  C   UNL     1      30.256 -29.991 -28.926  0.00  0.00    -0.012 A 
ATOM      4  C   UNL     1      31.055 -31.088 -29.184  0.00  0.00    -0.033 A 
ATOM      5  C   UNL     1      30.597 -32.349 -28.856  0.00  0.00    +0.025 A 
ATOM      6  C   UNL     1      29.356 -32.581 -28.288  0.00  0.00    -0.006 A 
ATOM      7  C   UNL     1      28.518 -31.483 -28.048  0.00  0.00    +0.162 A 
ATOM      8  C   UNL     1      31.617 -33.318 -29.233  0.00  0.00    +0.167 C 
ATOM      9  O   UNL     1      31.540 -34.501 -28.953  0.00  0.00    -0.292 OA
ATOM     10  C   UNL     1      32.688 -32.616 -30.059  0.00  0.00    +0.026 C 
ATOM     11  C   UNL     1      32.445 -31.118 -29.733  0.00  0.00    -0.017 C 
BRANCH   2  13
ATOM     12  C   UNL     1      27.653 -28.397 -29.296  0.00  0.00    +0.079 C 
ATOM     13  O   UNL     1      28.324 -28.982 -28.190  0.00  0.00    -0.491 OA
ENDBRANCH   2  13
BRANCH   7  14
ATOM     14  O   UNL     1      27.278 -31.620 -27.482  0.00  0.00    -0.491 OA
ATOM     15  C   UNL     1      26.175 -31.848 -28.351  0.00  0.00    +0.079 C 
ENDBRANCH   7  14
ENDBRANCH   1  10
BRANCH   1  16
ATOM     16  C   UNL     1      34.682 -34.125 -30.715  0.00  0.00    -0.038 C 
ATOM     17  C   UNL     1      34.672 -35.533 -30.115  0.00  0.00    -0.037 C 
ATOM     18  C   UNL     1      35.446 -36.528 -30.979  0.00  0.00    -0.001 C 
ATOM     19  N   UNL     1      36.810 -36.114 -31.337  0.00  0.00    -0.298 N 
ATOM     20  C   UNL     1      37.162 -34.780 -30.841  0.00  0.00    -0.001 C 
ATOM     21  C   UNL     1      36.094 -33.746 -31.204  0.00  0.00    -0.037 C 
ATOM     22  H   UNL     1      36.829 -36.041 -32.354  0.00  0.00    +0.000 HD
BRANCH  19  23
ATOM     23  C   UNL     1      37.799 -37.128 -30.940  0.00  0.00    +0.024 C 
BRANCH  23  24
ATOM     24  C   UNL     1      39.218 -36.765 -31.320  0.00  0.00    -0.033 A 
ATOM     25  C   UNL     1      39.470 -36.072 -32.514  0.00  0.00    -0.057 A 
ATOM     26  C   UNL     1      40.776 -35.749 -32.885  0.00  0.00    -0.061 A 
ATOM     27  C   UNL     1      41.843 -36.110 -32.063  0.00  0.00    -0.062 A 
ATOM     28  C   UNL     1      41.604 -36.790 -30.870  0.00  0.00    -0.061 A 
ATOM     29  C   UNL     1      40.298 -37.118 -30.499  0.00  0.00    -0.057 A 
ENDBRANCH  23  24
ENDBRANCH  19  23
ENDBRANCH   1  16
TORSDOF 6
ENDMDL
MODEL 14
REMARK VINA RESULT:    -6.717      3.377      9.275
REMARK INTER + INTRA:          -9.972
REMARK INTER:                  -9.353
REMARK INTRA:                  -0.619
REMARK UNBOUND:                -0.899
REMARK  Name = cpd7.pdb
REMARK  8 active torsions:
REMARK  status: ('A' for Active; 'I' for Inactive)
REMARK    1  A    between atoms: C_1  and  O_2
REMARK    2  A    between atoms: O_2  and  C_3
REMARK    3  A    between atoms: C_8  and  O_9
REMARK    4  A    between atoms: O_9  and  C_10
REMARK    5  A    between atoms: C_13  and  C_14
REMARK    6  A    between atoms: C_14  and  C_15
REMARK    7  A    between atoms: N_18  and  C_19
REMARK    8  A    between atoms: C_19  and  C_20
REMARK                            x       y       z     vdW  Elec       q    Type
REMARK                         _______ _______ _______ _____ _____    ______ ____
ROOT
ATOM      1  C   UNL     1      40.402 -20.882 -38.350  0.00  0.00    -0.040 C 
ENDROOT
BRANCH   1  10
ATOM      2  C   UNL     1      46.091 -21.025 -40.426  0.00  0.00    +0.162 A 
ATOM      3  C   UNL     1      44.945 -21.822 -40.220  0.00  0.00    -0.012 A 
ATOM      4  C   UNL     1      43.758 -21.225 -39.840  0.00  0.00    -0.033 A 
ATOM      5  C   UNL     1      43.724 -19.859 -39.636  0.00  0.00    +0.025 A 
ATOM      6  C   UNL     1      44.825 -19.039 -39.809  0.00  0.00    -0.006 A 
ATOM      7  C   UNL     1      46.030 -19.621 -40.225  0.00  0.00    +0.162 A 
ATOM      8  C   UNL     1      42.369 -19.489 -39.252  0.00  0.00    +0.167 C 
ATOM      9  O   UNL     1      42.068 -18.365 -38.893  0.00  0.00    -0.292 OA
ATOM     10  C   UNL     1      41.450 -20.688 -39.453  0.00  0.00    +0.026 C 
ATOM     11  C   UNL     1      42.448 -21.875 -39.532  0.00  0.00    -0.017 C 
BRANCH   2  13
ATOM     12  C   UNL     1      46.966 -23.152 -41.132  0.00  0.00    +0.079 C 
ATOM     13  O   UNL     1      47.168 -21.784 -40.810  0.00  0.00    -0.491 OA
ENDBRANCH   2  13
BRANCH   7  14
ATOM     14  O   UNL     1      47.171 -18.886 -40.413  0.00  0.00    -0.491 OA
ATOM     15  C   UNL     1      47.058 -17.657 -41.121  0.00  0.00    +0.079 C 
ENDBRANCH   7  14
ENDBRANCH   1  10
BRANCH   1  16
ATOM     16  C   UNL     1      40.896 -21.730 -37.153  0.00  0.00    -0.038 C 
ATOM     17  C   UNL     1      39.753 -22.396 -36.382  0.00  0.00    -0.037 C 
ATOM     18  C   UNL     1      40.234 -23.018 -35.071  0.00  0.00    -0.001 C 
ATOM     19  N   UNL     1      41.008 -22.121 -34.202  0.00  0.00    -0.298 N 
ATOM     20  C   UNL     1      41.229 -20.793 -34.785  0.00  0.00    -0.001 C 
ATOM     21  C   UNL     1      41.779 -20.890 -36.209  0.00  0.00    -0.037 C 
ATOM     22  H   UNL     1      41.935 -22.537 -34.114  0.00  0.00    +0.000 HD
BRANCH  19  23
ATOM     23  C   UNL     1      40.420 -22.041 -32.856  0.00  0.00    +0.024 C 
BRANCH  23  24
ATOM     24  C   UNL     1      39.183 -21.171 -32.792  0.00  0.00    -0.033 A 
ATOM     25  C   UNL     1      37.912 -21.742 -32.949  0.00  0.00    -0.057 A 
ATOM     26  C   UNL     1      36.766 -20.947 -32.912  0.00  0.00    -0.061 A 
ATOM     27  C   UNL     1      36.879 -19.573 -32.709  0.00  0.00    -0.062 A 
ATOM     28  C   UNL     1      38.136 -18.994 -32.541  0.00  0.00    -0.061 A 
ATOM     29  C   UNL     1      39.285 -19.788 -32.583  0.00  0.00    -0.057 A 
ENDBRANCH  23  24
ENDBRANCH  19  23
ENDBRANCH   1  16
TORSDOF 6
ENDMDL
MODEL 15
REMARK VINA RESULT:    -6.489      2.260      3.224
REMARK INTER + INTRA:          -9.665
REMARK INTER:                  -8.647
REMARK INTRA:                  -1.017
REMARK UNBOUND:                -0.899
REMARK  Name = cpd7.pdb
REMARK  8 active torsions:
REMARK  status: ('A' for Active; 'I' for Inactive)
REMARK    1  A    between atoms: C_1  and  O_2
REMARK    2  A    between atoms: O_2  and  C_3
REMARK    3  A    between atoms: C_8  and  O_9
REMARK    4  A    between atoms: O_9  and  C_10
REMARK    5  A    between atoms: C_13  and  C_14
REMARK    6  A    between atoms: C_14  and  C_15
REMARK    7  A    between atoms: N_18  and  C_19
REMARK    8  A    between atoms: C_19  and  C_20
REMARK                            x       y       z     vdW  Elec       q    Type
REMARK                         _______ _______ _______ _____ _____    ______ ____
ROOT
ATOM      1  C   UNL     1      44.964 -18.268 -34.947  0.00  0.00    -0.040 C 
ENDROOT
BRANCH   1  10
ATOM      2  C   UNL     1      40.180 -21.354 -32.878  0.00  0.00    +0.162 A 
ATOM      3  C   UNL     1      41.582 -21.409 -33.019  0.00  0.00    -0.012 A 
ATOM      4  C   UNL     1      42.270 -20.288 -33.442  0.00  0.00    -0.033 A 
ATOM      5  C   UNL     1      41.566 -19.141 -33.752  0.00  0.00    +0.025 A 
ATOM      6  C   UNL     1      40.189 -19.044 -33.646  0.00  0.00    -0.006 A 
ATOM      7  C   UNL     1      39.477 -20.161 -33.189  0.00  0.00    +0.162 A 
ATOM      8  C   UNL     1      42.518 -18.117 -34.161  0.00  0.00    +0.167 C 
ATOM      9  O   UNL     1      42.176 -17.037 -34.607  0.00  0.00    -0.292 OA
ATOM     10  C   UNL     1      43.931 -18.606 -33.864  0.00  0.00    +0.026 C 
ATOM     11  C   UNL     1      43.736 -20.137 -33.695  0.00  0.00    -0.017 C 
BRANCH   2  13
ATOM     12  C   UNL     1      39.375 -23.563 -33.391  0.00  0.00    +0.079 C 
ATOM     13  O   UNL     1      39.672 -22.552 -32.439  0.00  0.00    -0.491 OA
ENDBRANCH   2  13
BRANCH   7  14
ATOM     14  O   UNL     1      38.113 -20.157 -33.062  0.00  0.00    -0.491 OA
ATOM     15  C   UNL     1      37.337 -20.404 -34.229  0.00  0.00    +0.079 C 
ENDBRANCH   7  14
ENDBRANCH   1  10
BRANCH   1  16
ATOM     16  C   UNL     1      44.821 -19.107 -36.239  0.00  0.00    -0.038 C 
ATOM     17  C   UNL     1      46.084 -19.905 -36.574  0.00  0.00    -0.037 C 
ATOM     18  C   UNL     1      46.014 -20.526 -37.970  0.00  0.00    -0.001 C 
ATOM     19  N   UNL     1      45.675 -19.591 -39.052  0.00  0.00    -0.298 N 
ATOM     20  C   UNL     1      45.406 -18.229 -38.580  0.00  0.00    -0.001 C 
ATOM     21  C   UNL     1      44.399 -18.222 -37.428  0.00  0.00    -0.037 C 
ATOM     22  H   UNL     1      44.796 -19.921 -39.449  0.00  0.00    +0.000 HD
BRANCH  19  23
ATOM     23  C   UNL     1      46.689 -19.616 -40.117  0.00  0.00    +0.024 C 
BRANCH  23  24
ATOM     24  C   UNL     1      46.680 -20.895 -40.925  0.00  0.00    -0.033 A 
ATOM     25  C   UNL     1      45.604 -21.180 -41.779  0.00  0.00    -0.057 A 
ATOM     26  C   UNL     1      45.576 -22.366 -42.514  0.00  0.00    -0.061 A 
ATOM     27  C   UNL     1      46.626 -23.276 -42.408  0.00  0.00    -0.062 A 
ATOM     28  C   UNL     1      47.705 -23.000 -41.571  0.00  0.00    -0.061 A 
ATOM     29  C   UNL     1      47.734 -21.816 -40.831  0.00  0.00    -0.057 A 
ENDBRANCH  23  24
ENDBRANCH  19  23
ENDBRANCH   1  16
TORSDOF 6
ENDMDL
MODEL 16
REMARK VINA RESULT:    -6.486      2.574      3.586
REMARK INTER + INTRA:          -9.660
REMARK INTER:                  -8.692
REMARK INTRA:                  -0.968
REMARK UNBOUND:                -0.899
REMARK  Name = cpd7.pdb
REMARK  8 active torsions:
REMARK  status: ('A' for Active; 'I' for Inactive)
REMARK    1  A    between atoms: C_1  and  O_2
REMARK    2  A    between atoms: O_2  and  C_3
REMARK    3  A    between atoms: C_8  and  O_9
REMARK    4  A    between atoms: O_9  and  C_10
REMARK    5  A    between atoms: C_13  and  C_14
REMARK    6  A    between atoms: C_14  and  C_15
REMARK    7  A    between atoms: N_18  and  C_19
REMARK    8  A    between atoms: C_19  and  C_20
REMARK                            x       y       z     vdW  Elec       q    Type
REMARK                         _______ _______ _______ _____ _____    ______ ____
ROOT
ATOM      1  C   UNL     1      43.714 -18.453 -33.946  0.00  0.00    -0.040 C 
ENDROOT
BRANCH   1  10
ATOM      2  C   UNL     1      38.690 -21.631 -32.785  0.00  0.00    +0.162 A 
ATOM      3  C   UNL     1      40.089 -21.744 -32.923  0.00  0.00    -0.012 A 
ATOM      4  C   UNL     1      40.858 -20.602 -33.036  0.00  0.00    -0.033 A 
ATOM      5  C   UNL     1      40.237 -19.368 -33.046  0.00  0.00    +0.025 A 
ATOM      6  C   UNL     1      38.868 -19.207 -32.930  0.00  0.00    -0.006 A 
ATOM      7  C   UNL     1      38.073 -20.353 -32.783  0.00  0.00    +0.162 A 
ATOM      8  C   UNL     1      41.263 -18.341 -33.168  0.00  0.00    +0.167 C 
ATOM      9  O   UNL     1      41.003 -17.162 -33.323  0.00  0.00    -0.292 OA
ATOM     10  C   UNL     1      42.634 -18.986 -32.997  0.00  0.00    +0.026 C 
ATOM     11  C   UNL     1      42.337 -20.491 -33.230  0.00  0.00    -0.017 C 
BRANCH   2  13
ATOM     12  C   UNL     1      38.199 -23.777 -33.756  0.00  0.00    +0.079 C 
ATOM     13  O   UNL     1      38.095 -22.863 -32.674  0.00  0.00    -0.491 OA
ENDBRANCH   2  13
BRANCH   7  14
ATOM     14  O   UNL     1      36.710 -20.288 -32.670  0.00  0.00    -0.491 OA
ATOM     15  C   UNL     1      36.102 -19.001 -32.704  0.00  0.00    +0.079 C 
ENDBRANCH   7  14
ENDBRANCH   1  10
BRANCH   1  16
ATOM     16  C   UNL     1      43.929 -19.322 -35.208  0.00  0.00    -0.038 C 
ATOM     17  C   UNL     1      45.405 -19.468 -35.587  0.00  0.00    -0.037 C 
ATOM     18  C   UNL     1      45.581 -20.114 -36.961  0.00  0.00    -0.001 C 
ATOM     19  N   UNL     1      44.815 -19.489 -38.047  0.00  0.00    -0.298 N 
ATOM     20  C   UNL     1      43.966 -18.381 -37.597  0.00  0.00    -0.001 C 
ATOM     21  C   UNL     1      43.108 -18.783 -36.396  0.00  0.00    -0.037 C 
ATOM     22  H   UNL     1      44.173 -20.202 -38.392  0.00  0.00    +0.000 HD
BRANCH  19  23
ATOM     23  C   UNL     1      45.691 -19.095 -39.162  0.00  0.00    +0.024 C 
BRANCH  23  24
ATOM     24  C   UNL     1      45.430 -19.873 -40.434  0.00  0.00    -0.033 A 
ATOM     25  C   UNL     1      44.804 -19.250 -41.524  0.00  0.00    -0.057 A 
ATOM     26  C   UNL     1      44.540 -19.964 -42.694  0.00  0.00    -0.061 A 
ATOM     27  C   UNL     1      44.908 -21.305 -42.789  0.00  0.00    -0.062 A 
ATOM     28  C   UNL     1      45.539 -21.932 -41.718  0.00  0.00    -0.061 A 
ATOM     29  C   UNL     1      45.800 -21.221 -40.543  0.00  0.00    -0.057 A 
ENDBRANCH  23  24
ENDBRANCH  19  23
ENDBRANCH   1  16
TORSDOF 6
ENDMDL
MODEL 17
REMARK VINA RESULT:    -6.422     15.896     17.288
REMARK INTER + INTRA:          -9.574
REMARK INTER:                  -8.772
REMARK INTRA:                  -0.802
REMARK UNBOUND:                -0.899
REMARK  Name = cpd7.pdb
REMARK  8 active torsions:
REMARK  status: ('A' for Active; 'I' for Inactive)
REMARK    1  A    between atoms: C_1  and  O_2
REMARK    2  A    between atoms: O_2  and  C_3
REMARK    3  A    between atoms: C_8  and  O_9
REMARK    4  A    between atoms: O_9  and  C_10
REMARK    5  A    between atoms: C_13  and  C_14
REMARK    6  A    between atoms: C_14  and  C_15
REMARK    7  A    between atoms: N_18  and  C_19
REMARK    8  A    between atoms: C_19  and  C_20
REMARK                            x       y       z     vdW  Elec       q    Type
REMARK                         _______ _______ _______ _____ _____    ______ ____
ROOT
ATOM      1  C   UNL     1      30.212 -32.330 -31.680  0.00  0.00    -0.040 C 
ENDROOT
BRANCH   1  10
ATOM      2  C   UNL     1      27.667 -28.470 -27.767  0.00  0.00    +0.162 A 
ATOM      3  C   UNL     1      28.323 -29.715 -27.857  0.00  0.00    -0.012 A 
ATOM      4  C   UNL     1      28.896 -30.099 -29.054  0.00  0.00    -0.033 A 
ATOM      5  C   UNL     1      28.787 -29.269 -30.153  0.00  0.00    +0.025 A 
ATOM      6  C   UNL     1      28.139 -28.046 -30.118  0.00  0.00    -0.006 A 
ATOM      7  C   UNL     1      27.578 -27.625 -28.904  0.00  0.00    +0.162 A 
ATOM      8  C   UNL     1      29.474 -29.899 -31.272  0.00  0.00    +0.167 C 
ATOM      9  O   UNL     1      29.441 -29.452 -32.404  0.00  0.00    -0.292 OA
ATOM     10  C   UNL     1      30.255 -31.103 -30.760  0.00  0.00    +0.026 C 
ATOM     11  C   UNL     1      29.598 -31.378 -29.382  0.00  0.00    -0.017 C 
BRANCH   2  13
ATOM     12  C   UNL     1      27.260 -29.294 -25.544  0.00  0.00    +0.079 C 
ATOM     13  O   UNL     1      27.172 -28.253 -26.505  0.00  0.00    -0.491 OA
ENDBRANCH   2  13
BRANCH   7  14
ATOM     14  O   UNL     1      26.912 -26.434 -28.781  0.00  0.00    -0.491 OA
ATOM     15  C   UNL     1      27.620 -25.333 -28.222  0.00  0.00    +0.079 C 
ENDBRANCH   7  14
ENDBRANCH   1  10
BRANCH   1  16
ATOM     16  C   UNL     1      31.576 -33.041 -31.848  0.00  0.00    -0.038 C 
ATOM     17  C   UNL     1      31.566 -34.482 -31.331  0.00  0.00    -0.037 C 
ATOM     18  C   UNL     1      32.971 -35.080 -31.276  0.00  0.00    -0.001 C 
ATOM     19  N   UNL     1      33.967 -34.269 -30.562  0.00  0.00    -0.298 N 
ATOM     20  C   UNL     1      33.436 -32.991 -30.077  0.00  0.00    -0.001 C 
ATOM     21  C   UNL     1      32.707 -32.229 -31.185  0.00  0.00    -0.037 C 
ATOM     22  H   UNL     1      34.682 -34.025 -31.247  0.00  0.00    +0.000 HD
BRANCH  19  23
ATOM     23  C   UNL     1      34.616 -35.040 -29.490  0.00  0.00    +0.024 C 
BRANCH  23  24
ATOM     24  C   UNL     1      35.982 -35.567 -29.871  0.00  0.00    -0.033 A 
ATOM     25  C   UNL     1      36.619 -35.096 -31.030  0.00  0.00    -0.057 A 
ATOM     26  C   UNL     1      37.870 -35.590 -31.402  0.00  0.00    -0.061 A 
ATOM     27  C   UNL     1      38.500 -36.553 -30.617  0.00  0.00    -0.062 A 
ATOM     28  C   UNL     1      37.882 -37.021 -29.459  0.00  0.00    -0.061 A 
ATOM     29  C   UNL     1      36.628 -36.532 -29.086  0.00  0.00    -0.057 A 
ENDBRANCH  23  24
ENDBRANCH  19  23
ENDBRANCH   1  16
TORSDOF 6
ENDMDL
MODEL 18
REMARK VINA RESULT:    -6.394     16.167     18.884
REMARK INTER + INTRA:          -9.536
REMARK INTER:                  -8.693
REMARK INTRA:                  -0.843
REMARK UNBOUND:                -0.899
REMARK  Name = cpd7.pdb
REMARK  8 active torsions:
REMARK  status: ('A' for Active; 'I' for Inactive)
REMARK    1  A    between atoms: C_1  and  O_2
REMARK    2  A    between atoms: O_2  and  C_3
REMARK    3  A    between atoms: C_8  and  O_9
REMARK    4  A    between atoms: O_9  and  C_10
REMARK    5  A    between atoms: C_13  and  C_14
REMARK    6  A    between atoms: C_14  and  C_15
REMARK    7  A    between atoms: N_18  and  C_19
REMARK    8  A    between atoms: C_19  and  C_20
REMARK                            x       y       z     vdW  Elec       q    Type
REMARK                         _______ _______ _______ _____ _____    ______ ____
ROOT
ATOM      1  C   UNL     1      34.170 -33.656 -31.798  0.00  0.00    -0.040 C 
ENDROOT
BRANCH   1  10
ATOM      2  C   UNL     1      37.330 -37.979 -28.966  0.00  0.00    +0.162 A 
ATOM      3  C   UNL     1      37.465 -36.804 -29.735  0.00  0.00    -0.012 A 
ATOM      4  C   UNL     1      36.348 -36.042 -30.018  0.00  0.00    -0.033 A 
ATOM      5  C   UNL     1      35.111 -36.463 -29.569  0.00  0.00    +0.025 A 
ATOM      6  C   UNL     1      34.927 -37.616 -28.826  0.00  0.00    -0.006 A 
ATOM      7  C   UNL     1      36.053 -38.387 -28.503  0.00  0.00    +0.162 A 
ATOM      8  C   UNL     1      34.115 -35.488 -29.992  0.00  0.00    +0.167 C 
ATOM      9  O   UNL     1      32.919 -35.658 -29.841  0.00  0.00    -0.292 OA
ATOM     10  C   UNL     1      34.827 -34.262 -30.551  0.00  0.00    +0.026 C 
ATOM     11  C   UNL     1      36.255 -34.796 -30.839  0.00  0.00    -0.017 C 
BRANCH   2  13
ATOM     12  C   UNL     1      39.731 -37.890 -29.096  0.00  0.00    +0.079 C 
ATOM     13  O   UNL     1      38.542 -38.597 -28.777  0.00  0.00    -0.491 OA
ENDBRANCH   2  13
BRANCH   7  14
ATOM     14  O   UNL     1      35.962 -39.546 -27.779  0.00  0.00    -0.491 OA
ATOM     15  C   UNL     1      35.026 -40.527 -28.213  0.00  0.00    +0.079 C 
ENDBRANCH   7  14
ENDBRANCH   1  10
BRANCH   1  16
ATOM     16  C   UNL     1      33.166 -32.519 -31.493  0.00  0.00    -0.038 C 
ATOM     17  C   UNL     1      33.430 -31.835 -30.148  0.00  0.00    -0.037 C 
ATOM     18  C   UNL     1      32.293 -30.893 -29.753  0.00  0.00    -0.001 C 
ATOM     19  N   UNL     1      30.949 -31.487 -29.791  0.00  0.00    -0.298 N 
ATOM     20  C   UNL     1      30.940 -32.875 -30.263  0.00  0.00    -0.001 C 
ATOM     21  C   UNL     1      31.713 -33.028 -31.574  0.00  0.00    -0.037 C 
ATOM     22  H   UNL     1      30.423 -30.959 -30.487  0.00  0.00    +0.000 HD
BRANCH  19  23
ATOM     23  C   UNL     1      30.262 -31.339 -28.499  0.00  0.00    +0.024 C 
BRANCH  23  24
ATOM     24  C   UNL     1      29.249 -30.214 -28.483  0.00  0.00    -0.033 A 
ATOM     25  C   UNL     1      28.453 -30.001 -27.347  0.00  0.00    -0.057 A 
ATOM     26  C   UNL     1      27.502 -28.980 -27.328  0.00  0.00    -0.061 A 
ATOM     27  C   UNL     1      27.343 -28.157 -28.442  0.00  0.00    -0.062 A 
ATOM     28  C   UNL     1      28.134 -28.352 -29.572  0.00  0.00    -0.061 A 
ATOM     29  C   UNL     1      29.084 -29.377 -29.595  0.00  0.00    -0.057 A 
ENDBRANCH  23  24
ENDBRANCH  19  23
ENDBRANCH   1  16
TORSDOF 6
ENDMDL
MODEL 19
REMARK VINA RESULT:    -6.276      3.870      9.603
REMARK INTER + INTRA:          -9.376
REMARK INTER:                  -8.382
REMARK INTRA:                  -0.994
REMARK UNBOUND:                -0.899
REMARK  Name = cpd7.pdb
REMARK  8 active torsions:
REMARK  status: ('A' for Active; 'I' for Inactive)
REMARK    1  A    between atoms: C_1  and  O_2
REMARK    2  A    between atoms: O_2  and  C_3
REMARK    3  A    between atoms: C_8  and  O_9
REMARK    4  A    between atoms: O_9  and  C_10
REMARK    5  A    between atoms: C_13  and  C_14
REMARK    6  A    between atoms: C_14  and  C_15
REMARK    7  A    between atoms: N_18  and  C_19
REMARK    8  A    between atoms: C_19  and  C_20
REMARK                            x       y       z     vdW  Elec       q    Type
REMARK                         _______ _______ _______ _____ _____    ______ ____
ROOT
ATOM      1  C   UNL     1      45.037 -17.671 -35.617  0.00  0.00    -0.040 C 
ENDROOT
BRANCH   1  10
ATOM      2  C   UNL     1      45.302 -20.625 -40.898  0.00  0.00    +0.162 A 
ATOM      3  C   UNL     1      44.783 -19.470 -40.278  0.00  0.00    -0.012 A 
ATOM      4  C   UNL     1      45.178 -19.150 -38.992  0.00  0.00    -0.033 A 
ATOM      5  C   UNL     1      46.050 -19.988 -38.325  0.00  0.00    +0.025 A 
ATOM      6  C   UNL     1      46.572 -21.141 -38.886  0.00  0.00    -0.006 A 
ATOM      7  C   UNL     1      46.208 -21.466 -40.201  0.00  0.00    +0.162 A 
ATOM      8  C   UNL     1      46.307 -19.426 -37.007  0.00  0.00    +0.167 C 
ATOM      9  O   UNL     1      46.946 -20.011 -36.151  0.00  0.00    -0.292 OA
ATOM     10  C   UNL     1      45.721 -18.020 -36.945  0.00  0.00    +0.026 C 
ATOM     11  C   UNL     1      44.730 -18.008 -38.138  0.00  0.00    -0.017 C 
BRANCH   2  13
ATOM     12  C   UNL     1      44.327 -19.632 -42.860  0.00  0.00    +0.079 C 
ATOM     13  O   UNL     1      44.809 -20.775 -42.171  0.00  0.00    -0.491 OA
ENDBRANCH   2  13
BRANCH   7  14
ATOM     14  O   UNL     1      46.669 -22.591 -40.831  0.00  0.00    -0.491 OA
ATOM     15  C   UNL     1      47.841 -22.469 -41.630  0.00  0.00    +0.079 C 
ENDBRANCH   7  14
ENDBRANCH   1  10
BRANCH   1  16
ATOM     16  C   UNL     1      43.641 -18.314 -35.438  0.00  0.00    -0.038 C 
ATOM     17  C   UNL     1      42.530 -17.282 -35.236  0.00  0.00    -0.037 C 
ATOM     18  C   UNL     1      41.212 -17.934 -34.818  0.00  0.00    -0.001 C 
ATOM     19  N   UNL     1      41.305 -18.844 -33.668  0.00  0.00    -0.298 N 
ATOM     20  C   UNL     1      42.672 -19.006 -33.163  0.00  0.00    -0.001 C 
ATOM     21  C   UNL     1      43.650 -19.343 -34.290  0.00  0.00    -0.037 C 
ATOM     22  H   UNL     1      41.029 -19.765 -34.010  0.00  0.00    +0.000 HD
BRANCH  19  23
ATOM     23  C   UNL     1      40.365 -18.459 -32.603  0.00  0.00    +0.024 C 
BRANCH  23  24
ATOM     24  C   UNL     1      39.080 -19.257 -32.619  0.00  0.00    -0.033 A 
ATOM     25  C   UNL     1      39.122 -20.660 -32.621  0.00  0.00    -0.057 A 
ATOM     26  C   UNL     1      37.944 -21.406 -32.656  0.00  0.00    -0.061 A 
ATOM     27  C   UNL     1      36.710 -20.758 -32.681  0.00  0.00    -0.062 A 
ATOM     28  C   UNL     1      36.654 -19.365 -32.670  0.00  0.00    -0.061 A 
ATOM     29  C   UNL     1      37.833 -18.616 -32.641  0.00  0.00    -0.057 A 
ENDBRANCH  23  24
ENDBRANCH  19  23
ENDBRANCH   1  16
TORSDOF 6
ENDMDL
MODEL 20
REMARK VINA RESULT:    -6.214     20.861     25.027
REMARK INTER + INTRA:          -9.293
REMARK INTER:                  -8.558
REMARK INTRA:                  -0.735
REMARK UNBOUND:                -0.899
REMARK  Name = cpd7.pdb
REMARK  8 active torsions:
REMARK  status: ('A' for Active; 'I' for Inactive)
REMARK    1  A    between atoms: C_1  and  O_2
REMARK    2  A    between atoms: O_2  and  C_3
REMARK    3  A    between atoms: C_8  and  O_9
REMARK    4  A    between atoms: O_9  and  C_10
REMARK    5  A    between atoms: C_13  and  C_14
REMARK    6  A    between atoms: C_14  and  C_15
REMARK    7  A    between atoms: N_18  and  C_19
REMARK    8  A    between atoms: C_19  and  C_20
REMARK                            x       y       z     vdW  Elec       q    Type
REMARK                         _______ _______ _______ _____ _____    ______ ____
ROOT
ATOM      1  C   UNL     1      54.619 -33.202 -54.273  0.00  0.00    -0.040 C 
ENDROOT
BRANCH   1  10
ATOM      2  C   UNL     1      58.264 -28.988 -56.649  0.00  0.00    +0.162 A 
ATOM      3  C   UNL     1      57.992 -30.372 -56.646  0.00  0.00    -0.012 A 
ATOM      4  C   UNL     1      56.860 -30.844 -56.011  0.00  0.00    -0.033 A 
ATOM      5  C   UNL     1      56.030 -29.952 -55.359  0.00  0.00    +0.025 A 
ATOM      6  C   UNL     1      56.263 -28.588 -55.320  0.00  0.00    -0.006 A 
ATOM      7  C   UNL     1      57.391 -28.087 -55.986  0.00  0.00    +0.162 A 
ATOM      8  C   UNL     1      54.919 -30.698 -54.785  0.00  0.00    +0.167 C 
ATOM      9  O   UNL     1      54.091 -30.189 -54.050  0.00  0.00    -0.292 OA
ATOM     10  C   UNL     1      54.953 -32.126 -55.314  0.00  0.00    +0.026 C 
ATOM     11  C   UNL     1      56.403 -32.258 -55.852  0.00  0.00    -0.017 C 
BRANCH   2  13
ATOM     12  C   UNL     1      60.569 -29.503 -57.104  0.00  0.00    +0.079 C 
ATOM     13  O   UNL     1      59.419 -28.704 -57.335  0.00  0.00    -0.491 OA
ENDBRANCH   2  13
BRANCH   7  14
ATOM     14  O   UNL     1      57.703 -26.753 -55.992  0.00  0.00    -0.491 OA
ATOM     15  C   UNL     1      58.673 -26.295 -55.057  0.00  0.00    +0.079 C 
ENDBRANCH   7  14
ENDBRANCH   1  10
BRANCH   1  16
ATOM     16  C   UNL     1      55.769 -33.497 -53.280  0.00  0.00    -0.038 C 
ATOM     17  C   UNL     1      56.012 -34.995 -53.076  0.00  0.00    -0.037 C 
ATOM     18  C   UNL     1      56.972 -35.266 -51.918  0.00  0.00    -0.001 C 
ATOM     19  N   UNL     1      56.623 -34.609 -50.651  0.00  0.00    -0.298 N 
ATOM     20  C   UNL     1      55.434 -33.756 -50.747  0.00  0.00    -0.001 C 
ATOM     21  C   UNL     1      55.529 -32.791 -51.931  0.00  0.00    -0.037 C 
ATOM     22  H   UNL     1      57.394 -33.978 -50.434  0.00  0.00    +0.000 HD
BRANCH  19  23
ATOM     23  C   UNL     1      56.515 -35.583 -49.554  0.00  0.00    +0.024 C 
BRANCH  23  24
ATOM     24  C   UNL     1      56.102 -34.962 -48.237  0.00  0.00    -0.033 A 
ATOM     25  C   UNL     1      56.688 -33.760 -47.812  0.00  0.00    -0.057 A 
ATOM     26  C   UNL     1      56.330 -33.188 -46.590  0.00  0.00    -0.061 A 
ATOM     27  C   UNL     1      55.376 -33.809 -45.785  0.00  0.00    -0.062 A 
ATOM     28  C   UNL     1      54.780 -34.997 -46.201  0.00  0.00    -0.061 A 
ATOM     29  C   UNL     1      55.141 -35.574 -47.421  0.00  0.00    -0.057 A 
ENDBRANCH  23  24
ENDBRANCH  19  23
ENDBRANCH   1  16
TORSDOF 6
ENDMDL
