MODEL 1
REMARK VINA RESULT:    -7.480      0.000      0.000
REMARK INTER + INTRA:         -10.654
REMARK INTER:                 -16.007
REMARK INTRA:                   5.353
REMARK UNBOUND:                 5.353
REMARK  Name = cpd107.pdb
REMARK  29 active torsions:
REMARK  status: ('A' for Active; 'I' for Inactive)
REMARK    1  A    between atoms: C_1  and  C_2
REMARK    2  A    between atoms: C_2  and  N_3
REMARK    3  A    between atoms: N_3  and  C_4
REMARK    4  A    between atoms: N_3  and  C_6
REMARK    5  A    between atoms: N_3  and  C_8
REMARK    6  A    between atoms: C_4  and  C_5
REMARK    7  A    between atoms: C_6  and  C_7
REMARK    8  A    between atoms: C_8  and  C_9
REMARK    9  A    between atoms: C_9  and  O_10
REMARK   10  A    between atoms: O_10  and  C_11
REMARK   11  A    between atoms: C_13  and  O_14
REMARK   12  A    between atoms: O_14  and  C_15
REMARK   13  A    between atoms: C_15  and  C_16
REMARK   14  A    between atoms: C_16  and  N_17
REMARK   15  A    between atoms: N_17  and  C_18
REMARK   16  A    between atoms: N_17  and  C_20
REMARK   17  A    between atoms: N_17  and  C_22
REMARK   18  A    between atoms: C_18  and  C_19
REMARK   19  A    between atoms: C_20  and  C_21
REMARK   20  A    between atoms: C_22  and  C_23
REMARK   21  A    between atoms: C_25  and  C_26
REMARK   22  A    between atoms: N_28  and  C_29
REMARK   23  A    between atoms: C_29  and  C_30
REMARK   24  A    between atoms: C_30  and  C_31
REMARK   25  A    between atoms: C_31  and  C_32
REMARK   26  A    between atoms: C_32  and  C_33
REMARK   27  A    between atoms: C_33  and  C_34
REMARK   28  A    between atoms: N_36  and  N_37
REMARK   29  A    between atoms: N_37  and  C_38
REMARK                            x       y       z     vdW  Elec       q    Type
REMARK                         _______ _______ _______ _____ _____    ______ ____
ROOT
ATOM      1  C   UNL     1      45.491 -18.240 -33.994  0.00  0.00    +0.244 C 
ATOM      2  O   UNL     1      44.842 -19.168 -33.526  0.00  0.00    -0.270 OA
ATOM      3  N   UNL     1      45.656 -17.023 -33.365  0.00  0.00    -0.311 N 
ATOM      4  H   UNL     1      46.182 -16.312 -33.798  0.00  0.00    +0.000 HD
ENDROOT
BRANCH   1   9
ATOM      5  C   UNL     1      46.721 -19.866 -37.179  0.00  0.00    +0.125 A 
ATOM      6  C   UNL     1      47.082 -18.730 -37.916  0.00  0.00    +0.022 A 
ATOM      7  C   UNL     1      47.004 -17.462 -37.334  0.00  0.00    +0.125 A 
ATOM      8  C   UNL     1      46.507 -17.312 -36.047  0.00  0.00    -0.008 A 
ATOM      9  C   UNL     1      46.191 -18.441 -35.290  0.00  0.00    +0.044 A 
ATOM     10  C   UNL     1      46.360 -19.720 -35.837  0.00  0.00    -0.008 A 
BRANCH   7  11
ATOM     11  O   UNL     1      47.274 -16.328 -38.054  0.00  0.00    -0.494 OA
BRANCH  11  12
ATOM     12  C   UNL     1      46.493 -16.279 -39.257  0.00  0.00    +0.075 C 
BRANCH  12  13
ATOM     13  C   UNL     1      45.186 -15.498 -38.998  0.00  0.00    -0.053 C 
BRANCH  13  14
ATOM     14  N   UNL     1      43.945 -15.906 -39.908  0.00  0.00    +0.382 N 
BRANCH  14  15
ATOM     15  C   UNL     1      43.236 -14.589 -40.331  0.00  0.00    -0.091 C 
ATOM     16  C   UNL     1      43.869 -13.304 -39.829  0.00  0.00    -0.080 C 
ENDBRANCH  14  15
BRANCH  14  17
ATOM     17  C   UNL     1      42.972 -16.733 -39.018  0.00  0.00    -0.091 C 
ATOM     18  C   UNL     1      41.508 -16.355 -39.190  0.00  0.00    -0.080 C 
ENDBRANCH  14  17
BRANCH  14  19
ATOM     19  C   UNL     1      44.474 -16.693 -41.132  0.00  0.00    -0.091 C 
ATOM     20  C   UNL     1      43.981 -18.127 -41.264  0.00  0.00    -0.080 C 
ENDBRANCH  14  19
ENDBRANCH  13  14
ENDBRANCH  12  13
ENDBRANCH  11  12
ENDBRANCH   7  11
BRANCH   5  21
ATOM     21  O   UNL     1      46.683 -21.037 -37.894  0.00  0.00    -0.494 OA
BRANCH  21  22
ATOM     22  C   UNL     1      45.738 -21.190 -38.964  0.00  0.00    +0.075 C 
BRANCH  22  23
ATOM     23  C   UNL     1      46.443 -22.002 -40.360  0.00  0.00    -0.053 C 
BRANCH  23  24
ATOM     24  N   UNL     1      46.817 -21.469 -41.119  0.00  0.00    +0.382 N 
BRANCH  24  26
ATOM     25  C   UNL     1      44.613 -21.697 -42.492  0.00  0.00    -0.080 C 
ATOM     26  C   UNL     1      45.890 -21.223 -41.402  0.00  0.00    -0.091 C 
ENDBRANCH  24  26
BRANCH  24  27
ATOM     27  C   UNL     1      47.744 -21.715 -40.835  0.00  0.00    -0.091 C 
ATOM     28  C   UNL     1      48.349 -23.277 -41.201  0.00  0.00    -0.080 C 
ENDBRANCH  24  27
BRANCH  24  29
ATOM     29  C   UNL     1      47.191 -20.936 -41.878  0.00  0.00    -0.091 C 
ATOM     30  C   UNL     1      47.490 -19.263 -41.672  0.00  0.00    -0.080 C 
ENDBRANCH  24  29
ENDBRANCH  23  24
ENDBRANCH  22  23
ENDBRANCH  21  22
ENDBRANCH   5  21
ENDBRANCH   1   9
BRANCH   3  31
ATOM     31  C   UNL     1      45.052 -16.786 -32.062  0.00  0.00    +0.012 C 
BRANCH  31  32
ATOM     32  C   UNL     1      43.878 -15.819 -32.149  0.00  0.00    -0.037 C 
BRANCH  32  33
ATOM     33  C   UNL     1      42.637 -16.468 -32.768  0.00  0.00    -0.051 C 
BRANCH  33  34
ATOM     34  C   UNL     1      42.490 -16.005 -34.214  0.00  0.00    -0.045 C 
BRANCH  34  35
ATOM     35  C   UNL     1      42.212 -17.141 -35.197  0.00  0.00    +0.025 C 
BRANCH  35  36
ATOM     36  C   UNL     1      40.728 -17.446 -35.190  0.00  0.00    +0.229 C 
ATOM     37  O   UNL     1      39.877 -16.593 -35.423  0.00  0.00    -0.274 OA
ATOM     38  N   UNL     1      40.439 -18.787 -34.980  0.00  0.00    -0.236 N 
ATOM     39  H   UNL     1      41.004 -19.369 -34.421  0.00  0.00    +0.000 HD
BRANCH  38  40
ATOM     40  N   UNL     1      39.271 -19.255 -35.626  0.00  0.00    -0.264 N 
ATOM     41  H   UNL     1      38.467 -18.707 -35.777  0.00  0.00    +0.000 HD
BRANCH  40  42
ATOM     42  C   UNL     1      39.399 -20.613 -36.033  0.00  0.00    +0.058 A 
ATOM     43  C   UNL     1      40.119 -20.898 -37.215  0.00  0.00    -0.003 A 
ATOM     44  C   UNL     1      40.289 -22.235 -37.565  0.00  0.00    +0.047 A 
ATOM     45  N   UNL     1      39.780 -23.254 -36.839  0.00  0.00    -0.251 NA
ATOM     46  C   UNL     1      39.095 -22.986 -35.718  0.00  0.00    +0.074 A 
ATOM     47  C   UNL     1      38.590 -24.061 -35.003  0.00  0.00    -0.017 A 
ATOM     48  C   UNL     1      37.882 -23.875 -33.820  0.00  0.00    +0.043 A 
ATOM     49 CL   UNL     1      37.269 -25.236 -32.965  0.00  0.00    -0.083 Cl
ATOM     50  C   UNL     1      37.674 -22.597 -33.323  0.00  0.00    -0.043 A 
ATOM     51  C   UNL     1      38.173 -21.502 -34.028  0.00  0.00    -0.049 A 
ATOM     52  C   UNL     1      38.880 -21.675 -35.245  0.00  0.00    +0.023 A 
ATOM     53  C   UNL     1      40.999 -22.642 -38.830  0.00  0.00    -0.010 C 
ATOM     54  C   UNL     1      41.893 -21.547 -39.403  0.00  0.00    -0.047 C 
ATOM     55  C   UNL     1      41.126 -20.234 -39.461  0.00  0.00    -0.049 C 
ATOM     56  C   UNL     1      40.718 -19.795 -38.056  0.00  0.00    -0.024 C 
ENDBRANCH  40  42
ENDBRANCH  38  40
ENDBRANCH  35  36
ENDBRANCH  34  35
ENDBRANCH  33  34
ENDBRANCH  32  33
ENDBRANCH  31  32
ENDBRANCH   3  31
TORSDOF 23
ENDMDL
MODEL 2
REMARK VINA RESULT:    -7.319      3.147      8.482
REMARK INTER + INTRA:         -10.309
REMARK INTER:                 -15.006
REMARK INTRA:                   4.697
REMARK UNBOUND:                 5.353
REMARK  Name = cpd107.pdb
REMARK  29 active torsions:
REMARK  status: ('A' for Active; 'I' for Inactive)
REMARK    1  A    between atoms: C_1  and  C_2
REMARK    2  A    between atoms: C_2  and  N_3
REMARK    3  A    between atoms: N_3  and  C_4
REMARK    4  A    between atoms: N_3  and  C_6
REMARK    5  A    between atoms: N_3  and  C_8
REMARK    6  A    between atoms: C_4  and  C_5
REMARK    7  A    between atoms: C_6  and  C_7
REMARK    8  A    between atoms: C_8  and  C_9
REMARK    9  A    between atoms: C_9  and  O_10
REMARK   10  A    between atoms: O_10  and  C_11
REMARK   11  A    between atoms: C_13  and  O_14
REMARK   12  A    between atoms: O_14  and  C_15
REMARK   13  A    between atoms: C_15  and  C_16
REMARK   14  A    between atoms: C_16  and  N_17
REMARK   15  A    between atoms: N_17  and  C_18
REMARK   16  A    between atoms: N_17  and  C_20
REMARK   17  A    between atoms: N_17  and  C_22
REMARK   18  A    between atoms: C_18  and  C_19
REMARK   19  A    between atoms: C_20  and  C_21
REMARK   20  A    between atoms: C_22  and  C_23
REMARK   21  A    between atoms: C_25  and  C_26
REMARK   22  A    between atoms: N_28  and  C_29
REMARK   23  A    between atoms: C_29  and  C_30
REMARK   24  A    between atoms: C_30  and  C_31
REMARK   25  A    between atoms: C_31  and  C_32
REMARK   26  A    between atoms: C_32  and  C_33
REMARK   27  A    between atoms: C_33  and  C_34
REMARK   28  A    between atoms: N_36  and  N_37
REMARK   29  A    between atoms: N_37  and  C_38
REMARK                            x       y       z     vdW  Elec       q    Type
REMARK                         _______ _______ _______ _____ _____    ______ ____
ROOT
ATOM      1  C   UNL     1      46.373 -20.075 -37.806  0.00  0.00    +0.244 C 
ATOM      2  O   UNL     1      47.272 -19.245 -37.739  0.00  0.00    -0.270 OA
ATOM      3  N   UNL     1      46.353 -21.115 -38.713  0.00  0.00    -0.311 N 
ATOM      4  H   UNL     1      45.596 -21.744 -38.723  0.00  0.00    +0.000 HD
ENDROOT
BRANCH   1   9
ATOM      5  C   UNL     1      43.052 -20.709 -36.113  0.00  0.00    +0.125 A 
ATOM      6  C   UNL     1      43.341 -20.258 -34.819  0.00  0.00    +0.022 A 
ATOM      7  C   UNL     1      44.579 -19.674 -34.539  0.00  0.00    +0.125 A 
ATOM      8  C   UNL     1      45.555 -19.596 -35.525  0.00  0.00    -0.008 A 
ATOM      9  C   UNL     1      45.258 -19.998 -36.827  0.00  0.00    +0.044 A 
ATOM     10  C   UNL     1      43.983 -20.496 -37.132  0.00  0.00    -0.008 A 
BRANCH   7  11
ATOM     11  O   UNL     1      44.921 -19.297 -33.268  0.00  0.00    -0.494 OA
BRANCH  11  12
ATOM     12  C   UNL     1      45.180 -17.887 -33.197  0.00  0.00    +0.075 C 
BRANCH  12  13
ATOM     13  C   UNL     1      43.898 -17.142 -32.766  0.00  0.00    -0.053 C 
BRANCH  13  14
ATOM     14  N   UNL     1      43.386 -16.013 -33.765  0.00  0.00    +0.382 N 
BRANCH  14  15
ATOM     15  C   UNL     1      43.573 -14.647 -33.045  0.00  0.00    -0.091 C 
ATOM     16  C   UNL     1      44.369 -14.682 -31.753  0.00  0.00    -0.080 C 
ENDBRANCH  14  15
BRANCH  14  17
ATOM     17  C   UNL     1      41.865 -16.252 -33.993  0.00  0.00    -0.091 C 
ATOM     18  C   UNL     1      41.036 -16.207 -32.718  0.00  0.00    -0.080 C 
ENDBRANCH  14  17
BRANCH  14  19
ATOM     19  C   UNL     1      44.221 -16.095 -35.066  0.00  0.00    -0.091 C 
ATOM     20  C   UNL     1      43.469 -16.541 -36.311  0.00  0.00    -0.080 C 
ENDBRANCH  14  19
ENDBRANCH  13  14
ENDBRANCH  12  13
ENDBRANCH  11  12
ENDBRANCH   7  11
BRANCH   5  21
ATOM     21  O   UNL     1      41.877 -21.407 -36.238  0.00  0.00    -0.494 OA
BRANCH  21  22
ATOM     22  C   UNL     1      40.836 -21.234 -35.263  0.00  0.00    +0.075 C 
BRANCH  22  23
ATOM     23  C   UNL     1      40.348 -22.765 -34.539  0.00  0.00    -0.053 C 
BRANCH  23  24
ATOM     24  N   UNL     1      39.583 -22.798 -33.896  0.00  0.00    +0.382 N 
BRANCH  24  26
ATOM     25  C   UNL     1      41.136 -23.700 -32.006  0.00  0.00    -0.080 C 
ATOM     26  C   UNL     1      40.223 -22.727 -33.131  0.00  0.00    -0.091 C 
ENDBRANCH  24  26
BRANCH  24  27
ATOM     27  C   UNL     1      38.942 -22.868 -34.661  0.00  0.00    -0.091 C 
ATOM     28  C   UNL     1      38.275 -24.395 -35.061  0.00  0.00    -0.080 C 
ENDBRANCH  24  27
BRANCH  24  29
ATOM     29  C   UNL     1      38.818 -22.830 -33.252  0.00  0.00    -0.091 C 
ATOM     30  C   UNL     1      38.020 -21.382 -32.810  0.00  0.00    -0.080 C 
ENDBRANCH  24  29
ENDBRANCH  23  24
ENDBRANCH  22  23
ENDBRANCH  21  22
ENDBRANCH   5  21
ENDBRANCH   1   9
BRANCH   3  31
ATOM     31  C   UNL     1      47.450 -21.285 -39.654  0.00  0.00    +0.012 C 
BRANCH  31  32
ATOM     32  C   UNL     1      47.289 -22.550 -40.487  0.00  0.00    -0.037 C 
BRANCH  32  33
ATOM     33  C   UNL     1      47.159 -22.247 -41.983  0.00  0.00    -0.051 C 
BRANCH  33  34
ATOM     34  C   UNL     1      45.701 -22.398 -42.407  0.00  0.00    -0.045 C 
BRANCH  34  35
ATOM     35  C   UNL     1      45.026 -21.076 -42.764  0.00  0.00    +0.025 C 
BRANCH  35  36
ATOM     36  C   UNL     1      44.309 -20.543 -41.540  0.00  0.00    +0.229 C 
ATOM     37  O   UNL     1      43.919 -21.272 -40.633  0.00  0.00    -0.274 OA
ATOM     38  N   UNL     1      44.216 -19.159 -41.511  0.00  0.00    -0.236 N 
ATOM     39  H   UNL     1      44.139 -18.616 -42.329  0.00  0.00    +0.000 HD
BRANCH  38  40
ATOM     40  N   UNL     1      44.240 -18.585 -40.218  0.00  0.00    -0.264 N 
ATOM     41  H   UNL     1      44.798 -18.917 -39.478  0.00  0.00    +0.000 HD
BRANCH  40  42
ATOM     42  C   UNL     1      43.360 -17.471 -40.116  0.00  0.00    +0.058 A 
ATOM     43  C   UNL     1      42.074 -17.675 -39.566  0.00  0.00    -0.003 A 
ATOM     44  C   UNL     1      41.249 -16.564 -39.416  0.00  0.00    +0.047 A 
ATOM     45  N   UNL     1      41.618 -15.319 -39.788  0.00  0.00    -0.251 NA
ATOM     46  C   UNL     1      42.838 -15.123 -40.311  0.00  0.00    +0.074 A 
ATOM     47  C   UNL     1      43.176 -13.830 -40.681  0.00  0.00    -0.017 A 
ATOM     48  C   UNL     1      44.427 -13.534 -41.216  0.00  0.00    +0.043 A 
ATOM     49 CL   UNL     1      44.806 -11.918 -41.664  0.00  0.00    -0.083 Cl
ATOM     50  C   UNL     1      45.371 -14.537 -41.382  0.00  0.00    -0.043 A 
ATOM     51  C   UNL     1      45.049 -15.843 -41.017  0.00  0.00    -0.049 A 
ATOM     52  C   UNL     1      43.773 -16.164 -40.489  0.00  0.00    +0.023 A 
ATOM     53  C   UNL     1      39.843 -16.682 -38.885  0.00  0.00    -0.010 C 
ATOM     54  C   UNL     1      39.595 -17.973 -38.111  0.00  0.00    -0.047 C 
ATOM     55  C   UNL     1      40.108 -19.161 -38.911  0.00  0.00    -0.049 C 
ATOM     56  C   UNL     1      41.617 -19.045 -39.123  0.00  0.00    -0.024 C 
ENDBRANCH  40  42
ENDBRANCH  38  40
ENDBRANCH  35  36
ENDBRANCH  34  35
ENDBRANCH  33  34
ENDBRANCH  32  33
ENDBRANCH  31  32
ENDBRANCH   3  31
TORSDOF 23
ENDMDL
MODEL 3
REMARK VINA RESULT:    -7.285     17.895     22.800
REMARK INTER + INTRA:         -10.237
REMARK INTER:                 -15.978
REMARK INTRA:                   5.741
REMARK UNBOUND:                 5.353
REMARK  Name = cpd107.pdb
REMARK  29 active torsions:
REMARK  status: ('A' for Active; 'I' for Inactive)
REMARK    1  A    between atoms: C_1  and  C_2
REMARK    2  A    between atoms: C_2  and  N_3
REMARK    3  A    between atoms: N_3  and  C_4
REMARK    4  A    between atoms: N_3  and  C_6
REMARK    5  A    between atoms: N_3  and  C_8
REMARK    6  A    between atoms: C_4  and  C_5
REMARK    7  A    between atoms: C_6  and  C_7
REMARK    8  A    between atoms: C_8  and  C_9
REMARK    9  A    between atoms: C_9  and  O_10
REMARK   10  A    between atoms: O_10  and  C_11
REMARK   11  A    between atoms: C_13  and  O_14
REMARK   12  A    between atoms: O_14  and  C_15
REMARK   13  A    between atoms: C_15  and  C_16
REMARK   14  A    between atoms: C_16  and  N_17
REMARK   15  A    between atoms: N_17  and  C_18
REMARK   16  A    between atoms: N_17  and  C_20
REMARK   17  A    between atoms: N_17  and  C_22
REMARK   18  A    between atoms: C_18  and  C_19
REMARK   19  A    between atoms: C_20  and  C_21
REMARK   20  A    between atoms: C_22  and  C_23
REMARK   21  A    between atoms: C_25  and  C_26
REMARK   22  A    between atoms: N_28  and  C_29
REMARK   23  A    between atoms: C_29  and  C_30
REMARK   24  A    between atoms: C_30  and  C_31
REMARK   25  A    between atoms: C_31  and  C_32
REMARK   26  A    between atoms: C_32  and  C_33
REMARK   27  A    between atoms: C_33  and  C_34
REMARK   28  A    between atoms: N_36  and  N_37
REMARK   29  A    between atoms: N_37  and  C_38
REMARK                            x       y       z     vdW  Elec       q    Type
REMARK                         _______ _______ _______ _____ _____    ______ ____
ROOT
ATOM      1  C   UNL     1      30.927 -37.875 -30.014  0.00  0.00    +0.244 C 
ATOM      2  O   UNL     1      31.451 -38.967 -29.828  0.00  0.00    -0.270 OA
ATOM      3  N   UNL     1      30.279 -37.523 -31.181  0.00  0.00    -0.311 N 
ATOM      4  H   UNL     1      29.887 -36.625 -31.273  0.00  0.00    +0.000 HD
ENDROOT
BRANCH   1   9
ATOM      5  C   UNL     1      31.172 -36.386 -26.547  0.00  0.00    +0.125 A 
ATOM      6  C   UNL     1      31.428 -35.047 -26.868  0.00  0.00    +0.022 A 
ATOM      7  C   UNL     1      31.428 -34.633 -28.202  0.00  0.00    +0.125 A 
ATOM      8  C   UNL     1      31.241 -35.556 -29.223  0.00  0.00    -0.008 A 
ATOM      9  C   UNL     1      30.938 -36.882 -28.909  0.00  0.00    +0.044 A 
ATOM     10  C   UNL     1      30.841 -37.280 -27.569  0.00  0.00    -0.008 A 
BRANCH   7  11
ATOM     11  O   UNL     1      31.753 -33.349 -28.552  0.00  0.00    -0.494 OA
BRANCH  11  12
ATOM     12  C   UNL     1      31.313 -33.047 -29.884  0.00  0.00    +0.075 C 
BRANCH  12  13
ATOM     13  C   UNL     1      30.814 -31.587 -29.951  0.00  0.00    -0.053 C 
BRANCH  13  14
ATOM     14  N   UNL     1      29.292 -31.395 -30.375  0.00  0.00    +0.382 N 
BRANCH  14  15
ATOM     15  C   UNL     1      29.288 -30.669 -31.750  0.00  0.00    -0.091 C 
ATOM     16  C   UNL     1      29.236 -29.153 -31.698  0.00  0.00    -0.080 C 
ENDBRANCH  14  15
BRANCH  14  17
ATOM     17  C   UNL     1      28.631 -30.464 -29.317  0.00  0.00    -0.091 C 
ATOM     18  C   UNL     1      29.059 -30.755 -27.886  0.00  0.00    -0.080 C 
ENDBRANCH  14  17
BRANCH  14  19
ATOM     19  C   UNL     1      28.628 -32.792 -30.461  0.00  0.00    -0.091 C 
ATOM     20  C   UNL     1      27.542 -32.947 -31.516  0.00  0.00    -0.080 C 
ENDBRANCH  14  19
ENDBRANCH  13  14
ENDBRANCH  12  13
ENDBRANCH  11  12
ENDBRANCH   7  11
BRANCH   5  21
ATOM     21  O   UNL     1      31.353 -36.714 -25.227  0.00  0.00    -0.494 OA
BRANCH  21  22
ATOM     22  C   UNL     1      32.416 -37.604 -24.852  0.00  0.00    +0.075 C 
BRANCH  22  23
ATOM     23  C   UNL     1      32.152 -38.317 -23.262  0.00  0.00    -0.053 C 
BRANCH  23  24
ATOM     24  N   UNL     1      32.819 -38.180 -22.529  0.00  0.00    +0.382 N 
BRANCH  24  26
ATOM     25  C   UNL     1      30.998 -37.772 -20.708  0.00  0.00    -0.080 C 
ATOM     26  C   UNL     1      32.146 -37.647 -22.017  0.00  0.00    -0.091 C 
ENDBRANCH  24  26
BRANCH  24  27
ATOM     27  C   UNL     1      33.492 -38.713 -23.042  0.00  0.00    -0.091 C 
ATOM     28  C   UNL     1      33.668 -40.386 -22.712  0.00  0.00    -0.080 C 
ENDBRANCH  24  27
BRANCH  24  29
ATOM     29  C   UNL     1      33.485 -38.042 -21.797  0.00  0.00    -0.091 C 
ATOM     30  C   UNL     1      34.545 -36.699 -21.856  0.00  0.00    -0.080 C 
ENDBRANCH  24  29
ENDBRANCH  23  24
ENDBRANCH  22  23
ENDBRANCH  21  22
ENDBRANCH   5  21
ENDBRANCH   1   9
BRANCH   3  31
ATOM     31  C   UNL     1      30.175 -38.476 -32.276  0.00  0.00    +0.012 C 
BRANCH  31  32
ATOM     32  C   UNL     1      31.123 -38.131 -33.418  0.00  0.00    -0.037 C 
BRANCH  32  33
ATOM     33  C   UNL     1      32.538 -38.665 -33.177  0.00  0.00    -0.051 C 
BRANCH  33  34
ATOM     34  C   UNL     1      33.432 -37.531 -32.685  0.00  0.00    -0.045 C 
BRANCH  34  35
ATOM     35  C   UNL     1      32.865 -36.139 -32.960  0.00  0.00    +0.025 C 
BRANCH  35  36
ATOM     36  C   UNL     1      33.971 -35.116 -32.796  0.00  0.00    +0.229 C 
ATOM     37  O   UNL     1      33.760 -33.907 -32.804  0.00  0.00    -0.274 OA
ATOM     38  N   UNL     1      35.216 -35.679 -32.556  0.00  0.00    -0.236 N 
ATOM     39  H   UNL     1      35.484 -36.552 -32.928  0.00  0.00    +0.000 HD
BRANCH  38  40
ATOM     40  N   UNL     1      36.073 -34.908 -31.737  0.00  0.00    -0.264 N 
ATOM     41  H   UNL     1      36.095 -33.923 -31.735  0.00  0.00    +0.000 HD
BRANCH  40  42
ATOM     42  C   UNL     1      36.900 -35.725 -30.916  0.00  0.00    +0.058 A 
ATOM     43  C   UNL     1      36.350 -36.271 -29.735  0.00  0.00    -0.003 A 
ATOM     44  C   UNL     1      37.152 -37.119 -28.976  0.00  0.00    +0.047 A 
ATOM     45  N   UNL     1      38.426 -37.420 -29.312  0.00  0.00    -0.251 NA
ATOM     46  C   UNL     1      38.951 -36.903 -30.432  0.00  0.00    +0.074 A 
ATOM     47  C   UNL     1      40.261 -37.236 -30.739  0.00  0.00    -0.017 A 
ATOM     48  C   UNL     1      40.879 -36.758 -31.891  0.00  0.00    +0.043 A 
ATOM     49 CL   UNL     1      42.507 -37.194 -32.234  0.00  0.00    -0.083 Cl
ATOM     50  C   UNL     1      40.184 -35.937 -32.768  0.00  0.00    -0.043 A 
ATOM     51  C   UNL     1      38.866 -35.589 -32.475  0.00  0.00    -0.049 A 
ATOM     52  C   UNL     1      38.230 -36.053 -31.296  0.00  0.00    +0.023 A 
ATOM     53  C   UNL     1      36.676 -37.713 -27.676  0.00  0.00    -0.010 C 
ATOM     54  C   UNL     1      35.158 -37.702 -27.524  0.00  0.00    -0.047 C 
ATOM     55  C   UNL     1      34.616 -36.322 -27.866  0.00  0.00    -0.049 C 
ATOM     56  C   UNL     1      34.927 -35.975 -29.321  0.00  0.00    -0.024 C 
ENDBRANCH  40  42
ENDBRANCH  38  40
ENDBRANCH  35  36
ENDBRANCH  34  35
ENDBRANCH  33  34
ENDBRANCH  32  33
ENDBRANCH  31  32
ENDBRANCH   3  31
TORSDOF 23
ENDMDL
MODEL 4
REMARK VINA RESULT:    -6.995      2.283      3.728
REMARK INTER + INTRA:          -9.617
REMARK INTER:                 -14.045
REMARK INTRA:                   4.428
REMARK UNBOUND:                 5.353
REMARK  Name = cpd107.pdb
REMARK  29 active torsions:
REMARK  status: ('A' for Active; 'I' for Inactive)
REMARK    1  A    between atoms: C_1  and  C_2
REMARK    2  A    between atoms: C_2  and  N_3
REMARK    3  A    between atoms: N_3  and  C_4
REMARK    4  A    between atoms: N_3  and  C_6
REMARK    5  A    between atoms: N_3  and  C_8
REMARK    6  A    between atoms: C_4  and  C_5
REMARK    7  A    between atoms: C_6  and  C_7
REMARK    8  A    between atoms: C_8  and  C_9
REMARK    9  A    between atoms: C_9  and  O_10
REMARK   10  A    between atoms: O_10  and  C_11
REMARK   11  A    between atoms: C_13  and  O_14
REMARK   12  A    between atoms: O_14  and  C_15
REMARK   13  A    between atoms: C_15  and  C_16
REMARK   14  A    between atoms: C_16  and  N_17
REMARK   15  A    between atoms: N_17  and  C_18
REMARK   16  A    between atoms: N_17  and  C_20
REMARK   17  A    between atoms: N_17  and  C_22
REMARK   18  A    between atoms: C_18  and  C_19
REMARK   19  A    between atoms: C_20  and  C_21
REMARK   20  A    between atoms: C_22  and  C_23
REMARK   21  A    between atoms: C_25  and  C_26
REMARK   22  A    between atoms: N_28  and  C_29
REMARK   23  A    between atoms: C_29  and  C_30
REMARK   24  A    between atoms: C_30  and  C_31
REMARK   25  A    between atoms: C_31  and  C_32
REMARK   26  A    between atoms: C_32  and  C_33
REMARK   27  A    between atoms: C_33  and  C_34
REMARK   28  A    between atoms: N_36  and  N_37
REMARK   29  A    between atoms: N_37  and  C_38
REMARK                            x       y       z     vdW  Elec       q    Type
REMARK                         _______ _______ _______ _____ _____    ______ ____
ROOT
ATOM      1  C   UNL     1      44.538 -18.584 -33.683  0.00  0.00    +0.244 C 
ATOM      2  O   UNL     1      44.768 -17.734 -32.831  0.00  0.00    -0.270 OA
ATOM      3  N   UNL     1      43.440 -19.419 -33.658  0.00  0.00    -0.311 N 
ATOM      4  H   UNL     1      43.316 -20.090 -34.368  0.00  0.00    +0.000 HD
ENDROOT
BRANCH   1   9
ATOM      5  C   UNL     1      46.155 -19.866 -36.852  0.00  0.00    +0.125 A 
ATOM      6  C   UNL     1      46.841 -18.716 -37.264  0.00  0.00    +0.022 A 
ATOM      7  C   UNL     1      46.841 -17.573 -36.462  0.00  0.00    +0.125 A 
ATOM      8  C   UNL     1      46.107 -17.544 -35.283  0.00  0.00    -0.008 A 
ATOM      9  C   UNL     1      45.461 -18.700 -34.842  0.00  0.00    +0.044 A 
ATOM     10  C   UNL     1      45.540 -19.878 -35.598  0.00  0.00    -0.008 A 
BRANCH   7  11
ATOM     11  O   UNL     1      47.435 -16.410 -36.875  0.00  0.00    -0.494 OA
BRANCH  11  12
ATOM     12  C   UNL     1      47.151 -16.143 -38.256  0.00  0.00    +0.075 C 
BRANCH  12  13
ATOM     13  C   UNL     1      45.966 -15.158 -38.364  0.00  0.00    -0.053 C 
BRANCH  13  14
ATOM     14  N   UNL     1      44.860 -15.523 -39.449  0.00  0.00    +0.382 N 
BRANCH  14  15
ATOM     15  C   UNL     1      44.883 -17.069 -39.622  0.00  0.00    -0.091 C 
ATOM     16  C   UNL     1      45.114 -17.574 -41.035  0.00  0.00    -0.080 C 
ENDBRANCH  14  15
BRANCH  14  17
ATOM     17  C   UNL     1      45.295 -14.865 -40.791  0.00  0.00    -0.091 C 
ATOM     18  C   UNL     1      44.269 -13.898 -41.363  0.00  0.00    -0.080 C 
ENDBRANCH  14  17
BRANCH  14  19
ATOM     19  C   UNL     1      43.487 -15.023 -38.938  0.00  0.00    -0.091 C 
ATOM     20  C   UNL     1      43.511 -14.225 -37.643  0.00  0.00    -0.080 C 
ENDBRANCH  14  19
ENDBRANCH  13  14
ENDBRANCH  12  13
ENDBRANCH  11  12
ENDBRANCH   7  11
BRANCH   5  21
ATOM     21  O   UNL     1      46.088 -20.871 -37.784  0.00  0.00    -0.494 OA
BRANCH  21  22
ATOM     22  C   UNL     1      47.059 -20.932 -38.840  0.00  0.00    +0.075 C 
BRANCH  22  23
ATOM     23  C   UNL     1      46.427 -21.735 -40.275  0.00  0.00    -0.053 C 
BRANCH  23  24
ATOM     24  N   UNL     1      46.833 -21.559 -41.172  0.00  0.00    +0.382 N 
BRANCH  24  26
ATOM     25  C   UNL     1      44.677 -21.061 -42.551  0.00  0.00    -0.080 C 
ATOM     26  C   UNL     1      46.020 -21.040 -41.438  0.00  0.00    -0.091 C 
ENDBRANCH  24  26
BRANCH  24  27
ATOM     27  C   UNL     1      47.645 -22.078 -40.907  0.00  0.00    -0.091 C 
ATOM     28  C   UNL     1      47.838 -23.685 -41.471  0.00  0.00    -0.080 C 
ENDBRANCH  24  27
BRANCH  24  29
ATOM     29  C   UNL     1      47.238 -21.383 -42.069  0.00  0.00    -0.091 C 
ATOM     30  C   UNL     1      48.224 -20.002 -42.298  0.00  0.00    -0.080 C 
ENDBRANCH  24  29
ENDBRANCH  23  24
ENDBRANCH  22  23
ENDBRANCH  21  22
ENDBRANCH   5  21
ENDBRANCH   1   9
BRANCH   3  31
ATOM     31  C   UNL     1      42.463 -19.311 -32.585  0.00  0.00    +0.012 C 
BRANCH  31  32
ATOM     32  C   UNL     1      41.252 -20.203 -32.830  0.00  0.00    -0.037 C 
BRANCH  32  33
ATOM     33  C   UNL     1      41.620 -21.689 -32.842  0.00  0.00    -0.051 C 
BRANCH  33  34
ATOM     34  C   UNL     1      40.605 -22.457 -33.683  0.00  0.00    -0.045 C 
BRANCH  34  35
ATOM     35  C   UNL     1      39.167 -22.316 -33.187  0.00  0.00    +0.025 C 
BRANCH  35  36
ATOM     36  C   UNL     1      38.351 -21.599 -34.244  0.00  0.00    +0.229 C 
ATOM     37  O   UNL     1      37.438 -20.828 -33.963  0.00  0.00    -0.274 OA
ATOM     38  N   UNL     1      38.790 -21.835 -35.539  0.00  0.00    -0.236 N 
ATOM     39  H   UNL     1      39.199 -22.688 -35.812  0.00  0.00    +0.000 HD
BRANCH  38  40
ATOM     40  N   UNL     1      38.606 -20.758 -36.437  0.00  0.00    -0.264 N 
ATOM     41  H   UNL     1      37.727 -20.451 -36.758  0.00  0.00    +0.000 HD
BRANCH  40  42
ATOM     42  C   UNL     1      39.845 -20.172 -36.822  0.00  0.00    +0.058 A 
ATOM     43  C   UNL     1      40.559 -20.747 -37.896  0.00  0.00    -0.003 A 
ATOM     44  C   UNL     1      41.738 -20.125 -38.301  0.00  0.00    +0.047 A 
ATOM     45  N   UNL     1      42.227 -19.018 -37.700  0.00  0.00    -0.251 NA
ATOM     46  C   UNL     1      41.551 -18.470 -36.679  0.00  0.00    +0.074 A 
ATOM     47  C   UNL     1      42.089 -17.336 -36.090  0.00  0.00    -0.017 A 
ATOM     48  C   UNL     1      41.445 -16.693 -35.036  0.00  0.00    +0.043 A 
ATOM     49 CL   UNL     1      42.147 -15.290 -34.332  0.00  0.00    -0.083 Cl
ATOM     50  C   UNL     1      40.236 -17.176 -34.557  0.00  0.00    -0.043 A 
ATOM     51  C   UNL     1      39.680 -18.316 -35.135  0.00  0.00    -0.049 A 
ATOM     52  C   UNL     1      40.333 -18.993 -36.196  0.00  0.00    +0.023 A 
ATOM     53  C   UNL     1      42.597 -20.687 -39.404  0.00  0.00    -0.010 C 
ATOM     54  C   UNL     1      41.854 -21.659 -40.314  0.00  0.00    -0.047 C 
ATOM     55  C   UNL     1      41.098 -22.677 -39.473  0.00  0.00    -0.049 C 
ATOM     56  C   UNL     1      40.049 -21.977 -38.610  0.00  0.00    -0.024 C 
ENDBRANCH  40  42
ENDBRANCH  38  40
ENDBRANCH  35  36
ENDBRANCH  34  35
ENDBRANCH  33  34
ENDBRANCH  32  33
ENDBRANCH  31  32
ENDBRANCH   3  31
TORSDOF 23
ENDMDL
MODEL 5
REMARK VINA RESULT:    -6.972      2.679      3.941
REMARK INTER + INTRA:          -9.568
REMARK INTER:                 -15.720
REMARK INTRA:                   6.152
REMARK UNBOUND:                 5.353
REMARK  Name = cpd107.pdb
REMARK  29 active torsions:
REMARK  status: ('A' for Active; 'I' for Inactive)
REMARK    1  A    between atoms: C_1  and  C_2
REMARK    2  A    between atoms: C_2  and  N_3
REMARK    3  A    between atoms: N_3  and  C_4
REMARK    4  A    between atoms: N_3  and  C_6
REMARK    5  A    between atoms: N_3  and  C_8
REMARK    6  A    between atoms: C_4  and  C_5
REMARK    7  A    between atoms: C_6  and  C_7
REMARK    8  A    between atoms: C_8  and  C_9
REMARK    9  A    between atoms: C_9  and  O_10
REMARK   10  A    between atoms: O_10  and  C_11
REMARK   11  A    between atoms: C_13  and  O_14
REMARK   12  A    between atoms: O_14  and  C_15
REMARK   13  A    between atoms: C_15  and  C_16
REMARK   14  A    between atoms: C_16  and  N_17
REMARK   15  A    between atoms: N_17  and  C_18
REMARK   16  A    between atoms: N_17  and  C_20
REMARK   17  A    between atoms: N_17  and  C_22
REMARK   18  A    between atoms: C_18  and  C_19
REMARK   19  A    between atoms: C_20  and  C_21
REMARK   20  A    between atoms: C_22  and  C_23
REMARK   21  A    between atoms: C_25  and  C_26
REMARK   22  A    between atoms: N_28  and  C_29
REMARK   23  A    between atoms: C_29  and  C_30
REMARK   24  A    between atoms: C_30  and  C_31
REMARK   25  A    between atoms: C_31  and  C_32
REMARK   26  A    between atoms: C_32  and  C_33
REMARK   27  A    between atoms: C_33  and  C_34
REMARK   28  A    between atoms: N_36  and  N_37
REMARK   29  A    between atoms: N_37  and  C_38
REMARK                            x       y       z     vdW  Elec       q    Type
REMARK                         _______ _______ _______ _____ _____    ______ ____
ROOT
ATOM      1  C   UNL     1      44.627 -18.916 -34.385  0.00  0.00    +0.244 C 
ATOM      2  O   UNL     1      44.819 -19.877 -33.651  0.00  0.00    -0.270 OA
ATOM      3  N   UNL     1      43.542 -18.069 -34.275  0.00  0.00    -0.311 N 
ATOM      4  H   UNL     1      43.439 -17.319 -34.904  0.00  0.00    +0.000 HD
ENDROOT
BRANCH   1   9
ATOM      5  C   UNL     1      46.881 -19.265 -37.401  0.00  0.00    +0.125 A 
ATOM      6  C   UNL     1      47.165 -17.917 -37.658  0.00  0.00    +0.022 A 
ATOM      7  C   UNL     1      46.694 -16.924 -36.796  0.00  0.00    +0.125 A 
ATOM      8  C   UNL     1      45.886 -17.259 -35.717  0.00  0.00    -0.008 A 
ATOM      9  C   UNL     1      45.639 -18.601 -35.427  0.00  0.00    +0.044 A 
ATOM     10  C   UNL     1      46.191 -19.605 -36.235  0.00  0.00    -0.008 A 
BRANCH   7  11
ATOM     11  O   UNL     1      46.887 -15.595 -37.064  0.00  0.00    -0.494 OA
BRANCH  11  12
ATOM     12  C   UNL     1      46.816 -15.333 -38.473  0.00  0.00    +0.075 C 
BRANCH  12  13
ATOM     13  C   UNL     1      48.198 -14.876 -38.989  0.00  0.00    -0.053 C 
BRANCH  13  14
ATOM     14  N   UNL     1      48.399 -13.303 -39.125  0.00  0.00    +0.382 N 
BRANCH  14  15
ATOM     15  C   UNL     1      49.586 -13.076 -40.103  0.00  0.00    -0.091 C 
ATOM     16  C   UNL     1      50.760 -12.289 -39.550  0.00  0.00    -0.080 C 
ENDBRANCH  14  15
BRANCH  14  17
ATOM     17  C   UNL     1      48.801 -12.765 -37.720  0.00  0.00    -0.091 C 
ATOM     18  C   UNL     1      47.731 -11.910 -37.058  0.00  0.00    -0.080 C 
ENDBRANCH  14  17
BRANCH  14  19
ATOM     19  C   UNL     1      47.085 -12.685 -39.663  0.00  0.00    -0.091 C 
ATOM     20  C   UNL     1      47.010 -12.493 -41.171  0.00  0.00    -0.080 C 
ENDBRANCH  14  19
ENDBRANCH  13  14
ENDBRANCH  12  13
ENDBRANCH  11  12
ENDBRANCH   7  11
BRANCH   5  21
ATOM     21  O   UNL     1      47.255 -20.138 -38.391  0.00  0.00    -0.494 OA
BRANCH  21  22
ATOM     22  C   UNL     1      46.263 -20.952 -39.037  0.00  0.00    +0.075 C 
BRANCH  22  23
ATOM     23  C   UNL     1      46.189 -20.654 -40.772  0.00  0.00    -0.053 C 
BRANCH  23  24
ATOM     24  N   UNL     1      46.325 -21.403 -41.420  0.00  0.00    +0.382 N 
BRANCH  24  26
ATOM     25  C   UNL     1      48.213 -19.866 -42.352  0.00  0.00    -0.080 C 
ATOM     26  C   UNL     1      47.268 -21.105 -41.567  0.00  0.00    -0.091 C 
ENDBRANCH  24  26
BRANCH  24  27
ATOM     27  C   UNL     1      45.382 -21.701 -41.273  0.00  0.00    -0.091 C 
ATOM     28  C   UNL     1      44.131 -21.040 -42.240  0.00  0.00    -0.080 C 
ENDBRANCH  24  27
BRANCH  24  29
ATOM     29  C   UNL     1      46.461 -22.153 -42.068  0.00  0.00    -0.091 C 
ATOM     30  C   UNL     1      47.372 -23.524 -41.598  0.00  0.00    -0.080 C 
ENDBRANCH  24  29
ENDBRANCH  23  24
ENDBRANCH  22  23
ENDBRANCH  21  22
ENDBRANCH   5  21
ENDBRANCH   1   9
BRANCH   3  31
ATOM     31  C   UNL     1      42.551 -18.284 -33.232  0.00  0.00    +0.012 C 
BRANCH  31  32
ATOM     32  C   UNL     1      41.411 -19.175 -33.709  0.00  0.00    -0.037 C 
BRANCH  32  33
ATOM     33  C   UNL     1      40.964 -20.169 -32.634  0.00  0.00    -0.051 C 
BRANCH  33  34
ATOM     34  C   UNL     1      41.807 -21.438 -32.734  0.00  0.00    -0.045 C 
BRANCH  34  35
ATOM     35  C   UNL     1      41.162 -22.656 -32.075  0.00  0.00    +0.025 C 
BRANCH  35  36
ATOM     36  C   UNL     1      40.313 -23.378 -33.101  0.00  0.00    +0.229 C 
ATOM     37  O   UNL     1      39.342 -24.062 -32.791  0.00  0.00    -0.274 OA
ATOM     38  N   UNL     1      40.688 -23.122 -34.412  0.00  0.00    -0.236 N 
ATOM     39  H   UNL     1      41.622 -22.944 -34.670  0.00  0.00    +0.000 HD
BRANCH  38  40
ATOM     40  N   UNL     1      39.630 -23.135 -35.350  0.00  0.00    -0.264 N 
ATOM     41  H   UNL     1      39.131 -23.943 -35.607  0.00  0.00    +0.000 HD
BRANCH  40  42
ATOM     42  C   UNL     1      39.374 -21.838 -35.877  0.00  0.00    +0.058 A 
ATOM     43  C   UNL     1      40.017 -21.457 -37.076  0.00  0.00    -0.003 A 
ATOM     44  C   UNL     1      39.708 -20.210 -37.612  0.00  0.00    +0.047 A 
ATOM     45  N   UNL     1      38.842 -19.354 -37.027  0.00  0.00    -0.251 NA
ATOM     46  C   UNL     1      38.231 -19.711 -35.888  0.00  0.00    +0.074 A 
ATOM     47  C   UNL     1      37.351 -18.803 -35.320  0.00  0.00    -0.017 A 
ATOM     48  C   UNL     1      36.661 -19.099 -34.148  0.00  0.00    +0.043 A 
ATOM     49 CL   UNL     1      35.580 -17.943 -33.475  0.00  0.00    -0.083 Cl
ATOM     50  C   UNL     1      36.835 -20.327 -33.526  0.00  0.00    -0.043 A 
ATOM     51  C   UNL     1      37.717 -21.253 -34.081  0.00  0.00    -0.049 A 
ATOM     52  C   UNL     1      38.441 -20.958 -35.263  0.00  0.00    +0.023 A 
ATOM     53  C   UNL     1      40.376 -19.692 -38.860  0.00  0.00    -0.010 C 
ATOM     54  C   UNL     1      41.013 -20.788 -39.706  0.00  0.00    -0.047 C 
ATOM     55  C   UNL     1      41.859 -21.694 -38.824  0.00  0.00    -0.049 C 
ATOM     56  C   UNL     1      40.984 -22.383 -37.777  0.00  0.00    -0.024 C 
ENDBRANCH  40  42
ENDBRANCH  38  40
ENDBRANCH  35  36
ENDBRANCH  34  35
ENDBRANCH  33  34
ENDBRANCH  32  33
ENDBRANCH  31  32
ENDBRANCH   3  31
TORSDOF 23
ENDMDL
MODEL 6
REMARK VINA RESULT:    -6.903      2.714      4.192
REMARK INTER + INTRA:          -9.419
REMARK INTER:                 -13.138
REMARK INTRA:                   3.719
REMARK UNBOUND:                 5.353
REMARK  Name = cpd107.pdb
REMARK  29 active torsions:
REMARK  status: ('A' for Active; 'I' for Inactive)
REMARK    1  A    between atoms: C_1  and  C_2
REMARK    2  A    between atoms: C_2  and  N_3
REMARK    3  A    between atoms: N_3  and  C_4
REMARK    4  A    between atoms: N_3  and  C_6
REMARK    5  A    between atoms: N_3  and  C_8
REMARK    6  A    between atoms: C_4  and  C_5
REMARK    7  A    between atoms: C_6  and  C_7
REMARK    8  A    between atoms: C_8  and  C_9
REMARK    9  A    between atoms: C_9  and  O_10
REMARK   10  A    between atoms: O_10  and  C_11
REMARK   11  A    between atoms: C_13  and  O_14
REMARK   12  A    between atoms: O_14  and  C_15
REMARK   13  A    between atoms: C_15  and  C_16
REMARK   14  A    between atoms: C_16  and  N_17
REMARK   15  A    between atoms: N_17  and  C_18
REMARK   16  A    between atoms: N_17  and  C_20
REMARK   17  A    between atoms: N_17  and  C_22
REMARK   18  A    between atoms: C_18  and  C_19
REMARK   19  A    between atoms: C_20  and  C_21
REMARK   20  A    between atoms: C_22  and  C_23
REMARK   21  A    between atoms: C_25  and  C_26
REMARK   22  A    between atoms: N_28  and  C_29
REMARK   23  A    between atoms: C_29  and  C_30
REMARK   24  A    between atoms: C_30  and  C_31
REMARK   25  A    between atoms: C_31  and  C_32
REMARK   26  A    between atoms: C_32  and  C_33
REMARK   27  A    between atoms: C_33  and  C_34
REMARK   28  A    between atoms: N_36  and  N_37
REMARK   29  A    between atoms: N_37  and  C_38
REMARK                            x       y       z     vdW  Elec       q    Type
REMARK                         _______ _______ _______ _____ _____    ______ ____
ROOT
ATOM      1  C   UNL     1      46.805 -17.897 -34.531  0.00  0.00    +0.244 C 
ATOM      2  O   UNL     1      47.746 -17.997 -33.753  0.00  0.00    -0.270 OA
ATOM      3  N   UNL     1      45.574 -17.376 -34.185  0.00  0.00    -0.311 N 
ATOM      4  H   UNL     1      44.854 -17.332 -34.854  0.00  0.00    +0.000 HD
ENDROOT
BRANCH   1   9
ATOM      5  C   UNL     1      46.762 -19.980 -37.686  0.00  0.00    +0.125 A 
ATOM      6  C   UNL     1      46.912 -18.975 -38.651  0.00  0.00    +0.022 A 
ATOM      7  C   UNL     1      47.113 -17.650 -38.258  0.00  0.00    +0.125 A 
ATOM      8  C   UNL     1      47.101 -17.309 -36.912  0.00  0.00    -0.008 A 
ATOM      9  C   UNL     1      47.001 -18.309 -35.945  0.00  0.00    +0.044 A 
ATOM     10  C   UNL     1      46.895 -19.652 -36.335  0.00  0.00    -0.008 A 
BRANCH   7  11
ATOM     11  O   UNL     1      47.184 -16.636 -39.176  0.00  0.00    -0.494 OA
BRANCH  11  12
ATOM     12  C   UNL     1      45.893 -16.052 -39.405  0.00  0.00    +0.075 C 
BRANCH  12  13
ATOM     13  C   UNL     1      45.792 -15.565 -40.867  0.00  0.00    -0.053 C 
BRANCH  13  14
ATOM     14  N   UNL     1      45.303 -14.063 -41.063  0.00  0.00    +0.382 N 
BRANCH  14  15
ATOM     15  C   UNL     1      43.957 -14.118 -41.840  0.00  0.00    -0.091 C 
ATOM     16  C   UNL     1      43.190 -15.425 -41.745  0.00  0.00    -0.080 C 
ENDBRANCH  14  15
BRANCH  14  17
ATOM     17  C   UNL     1      46.361 -13.345 -41.949  0.00  0.00    -0.091 C 
ATOM     18  C   UNL     1      45.801 -12.186 -42.762  0.00  0.00    -0.080 C 
ENDBRANCH  14  17
BRANCH  14  19
ATOM     19  C   UNL     1      45.134 -13.417 -39.666  0.00  0.00    -0.091 C 
ATOM     20  C   UNL     1      43.911 -12.528 -39.489  0.00  0.00    -0.080 C 
ENDBRANCH  14  19
ENDBRANCH  13  14
ENDBRANCH  12  13
ENDBRANCH  11  12
ENDBRANCH   7  11
BRANCH   5  21
ATOM     21  O   UNL     1      46.411 -21.213 -38.178  0.00  0.00    -0.494 OA
BRANCH  21  22
ATOM     22  C   UNL     1      46.473 -21.462 -39.591  0.00  0.00    +0.075 C 
BRANCH  22  23
ATOM     23  C   UNL     1      44.889 -21.836 -40.267  0.00  0.00    -0.053 C 
BRANCH  23  24
ATOM     24  N   UNL     1      44.398 -21.153 -40.809  0.00  0.00    +0.382 N 
BRANCH  24  26
ATOM     25  C   UNL     1      42.048 -21.884 -39.948  0.00  0.00    -0.080 C 
ATOM     26  C   UNL     1      43.635 -21.191 -40.164  0.00  0.00    -0.091 C 
ENDBRANCH  24  26
BRANCH  24  27
ATOM     27  C   UNL     1      45.161 -21.116 -41.454  0.00  0.00    -0.091 C 
ATOM     28  C   UNL     1      45.140 -22.121 -42.842  0.00  0.00    -0.080 C 
ENDBRANCH  24  27
BRANCH  24  29
ATOM     29  C   UNL     1      43.907 -20.471 -41.350  0.00  0.00    -0.091 C 
ATOM     30  C   UNL     1      43.987 -18.819 -40.908  0.00  0.00    -0.080 C 
ENDBRANCH  24  29
ENDBRANCH  23  24
ENDBRANCH  22  23
ENDBRANCH  21  22
ENDBRANCH   5  21
ENDBRANCH   1   9
BRANCH   3  31
ATOM     31  C   UNL     1      45.340 -16.891 -32.833  0.00  0.00    +0.012 C 
BRANCH  31  32
ATOM     32  C   UNL     1      43.982 -16.213 -32.703  0.00  0.00    -0.037 C 
BRANCH  32  33
ATOM     33  C   UNL     1      42.871 -17.001 -33.402  0.00  0.00    -0.051 C 
BRANCH  33  34
ATOM     34  C   UNL     1      41.952 -16.034 -34.143  0.00  0.00    -0.045 C 
BRANCH  34  35
ATOM     35  C   UNL     1      42.682 -14.839 -34.753  0.00  0.00    +0.025 C 
BRANCH  35  36
ATOM     36  C   UNL     1      43.300 -15.259 -36.070  0.00  0.00    +0.229 C 
ATOM     37  O   UNL     1      44.504 -15.464 -36.200  0.00  0.00    -0.274 OA
ATOM     38  N   UNL     1      42.370 -15.469 -37.078  0.00  0.00    -0.236 N 
ATOM     39  H   UNL     1      41.530 -14.958 -37.137  0.00  0.00    +0.000 HD
BRANCH  38  40
ATOM     40  N   UNL     1      42.719 -16.469 -38.015  0.00  0.00    -0.264 N 
ATOM     41  H   UNL     1      43.547 -16.461 -38.549  0.00  0.00    +0.000 HD
BRANCH  40  42
ATOM     42  C   UNL     1      41.730 -17.490 -38.093  0.00  0.00    +0.058 A 
ATOM     43  C   UNL     1      41.929 -18.680 -37.358  0.00  0.00    -0.003 A 
ATOM     44  C   UNL     1      40.924 -19.643 -37.396  0.00  0.00    +0.047 A 
ATOM     45  N   UNL     1      39.789 -19.492 -38.114  0.00  0.00    -0.251 NA
ATOM     46  C   UNL     1      39.598 -18.363 -38.813  0.00  0.00    +0.074 A 
ATOM     47  C   UNL     1      38.422 -18.250 -39.537  0.00  0.00    -0.017 A 
ATOM     48  C   UNL     1      38.134 -17.106 -40.277  0.00  0.00    +0.043 A 
ATOM     49 CL   UNL     1      36.664 -17.006 -41.163  0.00  0.00    -0.083 Cl
ATOM     50  C   UNL     1      39.026 -16.044 -40.296  0.00  0.00    -0.043 A 
ATOM     51  C   UNL     1      40.216 -16.140 -39.576  0.00  0.00    -0.049 A 
ATOM     52  C   UNL     1      40.531 -17.306 -38.833  0.00  0.00    +0.023 A 
ATOM     53  C   UNL     1      41.061 -20.965 -36.686  0.00  0.00    -0.010 C 
ATOM     54  C   UNL     1      42.117 -20.956 -35.586  0.00  0.00    -0.047 C 
ATOM     55  C   UNL     1      43.406 -20.345 -36.114  0.00  0.00    -0.049 C 
ATOM     56  C   UNL     1      43.174 -18.893 -36.530  0.00  0.00    -0.024 C 
ENDBRANCH  40  42
ENDBRANCH  38  40
ENDBRANCH  35  36
ENDBRANCH  34  35
ENDBRANCH  33  34
ENDBRANCH  32  33
ENDBRANCH  31  32
ENDBRANCH   3  31
TORSDOF 23
ENDMDL
MODEL 7
REMARK VINA RESULT:    -6.867      3.337      8.194
REMARK INTER + INTRA:          -9.343
REMARK INTER:                 -12.308
REMARK INTRA:                   2.965
REMARK UNBOUND:                 5.353
REMARK  Name = cpd107.pdb
REMARK  29 active torsions:
REMARK  status: ('A' for Active; 'I' for Inactive)
REMARK    1  A    between atoms: C_1  and  C_2
REMARK    2  A    between atoms: C_2  and  N_3
REMARK    3  A    between atoms: N_3  and  C_4
REMARK    4  A    between atoms: N_3  and  C_6
REMARK    5  A    between atoms: N_3  and  C_8
REMARK    6  A    between atoms: C_4  and  C_5
REMARK    7  A    between atoms: C_6  and  C_7
REMARK    8  A    between atoms: C_8  and  C_9
REMARK    9  A    between atoms: C_9  and  O_10
REMARK   10  A    between atoms: O_10  and  C_11
REMARK   11  A    between atoms: C_13  and  O_14
REMARK   12  A    between atoms: O_14  and  C_15
REMARK   13  A    between atoms: C_15  and  C_16
REMARK   14  A    between atoms: C_16  and  N_17
REMARK   15  A    between atoms: N_17  and  C_18
REMARK   16  A    between atoms: N_17  and  C_20
REMARK   17  A    between atoms: N_17  and  C_22
REMARK   18  A    between atoms: C_18  and  C_19
REMARK   19  A    between atoms: C_20  and  C_21
REMARK   20  A    between atoms: C_22  and  C_23
REMARK   21  A    between atoms: C_25  and  C_26
REMARK   22  A    between atoms: N_28  and  C_29
REMARK   23  A    between atoms: C_29  and  C_30
REMARK   24  A    between atoms: C_30  and  C_31
REMARK   25  A    between atoms: C_31  and  C_32
REMARK   26  A    between atoms: C_32  and  C_33
REMARK   27  A    between atoms: C_33  and  C_34
REMARK   28  A    between atoms: N_36  and  N_37
REMARK   29  A    between atoms: N_37  and  C_38
REMARK                            x       y       z     vdW  Elec       q    Type
REMARK                         _______ _______ _______ _____ _____    ______ ____
ROOT
ATOM      1  C   UNL     1      41.451 -16.634 -36.524  0.00  0.00    +0.244 C 
ATOM      2  O   UNL     1      40.878 -15.551 -36.525  0.00  0.00    -0.270 OA
ATOM      3  N   UNL     1      42.821 -16.779 -36.445  0.00  0.00    -0.311 N 
ATOM      4  H   UNL     1      43.222 -17.678 -36.459  0.00  0.00    +0.000 HD
ENDROOT
BRANCH   1   9
ATOM      5  C   UNL     1      38.468 -18.943 -36.793  0.00  0.00    +0.125 A 
ATOM      6  C   UNL     1      39.113 -20.150 -37.091  0.00  0.00    +0.022 A 
ATOM      7  C   UNL     1      40.508 -20.214 -37.112  0.00  0.00    +0.125 A 
ATOM      8  C   UNL     1      41.265 -19.069 -36.902  0.00  0.00    -0.008 A 
ATOM      9  C   UNL     1      40.632 -17.874 -36.558  0.00  0.00    +0.044 A 
ATOM     10  C   UNL     1      39.236 -17.830 -36.442  0.00  0.00    -0.008 A 
BRANCH   7  11
ATOM     11  O   UNL     1      41.166 -21.359 -37.477  0.00  0.00    -0.494 OA
BRANCH  11  12
ATOM     12  C   UNL     1      42.522 -21.081 -37.853  0.00  0.00    +0.075 C 
BRANCH  12  13
ATOM     13  C   UNL     1      42.760 -21.522 -39.314  0.00  0.00    -0.053 C 
BRANCH  13  14
ATOM     14  N   UNL     1      43.981 -20.822 -40.057  0.00  0.00    +0.382 N 
BRANCH  14  15
ATOM     15  C   UNL     1      43.572 -20.654 -41.548  0.00  0.00    -0.091 C 
ATOM     16  C   UNL     1      44.690 -20.808 -42.564  0.00  0.00    -0.080 C 
ENDBRANCH  14  15
BRANCH  14  17
ATOM     17  C   UNL     1      45.191 -21.797 -39.979  0.00  0.00    -0.091 C 
ATOM     18  C   UNL     1      46.442 -21.179 -39.373  0.00  0.00    -0.080 C 
ENDBRANCH  14  17
BRANCH  14  19
ATOM     19  C   UNL     1      44.250 -19.456 -39.379  0.00  0.00    -0.091 C 
ATOM     20  C   UNL     1      43.563 -18.254 -40.009  0.00  0.00    -0.080 C 
ENDBRANCH  14  19
ENDBRANCH  13  14
ENDBRANCH  12  13
ENDBRANCH  11  12
ENDBRANCH   7  11
BRANCH   5  21
ATOM     21  O   UNL     1      37.105 -18.953 -36.957  0.00  0.00    -0.494 OA
BRANCH  21  22
ATOM     22  C   UNL     1      36.251 -19.154 -35.821  0.00  0.00    +0.075 C 
BRANCH  22  23
ATOM     23  C   UNL     1      35.216 -17.760 -35.517  0.00  0.00    -0.053 C 
BRANCH  23  24
ATOM     24  N   UNL     1      35.311 -17.235 -34.671  0.00  0.00    +0.382 N 
BRANCH  24  26
ATOM     25  C   UNL     1      33.245 -18.425 -33.616  0.00  0.00    -0.080 C 
ATOM     26  C   UNL     1      34.832 -17.956 -34.170  0.00  0.00    -0.091 C 
ENDBRANCH  24  26
BRANCH  24  27
ATOM     27  C   UNL     1      35.790 -16.514 -35.173  0.00  0.00    -0.091 C 
ATOM     28  C   UNL     1      34.883 -15.360 -36.058  0.00  0.00    -0.080 C 
ENDBRANCH  24  27
BRANCH  24  29
ATOM     29  C   UNL     1      35.406 -16.710 -33.826  0.00  0.00    -0.091 C 
ATOM     30  C   UNL     1      36.768 -16.963 -32.820  0.00  0.00    -0.080 C 
ENDBRANCH  24  29
ENDBRANCH  23  24
ENDBRANCH  22  23
ENDBRANCH  21  22
ENDBRANCH   5  21
ENDBRANCH   1   9
BRANCH   3  31
ATOM     31  C   UNL     1      43.675 -15.605 -36.341  0.00  0.00    +0.012 C 
BRANCH  31  32
ATOM     32  C   UNL     1      45.080 -15.967 -35.875  0.00  0.00    -0.037 C 
BRANCH  32  33
ATOM     33  C   UNL     1      45.647 -17.173 -36.629  0.00  0.00    -0.051 C 
BRANCH  33  34
ATOM     34  C   UNL     1      46.093 -18.235 -35.628  0.00  0.00    -0.045 C 
BRANCH  34  35
ATOM     35  C   UNL     1      45.716 -19.658 -36.035  0.00  0.00    +0.025 C 
BRANCH  35  36
ATOM     36  C   UNL     1      45.306 -20.431 -34.798  0.00  0.00    +0.229 C 
ATOM     37  O   UNL     1      46.090 -20.690 -33.890  0.00  0.00    -0.274 OA
ATOM     38  N   UNL     1      43.953 -20.737 -34.759  0.00  0.00    -0.236 N 
ATOM     39  H   UNL     1      43.425 -20.908 -35.573  0.00  0.00    +0.000 HD
BRANCH  38  40
ATOM     40  N   UNL     1      43.388 -20.784 -33.463  0.00  0.00    -0.264 N 
ATOM     41  H   UNL     1      43.758 -21.311 -32.719  0.00  0.00    +0.000 HD
BRANCH  40  42
ATOM     42  C   UNL     1      42.220 -19.976 -33.365  0.00  0.00    +0.058 A 
ATOM     43  C   UNL     1      40.957 -20.600 -33.470  0.00  0.00    -0.003 A 
ATOM     44  C   UNL     1      39.824 -19.807 -33.309  0.00  0.00    +0.047 A 
ATOM     45  N   UNL     1      39.887 -18.477 -33.079  0.00  0.00    -0.251 NA
ATOM     46  C   UNL     1      41.084 -17.881 -32.979  0.00  0.00    +0.074 A 
ATOM     47  C   UNL     1      41.103 -16.515 -32.744  0.00  0.00    -0.017 A 
ATOM     48  C   UNL     1      42.302 -15.820 -32.610  0.00  0.00    +0.043 A 
ATOM     49 CL   UNL     1      42.281 -14.125 -32.321  0.00  0.00    -0.083 Cl
ATOM     50  C   UNL     1      43.513 -16.491 -32.702  0.00  0.00    -0.043 A 
ATOM     51  C   UNL     1      43.514 -17.864 -32.940  0.00  0.00    -0.049 A 
ATOM     52  C   UNL     1      42.302 -18.583 -33.097  0.00  0.00    +0.023 A 
ATOM     53  C   UNL     1      38.433 -20.367 -33.450  0.00  0.00    -0.010 C 
ATOM     54  C   UNL     1      38.372 -21.884 -33.302  0.00  0.00    -0.047 C 
ATOM     55  C   UNL     1      39.443 -22.529 -34.169  0.00  0.00    -0.049 C 
ATOM     56  C   UNL     1      40.833 -22.086 -33.714  0.00  0.00    -0.024 C 
ENDBRANCH  40  42
ENDBRANCH  38  40
ENDBRANCH  35  36
ENDBRANCH  34  35
ENDBRANCH  33  34
ENDBRANCH  32  33
ENDBRANCH  31  32
ENDBRANCH   3  31
TORSDOF 23
ENDMDL
MODEL 8
REMARK VINA RESULT:    -6.814      2.710      7.064
REMARK INTER + INTRA:          -9.228
REMARK INTER:                 -13.328
REMARK INTRA:                   4.100
REMARK UNBOUND:                 5.353
REMARK  Name = cpd107.pdb
REMARK  29 active torsions:
REMARK  status: ('A' for Active; 'I' for Inactive)
REMARK    1  A    between atoms: C_1  and  C_2
REMARK    2  A    between atoms: C_2  and  N_3
REMARK    3  A    between atoms: N_3  and  C_4
REMARK    4  A    between atoms: N_3  and  C_6
REMARK    5  A    between atoms: N_3  and  C_8
REMARK    6  A    between atoms: C_4  and  C_5
REMARK    7  A    between atoms: C_6  and  C_7
REMARK    8  A    between atoms: C_8  and  C_9
REMARK    9  A    between atoms: C_9  and  O_10
REMARK   10  A    between atoms: O_10  and  C_11
REMARK   11  A    between atoms: C_13  and  O_14
REMARK   12  A    between atoms: O_14  and  C_15
REMARK   13  A    between atoms: C_15  and  C_16
REMARK   14  A    between atoms: C_16  and  N_17
REMARK   15  A    between atoms: N_17  and  C_18
REMARK   16  A    between atoms: N_17  and  C_20
REMARK   17  A    between atoms: N_17  and  C_22
REMARK   18  A    between atoms: C_18  and  C_19
REMARK   19  A    between atoms: C_20  and  C_21
REMARK   20  A    between atoms: C_22  and  C_23
REMARK   21  A    between atoms: C_25  and  C_26
REMARK   22  A    between atoms: N_28  and  C_29
REMARK   23  A    between atoms: C_29  and  C_30
REMARK   24  A    between atoms: C_30  and  C_31
REMARK   25  A    between atoms: C_31  and  C_32
REMARK   26  A    between atoms: C_32  and  C_33
REMARK   27  A    between atoms: C_33  and  C_34
REMARK   28  A    between atoms: N_36  and  N_37
REMARK   29  A    between atoms: N_37  and  C_38
REMARK                            x       y       z     vdW  Elec       q    Type
REMARK                         _______ _______ _______ _____ _____    ______ ____
ROOT
ATOM      1  C   UNL     1      43.207 -16.835 -37.592  0.00  0.00    +0.244 C 
ATOM      2  O   UNL     1      42.985 -15.898 -38.350  0.00  0.00    -0.270 OA
ATOM      3  N   UNL     1      44.006 -16.742 -36.470  0.00  0.00    -0.311 N 
ATOM      4  H   UNL     1      44.154 -17.535 -35.906  0.00  0.00    +0.000 HD
ENDROOT
BRANCH   1   9
ATOM      5  C   UNL     1      40.535 -19.392 -38.377  0.00  0.00    +0.125 A 
ATOM      6  C   UNL     1      41.332 -20.463 -38.802  0.00  0.00    +0.022 A 
ATOM      7  C   UNL     1      42.724 -20.369 -38.742  0.00  0.00    +0.125 A 
ATOM      8  C   UNL     1      43.329 -19.191 -38.324  0.00  0.00    -0.008 A 
ATOM      9  C   UNL     1      42.544 -18.138 -37.854  0.00  0.00    +0.044 A 
ATOM     10  C   UNL     1      41.148 -18.266 -37.823  0.00  0.00    -0.008 A 
BRANCH   7  11
ATOM     11  O   UNL     1      43.530 -21.367 -39.224  0.00  0.00    -0.494 OA
BRANCH  11  12
ATOM     12  C   UNL     1      44.917 -21.026 -39.088  0.00  0.00    +0.075 C 
BRANCH  12  13
ATOM     13  C   UNL     1      45.724 -21.652 -40.246  0.00  0.00    -0.053 C 
BRANCH  13  14
ATOM     14  N   UNL     1      46.122 -20.661 -41.427  0.00  0.00    +0.382 N 
BRANCH  14  15
ATOM     15  C   UNL     1      45.827 -19.217 -40.930  0.00  0.00    -0.091 C 
ATOM     16  C   UNL     1      47.036 -18.399 -40.516  0.00  0.00    -0.080 C 
ENDBRANCH  14  15
BRANCH  14  17
ATOM     17  C   UNL     1      45.185 -20.976 -42.630  0.00  0.00    -0.091 C 
ATOM     18  C   UNL     1      43.976 -20.058 -42.725  0.00  0.00    -0.080 C 
ENDBRANCH  14  17
BRANCH  14  19
ATOM     19  C   UNL     1      47.622 -20.862 -41.751  0.00  0.00    -0.091 C 
ATOM     20  C   UNL     1      48.050 -22.288 -42.066  0.00  0.00    -0.080 C 
ENDBRANCH  14  19
ENDBRANCH  13  14
ENDBRANCH  12  13
ENDBRANCH  11  12
ENDBRANCH   7  11
BRANCH   5  21
ATOM     21  O   UNL     1      39.193 -19.529 -38.628  0.00  0.00    -0.494 OA
BRANCH  21  22
ATOM     22  C   UNL     1      38.269 -18.554 -38.121  0.00  0.00    +0.075 C 
BRANCH  22  23
ATOM     23  C   UNL     1      37.558 -17.583 -39.409  0.00  0.00    -0.053 C 
BRANCH  23  24
ATOM     24  N   UNL     1      37.270 -16.642 -39.231  0.00  0.00    +0.382 N 
BRANCH  24  26
ATOM     25  C   UNL     1      34.984 -17.758 -38.663  0.00  0.00    -0.080 C 
ATOM     26  C   UNL     1      36.318 -16.903 -39.392  0.00  0.00    -0.091 C 
ENDBRANCH  24  26
BRANCH  24  27
ATOM     27  C   UNL     1      38.222 -16.380 -39.070  0.00  0.00    -0.091 C 
ATOM     28  C   UNL     1      39.193 -15.887 -40.393  0.00  0.00    -0.080 C 
ENDBRANCH  24  27
BRANCH  24  29
ATOM     29  C   UNL     1      36.982 -15.701 -39.053  0.00  0.00    -0.091 C 
ATOM     30  C   UNL     1      36.974 -15.105 -37.448  0.00  0.00    -0.080 C 
ENDBRANCH  24  29
ENDBRANCH  23  24
ENDBRANCH  22  23
ENDBRANCH  21  22
ENDBRANCH   5  21
ENDBRANCH   1   9
BRANCH   3  31
ATOM     31  C   UNL     1      44.631 -15.475 -36.120  0.00  0.00    +0.012 C 
BRANCH  31  32
ATOM     32  C   UNL     1      46.141 -15.610 -35.973  0.00  0.00    -0.037 C 
BRANCH  32  33
ATOM     33  C   UNL     1      46.727 -16.641 -36.943  0.00  0.00    -0.051 C 
BRANCH  33  34
ATOM     34  C   UNL     1      47.516 -17.685 -36.158  0.00  0.00    -0.045 C 
BRANCH  34  35
ATOM     35  C   UNL     1      47.160 -19.125 -36.523  0.00  0.00    +0.025 C 
BRANCH  35  36
ATOM     36  C   UNL     1      46.809 -19.880 -35.257  0.00  0.00    +0.229 C 
ATOM     37  O   UNL     1      47.623 -20.084 -34.362  0.00  0.00    -0.274 OA
ATOM     38  N   UNL     1      45.470 -20.238 -35.178  0.00  0.00    -0.236 N 
ATOM     39  H   UNL     1      44.932 -20.453 -35.974  0.00  0.00    +0.000 HD
BRANCH  38  40
ATOM     40  N   UNL     1      44.937 -20.273 -33.868  0.00  0.00    -0.264 N 
ATOM     41  H   UNL     1      45.310 -20.815 -33.135  0.00  0.00    +0.000 HD
BRANCH  40  42
ATOM     42  C   UNL     1      43.797 -19.431 -33.738  0.00  0.00    +0.058 A 
ATOM     43  C   UNL     1      43.973 -18.136 -33.202  0.00  0.00    -0.003 A 
ATOM     44  C   UNL     1      42.859 -17.303 -33.139  0.00  0.00    +0.047 A 
ATOM     45  N   UNL     1      41.630 -17.687 -33.547  0.00  0.00    -0.251 NA
ATOM     46  C   UNL     1      41.460 -18.917 -34.055  0.00  0.00    +0.074 A 
ATOM     47  C   UNL     1      40.183 -19.272 -34.460  0.00  0.00    -0.017 A 
ATOM     48  C   UNL     1      39.921 -20.522 -35.015  0.00  0.00    +0.043 A 
ATOM     49 CL   UNL     1      38.321 -20.923 -35.503  0.00  0.00    -0.083 Cl
ATOM     50  C   UNL     1      40.945 -21.442 -35.182  0.00  0.00    -0.043 A 
ATOM     51  C   UNL     1      42.237 -21.104 -34.778  0.00  0.00    -0.049 A 
ATOM     52  C   UNL     1      42.516 -19.842 -34.195  0.00  0.00    +0.023 A 
ATOM     53  C   UNL     1      42.931 -15.922 -32.540  0.00  0.00    -0.010 C 
ATOM     54  C   UNL     1      44.349 -15.366 -32.468  0.00  0.00    -0.047 C 
ATOM     55  C   UNL     1      45.280 -16.405 -31.861  0.00  0.00    -0.049 C 
ATOM     56  C   UNL     1      45.328 -17.653 -32.742  0.00  0.00    -0.024 C 
ENDBRANCH  40  42
ENDBRANCH  38  40
ENDBRANCH  35  36
ENDBRANCH  34  35
ENDBRANCH  33  34
ENDBRANCH  32  33
ENDBRANCH  31  32
ENDBRANCH   3  31
TORSDOF 23
ENDMDL
MODEL 9
REMARK VINA RESULT:    -6.803      3.126      5.354
REMARK INTER + INTRA:          -9.204
REMARK INTER:                 -12.921
REMARK INTRA:                   3.716
REMARK UNBOUND:                 5.353
REMARK  Name = cpd107.pdb
REMARK  29 active torsions:
REMARK  status: ('A' for Active; 'I' for Inactive)
REMARK    1  A    between atoms: C_1  and  C_2
REMARK    2  A    between atoms: C_2  and  N_3
REMARK    3  A    between atoms: N_3  and  C_4
REMARK    4  A    between atoms: N_3  and  C_6
REMARK    5  A    between atoms: N_3  and  C_8
REMARK    6  A    between atoms: C_4  and  C_5
REMARK    7  A    between atoms: C_6  and  C_7
REMARK    8  A    between atoms: C_8  and  C_9
REMARK    9  A    between atoms: C_9  and  O_10
REMARK   10  A    between atoms: O_10  and  C_11
REMARK   11  A    between atoms: C_13  and  O_14
REMARK   12  A    between atoms: O_14  and  C_15
REMARK   13  A    between atoms: C_15  and  C_16
REMARK   14  A    between atoms: C_16  and  N_17
REMARK   15  A    between atoms: N_17  and  C_18
REMARK   16  A    between atoms: N_17  and  C_20
REMARK   17  A    between atoms: N_17  and  C_22
REMARK   18  A    between atoms: C_18  and  C_19
REMARK   19  A    between atoms: C_20  and  C_21
REMARK   20  A    between atoms: C_22  and  C_23
REMARK   21  A    between atoms: C_25  and  C_26
REMARK   22  A    between atoms: N_28  and  C_29
REMARK   23  A    between atoms: C_29  and  C_30
REMARK   24  A    between atoms: C_30  and  C_31
REMARK   25  A    between atoms: C_31  and  C_32
REMARK   26  A    between atoms: C_32  and  C_33
REMARK   27  A    between atoms: C_33  and  C_34
REMARK   28  A    between atoms: N_36  and  N_37
REMARK   29  A    between atoms: N_37  and  C_38
REMARK                            x       y       z     vdW  Elec       q    Type
REMARK                         _______ _______ _______ _____ _____    ______ ____
ROOT
ATOM      1  C   UNL     1      40.509 -16.705 -38.682  0.00  0.00    +0.244 C 
ATOM      2  O   UNL     1      39.457 -16.879 -39.285  0.00  0.00    -0.270 OA
ATOM      3  N   UNL     1      40.637 -16.822 -37.313  0.00  0.00    -0.311 N 
ATOM      4  H   UNL     1      41.509 -16.660 -36.886  0.00  0.00    +0.000 HD
ENDROOT
BRANCH   1   9
ATOM      5  C   UNL     1      43.400 -17.083 -41.090  0.00  0.00    +0.125 A 
ATOM      6  C   UNL     1      43.743 -15.738 -41.280  0.00  0.00    +0.022 A 
ATOM      7  C   UNL     1      43.090 -14.738 -40.557  0.00  0.00    +0.125 A 
ATOM      8  C   UNL     1      42.052 -15.062 -39.693  0.00  0.00    -0.008 A 
ATOM      9  C   UNL     1      41.737 -16.402 -39.462  0.00  0.00    +0.044 A 
ATOM     10  C   UNL     1      42.456 -17.413 -40.114  0.00  0.00    -0.008 A 
BRANCH   7  11
ATOM     11  O   UNL     1      43.348 -13.411 -40.778  0.00  0.00    -0.494 OA
BRANCH  11  12
ATOM     12  C   UNL     1      44.725 -13.200 -41.124  0.00  0.00    +0.075 C 
BRANCH  12  13
ATOM     13  C   UNL     1      45.569 -13.055 -39.839  0.00  0.00    -0.053 C 
BRANCH  13  14
ATOM     14  N   UNL     1      46.935 -13.872 -39.813  0.00  0.00    +0.382 N 
BRANCH  14  15
ATOM     15  C   UNL     1      47.182 -14.395 -41.257  0.00  0.00    -0.091 C 
ATOM     16  C   UNL     1      47.518 -15.871 -41.378  0.00  0.00    -0.080 C 
ENDBRANCH  14  15
BRANCH  14  17
ATOM     17  C   UNL     1      46.726 -15.092 -38.870  0.00  0.00    -0.091 C 
ATOM     18  C   UNL     1      45.515 -14.965 -37.957  0.00  0.00    -0.080 C 
ENDBRANCH  14  17
BRANCH  14  19
ATOM     19  C   UNL     1      48.065 -12.923 -39.346  0.00  0.00    -0.091 C 
ATOM     20  C   UNL     1      48.979 -13.463 -38.255  0.00  0.00    -0.080 C 
ENDBRANCH  14  19
ENDBRANCH  13  14
ENDBRANCH  12  13
ENDBRANCH  11  12
ENDBRANCH   7  11
BRANCH   5  21
ATOM     21  O   UNL     1      43.987 -17.964 -41.963  0.00  0.00    -0.494 OA
BRANCH  21  22
ATOM     22  C   UNL     1      45.090 -18.773 -41.526  0.00  0.00    +0.075 C 
BRANCH  22  23
ATOM     23  C   UNL     1      44.731 -20.496 -41.633  0.00  0.00    -0.053 C 
BRANCH  23  24
ATOM     24  N   UNL     1      44.924 -21.100 -40.861  0.00  0.00    +0.382 N 
BRANCH  24  26
ATOM     25  C   UNL     1      46.719 -22.398 -42.235  0.00  0.00    -0.080 C 
ATOM     26  C   UNL     1      45.837 -21.280 -41.228  0.00  0.00    -0.091 C 
ENDBRANCH  24  26
BRANCH  24  27
ATOM     27  C   UNL     1      44.012 -20.921 -40.493  0.00  0.00    -0.091 C 
ATOM     28  C   UNL     1      42.646 -21.627 -41.251  0.00  0.00    -0.080 C 
ENDBRANCH  24  27
BRANCH  24  29
ATOM     29  C   UNL     1      45.117 -21.705 -40.088  0.00  0.00    -0.091 C 
ATOM     30  C   UNL     1      45.967 -21.102 -38.730  0.00  0.00    -0.080 C 
ENDBRANCH  24  29
ENDBRANCH  23  24
ENDBRANCH  22  23
ENDBRANCH  21  22
ENDBRANCH   5  21
ENDBRANCH   1   9
BRANCH   3  31
ATOM     31  C   UNL     1      39.487 -17.184 -36.498  0.00  0.00    +0.012 C 
BRANCH  31  32
ATOM     32  C   UNL     1      39.904 -17.689 -35.123  0.00  0.00    -0.037 C 
BRANCH  32  33
ATOM     33  C   UNL     1      38.801 -18.510 -34.449  0.00  0.00    -0.051 C 
BRANCH  33  34
ATOM     34  C   UNL     1      39.171 -18.756 -32.989  0.00  0.00    -0.045 C 
BRANCH  34  35
ATOM     35  C   UNL     1      38.594 -20.051 -32.420  0.00  0.00    +0.025 C 
BRANCH  35  36
ATOM     36  C   UNL     1      39.582 -21.175 -32.655  0.00  0.00    +0.229 C 
ATOM     37  O   UNL     1      39.242 -22.353 -32.710  0.00  0.00    -0.274 OA
ATOM     38  N   UNL     1      40.878 -20.736 -32.882  0.00  0.00    -0.236 N 
ATOM     39  H   UNL     1      41.241 -19.920 -32.467  0.00  0.00    +0.000 HD
BRANCH  38  40
ATOM     40  N   UNL     1      41.640 -21.548 -33.754  0.00  0.00    -0.264 N 
ATOM     41  H   UNL     1      41.880 -22.485 -33.567  0.00  0.00    +0.000 HD
BRANCH  40  42
ATOM     42  C   UNL     1      42.019 -20.848 -34.935  0.00  0.00    +0.058 A 
ATOM     43  C   UNL     1      41.219 -20.993 -36.090  0.00  0.00    -0.003 A 
ATOM     44  C   UNL     1      41.566 -20.254 -37.218  0.00  0.00    +0.047 A 
ATOM     45  N   UNL     1      42.636 -19.429 -37.254  0.00  0.00    -0.251 NA
ATOM     46  C   UNL     1      43.398 -19.290 -36.159  0.00  0.00    +0.074 A 
ATOM     47  C   UNL     1      44.486 -18.436 -36.239  0.00  0.00    -0.017 A 
ATOM     48  C   UNL     1      45.319 -18.219 -35.144  0.00  0.00    +0.043 A 
ATOM     49 CL   UNL     1      46.660 -17.152 -35.286  0.00  0.00    -0.083 Cl
ATOM     50  C   UNL     1      45.067 -18.856 -33.938  0.00  0.00    -0.043 A 
ATOM     51  C   UNL     1      43.978 -19.721 -33.838  0.00  0.00    -0.049 A 
ATOM     52  C   UNL     1      43.132 -19.965 -34.949  0.00  0.00    +0.023 A 
ATOM     53  C   UNL     1      40.807 -20.374 -38.514  0.00  0.00    -0.010 C 
ATOM     54  C   UNL     1      39.412 -20.966 -38.346  0.00  0.00    -0.047 C 
ATOM     55  C   UNL     1      39.485 -22.226 -37.497  0.00  0.00    -0.049 C 
ATOM     56  C   UNL     1      40.005 -21.893 -36.099  0.00  0.00    -0.024 C 
ENDBRANCH  40  42
ENDBRANCH  38  40
ENDBRANCH  35  36
ENDBRANCH  34  35
ENDBRANCH  33  34
ENDBRANCH  32  33
ENDBRANCH  31  32
ENDBRANCH   3  31
TORSDOF 23
ENDMDL
MODEL 10
REMARK VINA RESULT:    -6.800      3.295      7.967
REMARK INTER + INTRA:          -9.198
REMARK INTER:                 -12.816
REMARK INTRA:                   3.618
REMARK UNBOUND:                 5.353
REMARK  Name = cpd107.pdb
REMARK  29 active torsions:
REMARK  status: ('A' for Active; 'I' for Inactive)
REMARK    1  A    between atoms: C_1  and  C_2
REMARK    2  A    between atoms: C_2  and  N_3
REMARK    3  A    between atoms: N_3  and  C_4
REMARK    4  A    between atoms: N_3  and  C_6
REMARK    5  A    between atoms: N_3  and  C_8
REMARK    6  A    between atoms: C_4  and  C_5
REMARK    7  A    between atoms: C_6  and  C_7
REMARK    8  A    between atoms: C_8  and  C_9
REMARK    9  A    between atoms: C_9  and  O_10
REMARK   10  A    between atoms: O_10  and  C_11
REMARK   11  A    between atoms: C_13  and  O_14
REMARK   12  A    between atoms: O_14  and  C_15
REMARK   13  A    between atoms: C_15  and  C_16
REMARK   14  A    between atoms: C_16  and  N_17
REMARK   15  A    between atoms: N_17  and  C_18
REMARK   16  A    between atoms: N_17  and  C_20
REMARK   17  A    between atoms: N_17  and  C_22
REMARK   18  A    between atoms: C_18  and  C_19
REMARK   19  A    between atoms: C_20  and  C_21
REMARK   20  A    between atoms: C_22  and  C_23
REMARK   21  A    between atoms: C_25  and  C_26
REMARK   22  A    between atoms: N_28  and  C_29
REMARK   23  A    between atoms: C_29  and  C_30
REMARK   24  A    between atoms: C_30  and  C_31
REMARK   25  A    between atoms: C_31  and  C_32
REMARK   26  A    between atoms: C_32  and  C_33
REMARK   27  A    between atoms: C_33  and  C_34
REMARK   28  A    between atoms: N_36  and  N_37
REMARK   29  A    between atoms: N_37  and  C_38
REMARK                            x       y       z     vdW  Elec       q    Type
REMARK                         _______ _______ _______ _____ _____    ______ ____
ROOT
ATOM      1  C   UNL     1      46.294 -15.781 -36.692  0.00  0.00    +0.244 C 
ATOM      2  O   UNL     1      47.352 -15.418 -37.193  0.00  0.00    -0.270 OA
ATOM      3  N   UNL     1      45.177 -14.976 -36.590  0.00  0.00    -0.311 N 
ATOM      4  H   UNL     1      44.359 -15.323 -36.168  0.00  0.00    +0.000 HD
ENDROOT
BRANCH   1   9
ATOM      5  C   UNL     1      45.178 -18.791 -34.694  0.00  0.00    +0.125 A 
ATOM      6  C   UNL     1      45.562 -19.822 -35.561  0.00  0.00    +0.022 A 
ATOM      7  C   UNL     1      46.257 -19.528 -36.737  0.00  0.00    +0.125 A 
ATOM      8  C   UNL     1      46.513 -18.209 -37.088  0.00  0.00    -0.008 A 
ATOM      9  C   UNL     1      46.176 -17.181 -36.208  0.00  0.00    +0.044 A 
ATOM     10  C   UNL     1      45.566 -17.480 -34.982  0.00  0.00    -0.008 A 
BRANCH   7  11
ATOM     11  O   UNL     1      46.576 -20.506 -37.642  0.00  0.00    -0.494 OA
BRANCH  11  12
ATOM     12  C   UNL     1      46.119 -20.164 -38.959  0.00  0.00    +0.075 C 
BRANCH  12  13
ATOM     13  C   UNL     1      45.550 -21.419 -39.656  0.00  0.00    -0.053 C 
BRANCH  13  14
ATOM     14  N   UNL     1      44.965 -21.191 -41.119  0.00  0.00    +0.382 N 
BRANCH  14  15
ATOM     15  C   UNL     1      45.676 -22.206 -42.059  0.00  0.00    -0.091 C 
ATOM     16  C   UNL     1      46.813 -22.998 -41.440  0.00  0.00    -0.080 C 
ENDBRANCH  14  15
BRANCH  14  17
ATOM     17  C   UNL     1      45.357 -19.749 -41.554  0.00  0.00    -0.091 C 
ATOM     18  C   UNL     1      44.355 -19.096 -42.495  0.00  0.00    -0.080 C 
ENDBRANCH  14  17
BRANCH  14  19
ATOM     19  C   UNL     1      43.435 -21.423 -41.076  0.00  0.00    -0.091 C 
ATOM     20  C   UNL     1      42.837 -21.661 -39.697  0.00  0.00    -0.080 C 
ENDBRANCH  14  19
ENDBRANCH  13  14
ENDBRANCH  12  13
ENDBRANCH  11  12
ENDBRANCH   7  11
BRANCH   5  21
ATOM     21  O   UNL     1      44.366 -19.174 -33.656  0.00  0.00    -0.494 OA
BRANCH  21  22
ATOM     22  C   UNL     1      43.203 -19.975 -33.917  0.00  0.00    +0.075 C 
BRANCH  22  23
ATOM     23  C   UNL     1      41.732 -19.005 -33.973  0.00  0.00    -0.053 C 
BRANCH  23  24
ATOM     24  N   UNL     1      41.006 -19.226 -34.624  0.00  0.00    +0.382 N 
BRANCH  24  26
ATOM     25  C   UNL     1      41.878 -16.896 -35.402  0.00  0.00    -0.080 C 
ATOM     26  C   UNL     1      41.385 -18.564 -35.271  0.00  0.00    -0.091 C 
ENDBRANCH  24  26
BRANCH  24  27
ATOM     27  C   UNL     1      40.627 -19.888 -33.978  0.00  0.00    -0.091 C 
ATOM     28  C   UNL     1      39.419 -19.385 -32.870  0.00  0.00    -0.080 C 
ENDBRANCH  24  27
BRANCH  24  29
ATOM     29  C   UNL     1      40.280 -19.447 -35.276  0.00  0.00    -0.091 C 
ATOM     30  C   UNL     1      40.480 -20.761 -36.355  0.00  0.00    -0.080 C 
ENDBRANCH  24  29
ENDBRANCH  23  24
ENDBRANCH  22  23
ENDBRANCH  21  22
ENDBRANCH   5  21
ENDBRANCH   1   9
BRANCH   3  31
ATOM     31  C   UNL     1      45.206 -13.616 -37.107  0.00  0.00    +0.012 C 
BRANCH  31  32
ATOM     32  C   UNL     1      43.998 -13.319 -37.987  0.00  0.00    -0.037 C 
BRANCH  32  33
ATOM     33  C   UNL     1      42.720 -13.121 -37.167  0.00  0.00    -0.051 C 
BRANCH  33  34
ATOM     34  C   UNL     1      41.533 -12.950 -38.111  0.00  0.00    -0.045 C 
BRANCH  34  35
ATOM     35  C   UNL     1      41.606 -11.687 -38.967  0.00  0.00    +0.025 C 
BRANCH  35  36
ATOM     36  C   UNL     1      41.949 -12.077 -40.390  0.00  0.00    +0.229 C 
ATOM     37  O   UNL     1      42.718 -11.423 -41.088  0.00  0.00    -0.274 OA
ATOM     38  N   UNL     1      41.379 -13.278 -40.789  0.00  0.00    -0.236 N 
ATOM     39  H   UNL     1      40.507 -13.588 -40.452  0.00  0.00    +0.000 HD
BRANCH  38  40
ATOM     40  N   UNL     1      42.145 -14.025 -41.714  0.00  0.00    -0.264 N 
ATOM     41  H   UNL     1      42.046 -13.960 -42.692  0.00  0.00    +0.000 HD
BRANCH  40  42
ATOM     42  C   UNL     1      43.076 -14.882 -41.063  0.00  0.00    +0.058 A 
ATOM     43  C   UNL     1      42.579 -15.938 -40.267  0.00  0.00    -0.003 A 
ATOM     44  C   UNL     1      43.501 -16.805 -39.687  0.00  0.00    +0.047 A 
ATOM     45  N   UNL     1      44.836 -16.664 -39.838  0.00  0.00    -0.251 NA
ATOM     46  C   UNL     1      45.312 -15.662 -40.592  0.00  0.00    +0.074 A 
ATOM     47  C   UNL     1      46.687 -15.553 -40.720  0.00  0.00    -0.017 A 
ATOM     48  C   UNL     1      47.265 -14.553 -41.497  0.00  0.00    +0.043 A 
ATOM     49 CL   UNL     1      48.977 -14.452 -41.628  0.00  0.00    -0.083 Cl
ATOM     50  C   UNL     1      46.466 -13.643 -42.173  0.00  0.00    -0.043 A 
ATOM     51  C   UNL     1      45.080 -13.735 -42.055  0.00  0.00    -0.049 A 
ATOM     52  C   UNL     1      44.477 -14.736 -41.252  0.00  0.00    +0.023 A 
ATOM     53  C   UNL     1      43.075 -17.932 -38.783  0.00  0.00    -0.010 C 
ATOM     54  C   UNL     1      41.609 -18.320 -38.947  0.00  0.00    -0.047 C 
ATOM     55  C   UNL     1      40.739 -17.072 -38.913  0.00  0.00    -0.049 C 
ATOM     56  C   UNL     1      41.095 -16.146 -40.076  0.00  0.00    -0.024 C 
ENDBRANCH  40  42
ENDBRANCH  38  40
ENDBRANCH  35  36
ENDBRANCH  34  35
ENDBRANCH  33  34
ENDBRANCH  32  33
ENDBRANCH  31  32
ENDBRANCH   3  31
TORSDOF 23
ENDMDL
MODEL 11
REMARK VINA RESULT:    -6.777      2.711      9.030
REMARK INTER + INTRA:          -9.149
REMARK INTER:                 -14.103
REMARK INTRA:                   4.954
REMARK UNBOUND:                 5.353
REMARK  Name = cpd107.pdb
REMARK  29 active torsions:
REMARK  status: ('A' for Active; 'I' for Inactive)
REMARK    1  A    between atoms: C_1  and  C_2
REMARK    2  A    between atoms: C_2  and  N_3
REMARK    3  A    between atoms: N_3  and  C_4
REMARK    4  A    between atoms: N_3  and  C_6
REMARK    5  A    between atoms: N_3  and  C_8
REMARK    6  A    between atoms: C_4  and  C_5
REMARK    7  A    between atoms: C_6  and  C_7
REMARK    8  A    between atoms: C_8  and  C_9
REMARK    9  A    between atoms: C_9  and  O_10
REMARK   10  A    between atoms: O_10  and  C_11
REMARK   11  A    between atoms: C_13  and  O_14
REMARK   12  A    between atoms: O_14  and  C_15
REMARK   13  A    between atoms: C_15  and  C_16
REMARK   14  A    between atoms: C_16  and  N_17
REMARK   15  A    between atoms: N_17  and  C_18
REMARK   16  A    between atoms: N_17  and  C_20
REMARK   17  A    between atoms: N_17  and  C_22
REMARK   18  A    between atoms: C_18  and  C_19
REMARK   19  A    between atoms: C_20  and  C_21
REMARK   20  A    between atoms: C_22  and  C_23
REMARK   21  A    between atoms: C_25  and  C_26
REMARK   22  A    between atoms: N_28  and  C_29
REMARK   23  A    between atoms: C_29  and  C_30
REMARK   24  A    between atoms: C_30  and  C_31
REMARK   25  A    between atoms: C_31  and  C_32
REMARK   26  A    between atoms: C_32  and  C_33
REMARK   27  A    between atoms: C_33  and  C_34
REMARK   28  A    between atoms: N_36  and  N_37
REMARK   29  A    between atoms: N_37  and  C_38
REMARK                            x       y       z     vdW  Elec       q    Type
REMARK                         _______ _______ _______ _____ _____    ______ ____
ROOT
ATOM      1  C   UNL     1      43.068 -18.751 -39.446  0.00  0.00    +0.244 C 
ATOM      2  O   UNL     1      43.326 -19.656 -40.231  0.00  0.00    -0.270 OA
ATOM      3  N   UNL     1      43.015 -17.418 -39.801  0.00  0.00    -0.311 N 
ATOM      4  H   UNL     1      42.812 -16.736 -39.121  0.00  0.00    +0.000 HD
ENDROOT
BRANCH   1   9
ATOM      5  C   UNL     1      42.004 -18.409 -35.834  0.00  0.00    +0.125 A 
ATOM      6  C   UNL     1      41.675 -19.739 -35.543  0.00  0.00    +0.022 A 
ATOM      7  C   UNL     1      41.889 -20.739 -36.495  0.00  0.00    +0.125 A 
ATOM      8  C   UNL     1      42.366 -20.413 -37.758  0.00  0.00    -0.008 A 
ATOM      9  C   UNL     1      42.740 -19.098 -38.039  0.00  0.00    +0.044 A 
ATOM     10  C   UNL     1      42.617 -18.110 -37.053  0.00  0.00    -0.008 A 
BRANCH   7  11
ATOM     11  O   UNL     1      41.505 -22.034 -36.270  0.00  0.00    -0.494 OA
BRANCH  11  12
ATOM     12  C   UNL     1      40.104 -22.116 -35.970  0.00  0.00    +0.075 C 
BRANCH  12  13
ATOM     13  C   UNL     1      39.874 -21.836 -34.469  0.00  0.00    -0.053 C 
BRANCH  13  14
ATOM     14  N   UNL     1      39.038 -22.937 -33.681  0.00  0.00    +0.382 N 
BRANCH  14  15
ATOM     15  C   UNL     1      37.951 -22.185 -32.861  0.00  0.00    -0.091 C 
ATOM     16  C   UNL     1      37.202 -21.092 -33.600  0.00  0.00    -0.080 C 
ENDBRANCH  14  15
BRANCH  14  17
ATOM     17  C   UNL     1      40.014 -23.638 -32.691  0.00  0.00    -0.091 C 
ATOM     18  C   UNL     1      41.198 -22.775 -32.278  0.00  0.00    -0.080 C 
ENDBRANCH  14  17
BRANCH  14  19
ATOM     19  C   UNL     1      38.411 -23.907 -34.711  0.00  0.00    -0.091 C 
ATOM     20  C   UNL     1      37.609 -25.064 -34.133  0.00  0.00    -0.080 C 
ENDBRANCH  14  19
ENDBRANCH  13  14
ENDBRANCH  12  13
ENDBRANCH  11  12
ENDBRANCH   7  11
BRANCH   5  21
ATOM     21  O   UNL     1      41.606 -17.491 -34.894  0.00  0.00    -0.494 OA
BRANCH  21  22
ATOM     22  C   UNL     1      42.246 -16.208 -34.833  0.00  0.00    +0.075 C 
BRANCH  22  23
ATOM     23  C   UNL     1      42.861 -15.850 -33.220  0.00  0.00    -0.053 C 
BRANCH  23  24
ATOM     24  N   UNL     1      43.438 -15.047 -33.066  0.00  0.00    +0.382 N 
BRANCH  24  26
ATOM     25  C   UNL     1      41.442 -13.878 -31.864  0.00  0.00    -0.080 C 
ATOM     26  C   UNL     1      42.622 -14.473 -33.004  0.00  0.00    -0.091 C 
ENDBRANCH  24  26
BRANCH  24  27
ATOM     27  C   UNL     1      44.254 -15.622 -33.129  0.00  0.00    -0.091 C 
ATOM     28  C   UNL     1      45.023 -16.150 -31.691  0.00  0.00    -0.080 C 
ENDBRANCH  24  27
BRANCH  24  29
ATOM     29  C   UNL     1      44.015 -14.245 -32.912  0.00  0.00    -0.091 C 
ATOM     30  C   UNL     1      44.404 -13.216 -34.224  0.00  0.00    -0.080 C 
ENDBRANCH  24  29
ENDBRANCH  23  24
ENDBRANCH  22  23
ENDBRANCH  21  22
ENDBRANCH   5  21
ENDBRANCH   1   9
BRANCH   3  31
ATOM     31  C   UNL     1      43.260 -17.019 -41.179  0.00  0.00    +0.012 C 
BRANCH  31  32
ATOM     32  C   UNL     1      43.124 -15.513 -41.364  0.00  0.00    -0.037 C 
BRANCH  32  33
ATOM     33  C   UNL     1      42.888 -14.785 -40.037  0.00  0.00    -0.051 C 
BRANCH  33  34
ATOM     34  C   UNL     1      44.057 -13.845 -39.759  0.00  0.00    -0.045 C 
BRANCH  34  35
ATOM     35  C   UNL     1      44.836 -14.192 -38.491  0.00  0.00    +0.025 C 
BRANCH  35  36
ATOM     36  C   UNL     1      46.168 -14.796 -38.882  0.00  0.00    +0.229 C 
ATOM     37  O   UNL     1      47.226 -14.179 -38.793  0.00  0.00    -0.274 OA
ATOM     38  N   UNL     1      46.083 -16.127 -39.267  0.00  0.00    -0.236 N 
ATOM     39  H   UNL     1      45.289 -16.498 -39.718  0.00  0.00    +0.000 HD
BRANCH  38  40
ATOM     40  N   UNL     1      47.220 -16.911 -38.963  0.00  0.00    -0.264 N 
ATOM     41  H   UNL     1      48.146 -16.579 -39.005  0.00  0.00    +0.000 HD
BRANCH  40  42
ATOM     42  C   UNL     1      46.864 -18.238 -38.589  0.00  0.00    +0.058 A 
ATOM     43  C   UNL     1      46.532 -18.492 -37.240  0.00  0.00    -0.003 A 
ATOM     44  C   UNL     1      46.126 -19.781 -36.903  0.00  0.00    +0.047 A 
ATOM     45  N   UNL     1      46.057 -20.787 -37.801  0.00  0.00    -0.251 NA
ATOM     46  C   UNL     1      46.373 -20.549 -39.083  0.00  0.00    +0.074 A 
ATOM     47  C   UNL     1      46.290 -21.610 -39.971  0.00  0.00    -0.017 A 
ATOM     48  C   UNL     1      46.582 -21.447 -41.322  0.00  0.00    +0.043 A 
ATOM     49 CL   UNL     1      46.469 -22.789 -42.391  0.00  0.00    -0.083 Cl
ATOM     50  C   UNL     1      46.958 -20.204 -41.811  0.00  0.00    -0.043 A 
ATOM     51  C   UNL     1      47.049 -19.125 -40.933  0.00  0.00    -0.049 A 
ATOM     52  C   UNL     1      46.772 -19.280 -39.551  0.00  0.00    +0.023 A 
ATOM     53  C   UNL     1      45.798 -20.166 -35.483  0.00  0.00    -0.010 C 
ATOM     54  C   UNL     1      45.489 -18.972 -34.587  0.00  0.00    -0.047 C 
ATOM     55  C   UNL     1      46.563 -17.908 -34.758  0.00  0.00    -0.049 C 
ATOM     56  C   UNL     1      46.581 -17.399 -36.199  0.00  0.00    -0.024 C 
ENDBRANCH  40  42
ENDBRANCH  38  40
ENDBRANCH  35  36
ENDBRANCH  34  35
ENDBRANCH  33  34
ENDBRANCH  32  33
ENDBRANCH  31  32
ENDBRANCH   3  31
TORSDOF 23
ENDMDL
MODEL 12
REMARK VINA RESULT:    -6.672      2.798      6.713
REMARK INTER + INTRA:          -8.924
REMARK INTER:                 -12.489
REMARK INTRA:                   3.565
REMARK UNBOUND:                 5.353
REMARK  Name = cpd107.pdb
REMARK  29 active torsions:
REMARK  status: ('A' for Active; 'I' for Inactive)
REMARK    1  A    between atoms: C_1  and  C_2
REMARK    2  A    between atoms: C_2  and  N_3
REMARK    3  A    between atoms: N_3  and  C_4
REMARK    4  A    between atoms: N_3  and  C_6
REMARK    5  A    between atoms: N_3  and  C_8
REMARK    6  A    between atoms: C_4  and  C_5
REMARK    7  A    between atoms: C_6  and  C_7
REMARK    8  A    between atoms: C_8  and  C_9
REMARK    9  A    between atoms: C_9  and  O_10
REMARK   10  A    between atoms: O_10  and  C_11
REMARK   11  A    between atoms: C_13  and  O_14
REMARK   12  A    between atoms: O_14  and  C_15
REMARK   13  A    between atoms: C_15  and  C_16
REMARK   14  A    between atoms: C_16  and  N_17
REMARK   15  A    between atoms: N_17  and  C_18
REMARK   16  A    between atoms: N_17  and  C_20
REMARK   17  A    between atoms: N_17  and  C_22
REMARK   18  A    between atoms: C_18  and  C_19
REMARK   19  A    between atoms: C_20  and  C_21
REMARK   20  A    between atoms: C_22  and  C_23
REMARK   21  A    between atoms: C_25  and  C_26
REMARK   22  A    between atoms: N_28  and  C_29
REMARK   23  A    between atoms: C_29  and  C_30
REMARK   24  A    between atoms: C_30  and  C_31
REMARK   25  A    between atoms: C_31  and  C_32
REMARK   26  A    between atoms: C_32  and  C_33
REMARK   27  A    between atoms: C_33  and  C_34
REMARK   28  A    between atoms: N_36  and  N_37
REMARK   29  A    between atoms: N_37  and  C_38
REMARK                            x       y       z     vdW  Elec       q    Type
REMARK                         _______ _______ _______ _____ _____    ______ ____
ROOT
ATOM      1  C   UNL     1      45.037 -15.892 -36.080  0.00  0.00    +0.244 C 
ATOM      2  O   UNL     1      44.339 -15.272 -35.285  0.00  0.00    -0.270 OA
ATOM      3  N   UNL     1      45.994 -15.304 -36.882  0.00  0.00    -0.311 N 
ATOM      4  H   UNL     1      46.516 -15.856 -37.508  0.00  0.00    +0.000 HD
ENDROOT
BRANCH   1   9
ATOM      5  C   UNL     1      45.743 -19.517 -36.890  0.00  0.00    +0.125 A 
ATOM      6  C   UNL     1      44.925 -20.148 -35.945  0.00  0.00    +0.022 A 
ATOM      7  C   UNL     1      44.090 -19.389 -35.120  0.00  0.00    +0.125 A 
ATOM      8  C   UNL     1      44.115 -18.002 -35.186  0.00  0.00    -0.008 A 
ATOM      9  C   UNL     1      44.891 -17.369 -36.157  0.00  0.00    +0.044 A 
ATOM     10  C   UNL     1      45.656 -18.132 -37.050  0.00  0.00    -0.008 A 
BRANCH   7  11
ATOM     11  O   UNL     1      43.339 -19.971 -34.134  0.00  0.00    -0.494 OA
BRANCH  11  12
ATOM     12  C   UNL     1      41.951 -19.631 -34.270  0.00  0.00    +0.075 C 
BRANCH  12  13
ATOM     13  C   UNL     1      41.163 -20.159 -33.052  0.00  0.00    -0.053 C 
BRANCH  13  14
ATOM     14  N   UNL     1      39.832 -20.966 -33.386  0.00  0.00    +0.382 N 
BRANCH  14  15
ATOM     15  C   UNL     1      39.663 -20.947 -34.932  0.00  0.00    -0.091 C 
ATOM     16  C   UNL     1      39.780 -22.292 -35.628  0.00  0.00    -0.080 C 
ENDBRANCH  14  15
BRANCH  14  17
ATOM     17  C   UNL     1      38.646 -20.189 -32.745  0.00  0.00    -0.091 C 
ATOM     18  C   UNL     1      38.989 -18.760 -32.347  0.00  0.00    -0.080 C 
ENDBRANCH  14  17
BRANCH  14  19
ATOM     19  C   UNL     1      39.984 -22.408 -32.843  0.00  0.00    -0.091 C 
ATOM     20  C   UNL     1      41.356 -22.771 -32.296  0.00  0.00    -0.080 C 
ENDBRANCH  14  19
ENDBRANCH  13  14
ENDBRANCH  12  13
ENDBRANCH  11  12
ENDBRANCH   7  11
BRANCH   5  21
ATOM     21  O   UNL     1      46.634 -20.340 -37.532  0.00  0.00    -0.494 OA
BRANCH  21  22
ATOM     22  C   UNL     1      46.238 -21.026 -38.729  0.00  0.00    +0.075 C 
BRANCH  22  23
ATOM     23  C   UNL     1      47.267 -20.615 -40.100  0.00  0.00    -0.053 C 
BRANCH  23  24
ATOM     24  N   UNL     1      47.094 -21.015 -41.000  0.00  0.00    +0.382 N 
BRANCH  24  26
ATOM     25  C   UNL     1      48.783 -23.000 -40.975  0.00  0.00    -0.080 C 
ATOM     26  C   UNL     1      47.473 -21.886 -40.685  0.00  0.00    -0.091 C 
ENDBRANCH  24  26
BRANCH  24  27
ATOM     27  C   UNL     1      46.715 -20.145 -41.314  0.00  0.00    -0.091 C 
ATOM     28  C   UNL     1      47.777 -18.866 -41.730  0.00  0.00    -0.080 C 
ENDBRANCH  24  27
BRANCH  24  29
ATOM     29  C   UNL     1      46.920 -21.415 -41.899  0.00  0.00    -0.091 C 
ATOM     30  C   UNL     1      45.355 -21.994 -42.283  0.00  0.00    -0.080 C 
ENDBRANCH  24  29
ENDBRANCH  23  24
ENDBRANCH  22  23
ENDBRANCH  21  22
ENDBRANCH   5  21
ENDBRANCH   1   9
BRANCH   3  31
ATOM     31  C   UNL     1      46.233 -13.871 -36.805  0.00  0.00    +0.012 C 
BRANCH  31  32
ATOM     32  C   UNL     1      47.516 -13.472 -37.524  0.00  0.00    -0.037 C 
BRANCH  32  33
ATOM     33  C   UNL     1      48.248 -14.680 -38.115  0.00  0.00    -0.051 C 
BRANCH  33  34
ATOM     34  C   UNL     1      48.487 -14.450 -39.605  0.00  0.00    -0.045 C 
BRANCH  34  35
ATOM     35  C   UNL     1      47.813 -15.487 -40.502  0.00  0.00    +0.025 C 
BRANCH  35  36
ATOM     36  C   UNL     1      46.319 -15.238 -40.505  0.00  0.00    +0.229 C 
ATOM     37  O   UNL     1      45.820 -14.219 -40.973  0.00  0.00    -0.274 OA
ATOM     38  N   UNL     1      45.578 -16.301 -40.009  0.00  0.00    -0.236 N 
ATOM     39  H   UNL     1      45.916 -16.898 -39.303  0.00  0.00    +0.000 HD
BRANCH  38  40
ATOM     40  N   UNL     1      44.300 -16.464 -40.594  0.00  0.00    -0.264 N 
ATOM     41  H   UNL     1      44.122 -16.388 -41.559  0.00  0.00    +0.000 HD
BRANCH  40  42
ATOM     42  C   UNL     1      43.304 -16.750 -39.618  0.00  0.00    +0.058 A 
ATOM     43  C   UNL     1      42.931 -18.096 -39.410  0.00  0.00    -0.003 A 
ATOM     44  C   UNL     1      42.001 -18.366 -38.409  0.00  0.00    +0.047 A 
ATOM     45  N   UNL     1      41.435 -17.399 -37.654  0.00  0.00    -0.251 NA
ATOM     46  C   UNL     1      41.786 -16.119 -37.850  0.00  0.00    +0.074 A 
ATOM     47  C   UNL     1      41.180 -15.159 -37.055  0.00  0.00    -0.017 A 
ATOM     48  C   UNL     1      41.498 -13.810 -37.180  0.00  0.00    +0.043 A 
ATOM     49 CL   UNL     1      40.722 -12.650 -36.175  0.00  0.00    -0.083 Cl
ATOM     50  C   UNL     1      42.444 -13.398 -38.107  0.00  0.00    -0.043 A 
ATOM     51  C   UNL     1      43.063 -14.349 -38.918  0.00  0.00    -0.049 A 
ATOM     52  C   UNL     1      42.736 -15.724 -38.815  0.00  0.00    +0.023 A 
ATOM     53  C   UNL     1      41.502 -19.762 -38.140  0.00  0.00    -0.010 C 
ATOM     54  C   UNL     1      42.418 -20.849 -38.693  0.00  0.00    -0.047 C 
ATOM     55  C   UNL     1      42.777 -20.536 -40.137  0.00  0.00    -0.049 C 
ATOM     56  C   UNL     1      43.543 -19.216 -40.219  0.00  0.00    -0.024 C 
ENDBRANCH  40  42
ENDBRANCH  38  40
ENDBRANCH  35  36
ENDBRANCH  34  35
ENDBRANCH  33  34
ENDBRANCH  32  33
ENDBRANCH  31  32
ENDBRANCH   3  31
TORSDOF 23
ENDMDL
MODEL 13
REMARK VINA RESULT:    -6.669      2.332      3.916
REMARK INTER + INTRA:          -8.918
REMARK INTER:                 -13.959
REMARK INTRA:                   5.040
REMARK UNBOUND:                 5.353
REMARK  Name = cpd107.pdb
REMARK  29 active torsions:
REMARK  status: ('A' for Active; 'I' for Inactive)
REMARK    1  A    between atoms: C_1  and  C_2
REMARK    2  A    between atoms: C_2  and  N_3
REMARK    3  A    between atoms: N_3  and  C_4
REMARK    4  A    between atoms: N_3  and  C_6
REMARK    5  A    between atoms: N_3  and  C_8
REMARK    6  A    between atoms: C_4  and  C_5
REMARK    7  A    between atoms: C_6  and  C_7
REMARK    8  A    between atoms: C_8  and  C_9
REMARK    9  A    between atoms: C_9  and  O_10
REMARK   10  A    between atoms: O_10  and  C_11
REMARK   11  A    between atoms: C_13  and  O_14
REMARK   12  A    between atoms: O_14  and  C_15
REMARK   13  A    between atoms: C_15  and  C_16
REMARK   14  A    between atoms: C_16  and  N_17
REMARK   15  A    between atoms: N_17  and  C_18
REMARK   16  A    between atoms: N_17  and  C_20
REMARK   17  A    between atoms: N_17  and  C_22
REMARK   18  A    between atoms: C_18  and  C_19
REMARK   19  A    between atoms: C_20  and  C_21
REMARK   20  A    between atoms: C_22  and  C_23
REMARK   21  A    between atoms: C_25  and  C_26
REMARK   22  A    between atoms: N_28  and  C_29
REMARK   23  A    between atoms: C_29  and  C_30
REMARK   24  A    between atoms: C_30  and  C_31
REMARK   25  A    between atoms: C_31  and  C_32
REMARK   26  A    between atoms: C_32  and  C_33
REMARK   27  A    between atoms: C_33  and  C_34
REMARK   28  A    between atoms: N_36  and  N_37
REMARK   29  A    between atoms: N_37  and  C_38
REMARK                            x       y       z     vdW  Elec       q    Type
REMARK                         _______ _______ _______ _____ _____    ______ ____
ROOT
ATOM      1  C   UNL     1      43.973 -18.587 -34.155  0.00  0.00    +0.244 C 
ATOM      2  O   UNL     1      44.209 -18.236 -33.004  0.00  0.00    -0.270 OA
ATOM      3  N   UNL     1      42.701 -18.738 -34.666  0.00  0.00    -0.311 N 
ATOM      4  H   UNL     1      42.577 -19.033 -35.597  0.00  0.00    +0.000 HD
ENDROOT
BRANCH   1   9
ATOM      5  C   UNL     1      46.074 -20.012 -36.958  0.00  0.00    +0.125 A 
ATOM      6  C   UNL     1      47.011 -18.983 -37.115  0.00  0.00    +0.022 A 
ATOM      7  C   UNL     1      47.001 -17.886 -36.251  0.00  0.00    +0.125 A 
ATOM      8  C   UNL     1      46.022 -17.774 -35.272  0.00  0.00    -0.008 A 
ATOM      9  C   UNL     1      45.115 -18.817 -35.078  0.00  0.00    +0.044 A 
ATOM     10  C   UNL     1      45.184 -19.963 -35.882  0.00  0.00    -0.008 A 
BRANCH   7  11
ATOM     11  O   UNL     1      47.852 -16.828 -36.429  0.00  0.00    -0.494 OA
BRANCH  11  12
ATOM     12  C   UNL     1      47.145 -15.660 -36.871  0.00  0.00    +0.075 C 
BRANCH  12  13
ATOM     13  C   UNL     1      46.520 -15.924 -38.259  0.00  0.00    -0.053 C 
BRANCH  13  14
ATOM     14  N   UNL     1      46.857 -14.849 -39.384  0.00  0.00    +0.382 N 
BRANCH  14  15
ATOM     15  C   UNL     1      47.297 -15.636 -40.651  0.00  0.00    -0.091 C 
ATOM     16  C   UNL     1      46.728 -17.036 -40.793  0.00  0.00    -0.080 C 
ENDBRANCH  14  15
BRANCH  14  17
ATOM     17  C   UNL     1      48.064 -14.009 -38.874  0.00  0.00    -0.091 C 
ATOM     18  C   UNL     1      49.267 -14.032 -39.805  0.00  0.00    -0.080 C 
ENDBRANCH  14  17
BRANCH  14  19
ATOM     19  C   UNL     1      45.588 -14.001 -39.647  0.00  0.00    -0.091 C 
ATOM     20  C   UNL     1      44.409 -14.264 -38.722  0.00  0.00    -0.080 C 
ENDBRANCH  14  19
ENDBRANCH  13  14
ENDBRANCH  12  13
ENDBRANCH  11  12
ENDBRANCH   7  11
BRANCH   5  21
ATOM     21  O   UNL     1      46.072 -20.957 -37.953  0.00  0.00    -0.494 OA
BRANCH  21  22
ATOM     22  C   UNL     1      47.125 -20.968 -38.929  0.00  0.00    +0.075 C 
BRANCH  22  23
ATOM     23  C   UNL     1      46.517 -20.711 -40.563  0.00  0.00    -0.053 C 
BRANCH  23  24
ATOM     24  N   UNL     1      46.719 -21.371 -41.287  0.00  0.00    +0.382 N 
BRANCH  24  26
ATOM     25  C   UNL     1      44.238 -21.197 -42.070  0.00  0.00    -0.080 C 
ATOM     26  C   UNL     1      45.753 -21.630 -41.320  0.00  0.00    -0.091 C 
ENDBRANCH  24  26
BRANCH  24  27
ATOM     27  C   UNL     1      47.684 -21.113 -41.253  0.00  0.00    -0.091 C 
ATOM     28  C   UNL     1      48.277 -19.931 -42.343  0.00  0.00    -0.080 C 
ENDBRANCH  24  27
BRANCH  24  29
ATOM     29  C   UNL     1      46.920 -22.032 -42.010  0.00  0.00    -0.091 C 
ATOM     30  C   UNL     1      47.475 -23.598 -41.598  0.00  0.00    -0.080 C 
ENDBRANCH  24  29
ENDBRANCH  23  24
ENDBRANCH  22  23
ENDBRANCH  21  22
ENDBRANCH   5  21
ENDBRANCH   1   9
BRANCH   3  31
ATOM     31  C   UNL     1      41.540 -18.463 -33.832  0.00  0.00    +0.012 C 
BRANCH  31  32
ATOM     32  C   UNL     1      41.400 -19.478 -32.705  0.00  0.00    -0.037 C 
BRANCH  32  33
ATOM     33  C   UNL     1      40.425 -20.605 -33.059  0.00  0.00    -0.051 C 
BRANCH  33  34
ATOM     34  C   UNL     1      41.207 -21.811 -33.571  0.00  0.00    -0.045 C 
BRANCH  34  35
ATOM     35  C   UNL     1      40.324 -22.991 -33.971  0.00  0.00    +0.025 C 
BRANCH  35  36
ATOM     36  C   UNL     1      40.171 -23.003 -35.478  0.00  0.00    +0.229 C 
ATOM     37  O   UNL     1      39.372 -23.734 -36.056  0.00  0.00    -0.274 OA
ATOM     38  N   UNL     1      40.956 -22.058 -36.123  0.00  0.00    -0.236 N 
ATOM     39  H   UNL     1      41.834 -21.775 -35.778  0.00  0.00    +0.000 HD
BRANCH  38  40
ATOM     40  N   UNL     1      40.401 -21.531 -37.312  0.00  0.00    -0.264 N 
ATOM     41  H   UNL     1      40.139 -22.078 -38.088  0.00  0.00    +0.000 HD
BRANCH  40  42
ATOM     42  C   UNL     1      40.267 -20.115 -37.253  0.00  0.00    +0.058 A 
ATOM     43  C   UNL     1      41.198 -19.319 -37.955  0.00  0.00    -0.003 A 
ATOM     44  C   UNL     1      41.016 -17.939 -37.938  0.00  0.00    +0.047 A 
ATOM     45  N   UNL     1      40.008 -17.339 -37.268  0.00  0.00    -0.251 NA
ATOM     46  C   UNL     1      39.122 -18.093 -36.600  0.00  0.00    +0.074 A 
ATOM     47  C   UNL     1      38.104 -17.438 -35.925  0.00  0.00    -0.017 A 
ATOM     48  C   UNL     1      37.132 -18.143 -35.220  0.00  0.00    +0.043 A 
ATOM     49 CL   UNL     1      35.887 -17.292 -34.394  0.00  0.00    -0.083 Cl
ATOM     50  C   UNL     1      37.161 -19.529 -35.187  0.00  0.00    -0.043 A 
ATOM     51  C   UNL     1      38.178 -20.206 -35.858  0.00  0.00    -0.049 A 
ATOM     52  C   UNL     1      39.185 -19.501 -36.565  0.00  0.00    +0.023 A 
ATOM     53  C   UNL     1      41.981 -17.000 -38.615  0.00  0.00    -0.010 C 
ATOM     54  C   UNL     1      42.845 -17.678 -39.673  0.00  0.00    -0.047 C 
ATOM     55  C   UNL     1      43.444 -18.957 -39.107  0.00  0.00    -0.049 C 
ATOM     56  C   UNL     1      42.337 -19.940 -38.730  0.00  0.00    -0.024 C 
ENDBRANCH  40  42
ENDBRANCH  38  40
ENDBRANCH  35  36
ENDBRANCH  34  35
ENDBRANCH  33  34
ENDBRANCH  32  33
ENDBRANCH  31  32
ENDBRANCH   3  31
TORSDOF 23
ENDMDL
MODEL 14
REMARK VINA RESULT:    -6.667      2.497      8.483
REMARK INTER + INTRA:          -8.914
REMARK INTER:                 -13.507
REMARK INTRA:                   4.592
REMARK UNBOUND:                 5.353
REMARK  Name = cpd107.pdb
REMARK  29 active torsions:
REMARK  status: ('A' for Active; 'I' for Inactive)
REMARK    1  A    between atoms: C_1  and  C_2
REMARK    2  A    between atoms: C_2  and  N_3
REMARK    3  A    between atoms: N_3  and  C_4
REMARK    4  A    between atoms: N_3  and  C_6
REMARK    5  A    between atoms: N_3  and  C_8
REMARK    6  A    between atoms: C_4  and  C_5
REMARK    7  A    between atoms: C_6  and  C_7
REMARK    8  A    between atoms: C_8  and  C_9
REMARK    9  A    between atoms: C_9  and  O_10
REMARK   10  A    between atoms: O_10  and  C_11
REMARK   11  A    between atoms: C_13  and  O_14
REMARK   12  A    between atoms: O_14  and  C_15
REMARK   13  A    between atoms: C_15  and  C_16
REMARK   14  A    between atoms: C_16  and  N_17
REMARK   15  A    between atoms: N_17  and  C_18
REMARK   16  A    between atoms: N_17  and  C_20
REMARK   17  A    between atoms: N_17  and  C_22
REMARK   18  A    between atoms: C_18  and  C_19
REMARK   19  A    between atoms: C_20  and  C_21
REMARK   20  A    between atoms: C_22  and  C_23
REMARK   21  A    between atoms: C_25  and  C_26
REMARK   22  A    between atoms: N_28  and  C_29
REMARK   23  A    between atoms: C_29  and  C_30
REMARK   24  A    between atoms: C_30  and  C_31
REMARK   25  A    between atoms: C_31  and  C_32
REMARK   26  A    between atoms: C_32  and  C_33
REMARK   27  A    between atoms: C_33  and  C_34
REMARK   28  A    between atoms: N_36  and  N_37
REMARK   29  A    between atoms: N_37  and  C_38
REMARK                            x       y       z     vdW  Elec       q    Type
REMARK                         _______ _______ _______ _____ _____    ______ ____
ROOT
ATOM      1  C   UNL     1      41.642 -17.164 -38.625  0.00  0.00    +0.244 C 
ATOM      2  O   UNL     1      40.686 -16.703 -39.237  0.00  0.00    -0.270 OA
ATOM      3  N   UNL     1      42.958 -16.929 -38.967  0.00  0.00    -0.311 N 
ATOM      4  H   UNL     1      43.683 -17.337 -38.440  0.00  0.00    +0.000 HD
ENDROOT
BRANCH   1   9
ATOM      5  C   UNL     1      41.329 -20.155 -36.333  0.00  0.00    +0.125 A 
ATOM      6  C   UNL     1      41.373 -19.519 -35.085  0.00  0.00    +0.022 A 
ATOM      7  C   UNL     1      41.413 -18.125 -35.009  0.00  0.00    +0.125 A 
ATOM      8  C   UNL     1      41.477 -17.362 -36.168  0.00  0.00    -0.008 A 
ATOM      9  C   UNL     1      41.385 -17.985 -37.413  0.00  0.00    +0.044 A 
ATOM     10  C   UNL     1      41.248 -19.378 -37.490  0.00  0.00    -0.008 A 
BRANCH   7  11
ATOM     11  O   UNL     1      41.536 -17.478 -33.808  0.00  0.00    -0.494 OA
BRANCH  11  12
ATOM     12  C   UNL     1      41.056 -16.128 -33.895  0.00  0.00    +0.075 C 
BRANCH  12  13
ATOM     13  C   UNL     1      41.556 -15.318 -32.678  0.00  0.00    -0.053 C 
BRANCH  13  14
ATOM     14  N   UNL     1      42.925 -14.533 -32.887  0.00  0.00    +0.382 N 
BRANCH  14  15
ATOM     15  C   UNL     1      43.159 -14.421 -34.420  0.00  0.00    -0.091 C 
ATOM     16  C   UNL     1      44.418 -13.688 -34.847  0.00  0.00    -0.080 C 
ENDBRANCH  14  15
BRANCH  14  17
ATOM     17  C   UNL     1      44.057 -15.407 -32.272  0.00  0.00    -0.091 C 
ATOM     18  C   UNL     1      44.821 -14.725 -31.147  0.00  0.00    -0.080 C 
ENDBRANCH  14  17
BRANCH  14  19
ATOM     19  C   UNL     1      42.798 -13.141 -32.222  0.00  0.00    -0.091 C 
ATOM     20  C   UNL     1      41.521 -12.896 -31.432  0.00  0.00    -0.080 C 
ENDBRANCH  14  19
ENDBRANCH  13  14
ENDBRANCH  12  13
ENDBRANCH  11  12
ENDBRANCH   7  11
BRANCH   5  21
ATOM     21  O   UNL     1      41.453 -21.522 -36.295  0.00  0.00    -0.494 OA
BRANCH  21  22
ATOM     22  C   UNL     1      40.284 -22.341 -36.142  0.00  0.00    +0.075 C 
BRANCH  22  23
ATOM     23  C   UNL     1      40.236 -23.138 -34.570  0.00  0.00    -0.053 C 
BRANCH  23  24
ATOM     24  N   UNL     1      39.620 -22.807 -33.855  0.00  0.00    +0.382 N 
BRANCH  24  26
ATOM     25  C   UNL     1      41.312 -22.964 -31.877  0.00  0.00    -0.080 C 
ATOM     26  C   UNL     1      40.408 -22.529 -33.305  0.00  0.00    -0.091 C 
ENDBRANCH  24  26
BRANCH  24  27
ATOM     27  C   UNL     1      38.832 -23.085 -34.405  0.00  0.00    -0.091 C 
ATOM     28  C   UNL     1      38.049 -24.570 -34.062  0.00  0.00    -0.080 C 
ENDBRANCH  24  27
BRANCH  24  29
ATOM     29  C   UNL     1      39.004 -22.476 -33.140  0.00  0.00    -0.091 C 
ATOM     30  C   UNL     1      38.448 -20.858 -33.182  0.00  0.00    -0.080 C 
ENDBRANCH  24  29
ENDBRANCH  23  24
ENDBRANCH  22  23
ENDBRANCH  21  22
ENDBRANCH   5  21
ENDBRANCH   1   9
BRANCH   3  31
ATOM     31  C   UNL     1      43.278 -16.077 -40.103  0.00  0.00    +0.012 C 
BRANCH  31  32
ATOM     32  C   UNL     1      43.253 -16.852 -41.415  0.00  0.00    -0.037 C 
BRANCH  32  33
ATOM     33  C   UNL     1      44.498 -17.726 -41.594  0.00  0.00    -0.051 C 
BRANCH  33  34
ATOM     34  C   UNL     1      44.142 -19.182 -41.308  0.00  0.00    -0.045 C 
BRANCH  34  35
ATOM     35  C   UNL     1      45.072 -20.186 -41.987  0.00  0.00    +0.025 C 
BRANCH  35  36
ATOM     36  C   UNL     1      46.407 -20.184 -41.271  0.00  0.00    +0.229 C 
ATOM     37  O   UNL     1      47.477 -20.118 -41.867  0.00  0.00    -0.274 OA
ATOM     38  N   UNL     1      46.294 -20.180 -39.888  0.00  0.00    -0.236 N 
ATOM     39  H   UNL     1      45.549 -20.619 -39.416  0.00  0.00    +0.000 HD
BRANCH  38  40
ATOM     40  N   UNL     1      47.328 -19.498 -39.206  0.00  0.00    -0.264 N 
ATOM     41  H   UNL     1      48.281 -19.742 -39.262  0.00  0.00    +0.000 HD
BRANCH  40  42
ATOM     42  C   UNL     1      46.827 -18.416 -38.428  0.00  0.00    +0.058 A 
ATOM     43  C   UNL     1      46.865 -17.115 -38.978  0.00  0.00    -0.003 A 
ATOM     44  C   UNL     1      46.314 -16.078 -38.230  0.00  0.00    +0.047 A 
ATOM     45  N   UNL     1      45.770 -16.262 -37.008  0.00  0.00    -0.251 NA
ATOM     46  C   UNL     1      45.733 -17.496 -36.483  0.00  0.00    +0.074 A 
ATOM     47  C   UNL     1      45.167 -17.641 -35.226  0.00  0.00    -0.017 A 
ATOM     48  C   UNL     1      45.072 -18.888 -34.614  0.00  0.00    +0.043 A 
ATOM     49 CL   UNL     1      44.364 -19.024 -33.053  0.00  0.00    -0.083 Cl
ATOM     50  C   UNL     1      45.540 -20.022 -35.262  0.00  0.00    -0.043 A 
ATOM     51  C   UNL     1      46.114 -19.896 -36.526  0.00  0.00    -0.049 A 
ATOM     52  C   UNL     1      46.235 -18.630 -37.154  0.00  0.00    +0.023 A 
ATOM     53  C   UNL     1      46.348 -14.648 -38.706  0.00  0.00    -0.010 C 
ATOM     54  C   UNL     1      46.581 -14.515 -40.207  0.00  0.00    -0.047 C 
ATOM     55  C   UNL     1      47.756 -15.386 -40.627  0.00  0.00    -0.049 C 
ATOM     56  C   UNL     1      47.452 -16.857 -40.346  0.00  0.00    -0.024 C 
ENDBRANCH  40  42
ENDBRANCH  38  40
ENDBRANCH  35  36
ENDBRANCH  34  35
ENDBRANCH  33  34
ENDBRANCH  32  33
ENDBRANCH  31  32
ENDBRANCH   3  31
TORSDOF 23
ENDMDL
MODEL 15
REMARK VINA RESULT:    -6.642      2.328      5.873
REMARK INTER + INTRA:          -8.860
REMARK INTER:                 -14.703
REMARK INTRA:                   5.843
REMARK UNBOUND:                 5.353
REMARK  Name = cpd107.pdb
REMARK  29 active torsions:
REMARK  status: ('A' for Active; 'I' for Inactive)
REMARK    1  A    between atoms: C_1  and  C_2
REMARK    2  A    between atoms: C_2  and  N_3
REMARK    3  A    between atoms: N_3  and  C_4
REMARK    4  A    between atoms: N_3  and  C_6
REMARK    5  A    between atoms: N_3  and  C_8
REMARK    6  A    between atoms: C_4  and  C_5
REMARK    7  A    between atoms: C_6  and  C_7
REMARK    8  A    between atoms: C_8  and  C_9
REMARK    9  A    between atoms: C_9  and  O_10
REMARK   10  A    between atoms: O_10  and  C_11
REMARK   11  A    between atoms: C_13  and  O_14
REMARK   12  A    between atoms: O_14  and  C_15
REMARK   13  A    between atoms: C_15  and  C_16
REMARK   14  A    between atoms: C_16  and  N_17
REMARK   15  A    between atoms: N_17  and  C_18
REMARK   16  A    between atoms: N_17  and  C_20
REMARK   17  A    between atoms: N_17  and  C_22
REMARK   18  A    between atoms: C_18  and  C_19
REMARK   19  A    between atoms: C_20  and  C_21
REMARK   20  A    between atoms: C_22  and  C_23
REMARK   21  A    between atoms: C_25  and  C_26
REMARK   22  A    between atoms: N_28  and  C_29
REMARK   23  A    between atoms: C_29  and  C_30
REMARK   24  A    between atoms: C_30  and  C_31
REMARK   25  A    between atoms: C_31  and  C_32
REMARK   26  A    between atoms: C_32  and  C_33
REMARK   27  A    between atoms: C_33  and  C_34
REMARK   28  A    between atoms: N_36  and  N_37
REMARK   29  A    between atoms: N_37  and  C_38
REMARK                            x       y       z     vdW  Elec       q    Type
REMARK                         _______ _______ _______ _____ _____    ______ ____
ROOT
ATOM      1  C   UNL     1      44.203 -17.398 -39.176  0.00  0.00    +0.244 C 
ATOM      2  O   UNL     1      44.566 -16.693 -40.110  0.00  0.00    -0.270 OA
ATOM      3  N   UNL     1      44.387 -17.070 -37.848  0.00  0.00    -0.311 N 
ATOM      4  H   UNL     1      44.081 -17.684 -37.143  0.00  0.00    +0.000 HD
ENDROOT
BRANCH   1   9
ATOM      5  C   UNL     1      43.382 -20.801 -40.607  0.00  0.00    +0.125 A 
ATOM      6  C   UNL     1      42.389 -21.216 -39.710  0.00  0.00    +0.022 A 
ATOM      7  C   UNL     1      41.939 -20.350 -38.711  0.00  0.00    +0.125 A 
ATOM      8  C   UNL     1      42.518 -19.097 -38.557  0.00  0.00    -0.008 A 
ATOM      9  C   UNL     1      43.474 -18.658 -39.475  0.00  0.00    +0.044 A 
ATOM     10  C   UNL     1      43.857 -19.489 -40.537  0.00  0.00    -0.008 A 
BRANCH   7  11
ATOM     11  O   UNL     1      41.028 -20.754 -37.772  0.00  0.00    -0.494 OA
BRANCH  11  12
ATOM     12  C   UNL     1      39.686 -20.643 -38.269  0.00  0.00    +0.075 C 
BRANCH  12  13
ATOM     13  C   UNL     1      38.771 -20.051 -37.174  0.00  0.00    -0.053 C 
BRANCH  13  14
ATOM     14  N   UNL     1      38.560 -18.474 -37.227  0.00  0.00    +0.382 N 
BRANCH  14  15
ATOM     15  C   UNL     1      39.251 -17.879 -35.968  0.00  0.00    -0.091 C 
ATOM     16  C   UNL     1      40.576 -17.177 -36.208  0.00  0.00    -0.080 C 
ENDBRANCH  14  15
BRANCH  14  17
ATOM     17  C   UNL     1      37.030 -18.209 -37.129  0.00  0.00    -0.091 C 
ATOM     18  C   UNL     1      36.631 -17.336 -35.948  0.00  0.00    -0.080 C 
ENDBRANCH  14  17
BRANCH  14  19
ATOM     19  C   UNL     1      39.192 -17.939 -38.536  0.00  0.00    -0.091 C 
ATOM     20  C   UNL     1      38.347 -16.950 -39.325  0.00  0.00    -0.080 C 
ENDBRANCH  14  19
ENDBRANCH  13  14
ENDBRANCH  12  13
ENDBRANCH  11  12
ENDBRANCH   7  11
BRANCH   5  21
ATOM     21  O   UNL     1      43.860 -21.780 -41.442  0.00  0.00    -0.494 OA
BRANCH  21  22
ATOM     22  C   UNL     1      45.183 -21.668 -41.989  0.00  0.00    +0.075 C 
BRANCH  22  23
ATOM     23  C   UNL     1      46.392 -22.434 -40.961  0.00  0.00    -0.053 C 
BRANCH  23  24
ATOM     24  N   UNL     1      47.306 -22.038 -40.876  0.00  0.00    +0.382 N 
BRANCH  24  26
ATOM     25  C   UNL     1      47.805 -23.808 -42.723  0.00  0.00    -0.080 C 
ATOM     26  C   UNL     1      47.529 -22.356 -41.797  0.00  0.00    -0.091 C 
ENDBRANCH  24  26
BRANCH  24  27
ATOM     27  C   UNL     1      47.083 -21.721 -39.954  0.00  0.00    -0.091 C 
ATOM     28  C   UNL     1      47.057 -20.038 -39.628  0.00  0.00    -0.080 C 
ENDBRANCH  24  27
BRANCH  24  29
ATOM     29  C   UNL     1      48.221 -21.642 -40.791  0.00  0.00    -0.091 C 
ATOM     30  C   UNL     1      49.484 -22.567 -40.098  0.00  0.00    -0.080 C 
ENDBRANCH  24  29
ENDBRANCH  23  24
ENDBRANCH  22  23
ENDBRANCH  21  22
ENDBRANCH   5  21
ENDBRANCH   1   9
BRANCH   3  31
ATOM     31  C   UNL     1      45.034 -15.817 -37.488  0.00  0.00    +0.012 C 
BRANCH  31  32
ATOM     32  C   UNL     1      46.261 -16.044 -36.614  0.00  0.00    -0.037 C 
BRANCH  32  33
ATOM     33  C   UNL     1      47.016 -17.321 -36.996  0.00  0.00    -0.051 C 
BRANCH  33  34
ATOM     34  C   UNL     1      47.269 -18.155 -35.744  0.00  0.00    -0.045 C 
BRANCH  34  35
ATOM     35  C   UNL     1      46.755 -19.590 -35.849  0.00  0.00    +0.025 C 
BRANCH  35  36
ATOM     36  C   UNL     1      45.778 -19.846 -34.720  0.00  0.00    +0.229 C 
ATOM     37  O   UNL     1      45.718 -20.921 -34.129  0.00  0.00    -0.274 OA
ATOM     38  N   UNL     1      45.028 -18.732 -34.371  0.00  0.00    -0.236 N 
ATOM     39  H   UNL     1      44.763 -18.046 -35.026  0.00  0.00    +0.000 HD
BRANCH  38  40
ATOM     40  N   UNL     1      44.672 -18.655 -33.004  0.00  0.00    -0.264 N 
ATOM     41  H   UNL     1      45.259 -18.934 -32.265  0.00  0.00    +0.000 HD
BRANCH  40  42
ATOM     42  C   UNL     1      43.363 -18.124 -32.827  0.00  0.00    +0.058 A 
ATOM     43  C   UNL     1      43.206 -16.721 -32.775  0.00  0.00    -0.003 A 
ATOM     44  C   UNL     1      41.913 -16.216 -32.664  0.00  0.00    +0.047 A 
ATOM     45  N   UNL     1      40.820 -17.007 -32.585  0.00  0.00    -0.251 NA
ATOM     46  C   UNL     1      40.967 -18.340 -32.632  0.00  0.00    +0.074 A 
ATOM     47  C   UNL     1      39.821 -19.114 -32.546  0.00  0.00    -0.017 A 
ATOM     48  C   UNL     1      39.880 -20.504 -32.604  0.00  0.00    +0.043 A 
ATOM     49 CL   UNL     1      38.434 -21.428 -32.492  0.00  0.00    -0.083 Cl
ATOM     50  C   UNL     1      41.100 -21.146 -32.760  0.00  0.00    -0.043 A 
ATOM     51  C   UNL     1      42.264 -20.384 -32.846  0.00  0.00    -0.049 A 
ATOM     52  C   UNL     1      42.222 -18.969 -32.770  0.00  0.00    +0.023 A 
ATOM     53  C   UNL     1      41.642 -14.738 -32.553  0.00  0.00    -0.010 C 
ATOM     54  C   UNL     1      42.798 -13.872 -33.043  0.00  0.00    -0.047 C 
ATOM     55  C   UNL     1      44.102 -14.359 -32.430  0.00  0.00    -0.049 C 
ATOM     56  C   UNL     1      44.393 -15.792 -32.872  0.00  0.00    -0.024 C 
ENDBRANCH  40  42
ENDBRANCH  38  40
ENDBRANCH  35  36
ENDBRANCH  34  35
ENDBRANCH  33  34
ENDBRANCH  32  33
ENDBRANCH  31  32
ENDBRANCH   3  31
TORSDOF 23
ENDMDL
MODEL 16
REMARK VINA RESULT:    -6.614      2.373      7.229
REMARK INTER + INTRA:          -8.800
REMARK INTER:                 -12.825
REMARK INTRA:                   4.025
REMARK UNBOUND:                 5.353
REMARK  Name = cpd107.pdb
REMARK  29 active torsions:
REMARK  status: ('A' for Active; 'I' for Inactive)
REMARK    1  A    between atoms: C_1  and  C_2
REMARK    2  A    between atoms: C_2  and  N_3
REMARK    3  A    between atoms: N_3  and  C_4
REMARK    4  A    between atoms: N_3  and  C_6
REMARK    5  A    between atoms: N_3  and  C_8
REMARK    6  A    between atoms: C_4  and  C_5
REMARK    7  A    between atoms: C_6  and  C_7
REMARK    8  A    between atoms: C_8  and  C_9
REMARK    9  A    between atoms: C_9  and  O_10
REMARK   10  A    between atoms: O_10  and  C_11
REMARK   11  A    between atoms: C_13  and  O_14
REMARK   12  A    between atoms: O_14  and  C_15
REMARK   13  A    between atoms: C_15  and  C_16
REMARK   14  A    between atoms: C_16  and  N_17
REMARK   15  A    between atoms: N_17  and  C_18
REMARK   16  A    between atoms: N_17  and  C_20
REMARK   17  A    between atoms: N_17  and  C_22
REMARK   18  A    between atoms: C_18  and  C_19
REMARK   19  A    between atoms: C_20  and  C_21
REMARK   20  A    between atoms: C_22  and  C_23
REMARK   21  A    between atoms: C_25  and  C_26
REMARK   22  A    between atoms: N_28  and  C_29
REMARK   23  A    between atoms: C_29  and  C_30
REMARK   24  A    between atoms: C_30  and  C_31
REMARK   25  A    between atoms: C_31  and  C_32
REMARK   26  A    between atoms: C_32  and  C_33
REMARK   27  A    between atoms: C_33  and  C_34
REMARK   28  A    between atoms: N_36  and  N_37
REMARK   29  A    between atoms: N_37  and  C_38
REMARK                            x       y       z     vdW  Elec       q    Type
REMARK                         _______ _______ _______ _____ _____    ______ ____
ROOT
ATOM      1  C   UNL     1      40.705 -16.890 -39.343  0.00  0.00    +0.244 C 
ATOM      2  O   UNL     1      39.549 -16.708 -38.978  0.00  0.00    -0.270 OA
ATOM      3  N   UNL     1      41.467 -15.936 -39.985  0.00  0.00    -0.311 N 
ATOM      4  H   UNL     1      42.387 -16.147 -40.263  0.00  0.00    +0.000 HD
ENDROOT
BRANCH   1   9
ATOM      5  C   UNL     1      43.371 -19.494 -38.700  0.00  0.00    +0.125 A 
ATOM      6  C   UNL     1      42.615 -20.464 -38.028  0.00  0.00    +0.022 A 
ATOM      7  C   UNL     1      41.237 -20.297 -37.874  0.00  0.00    +0.125 A 
ATOM      8  C   UNL     1      40.616 -19.140 -38.326  0.00  0.00    -0.008 A 
ATOM      9  C   UNL     1      41.352 -18.193 -39.038  0.00  0.00    +0.044 A 
ATOM     10  C   UNL     1      42.717 -18.403 -39.279  0.00  0.00    -0.008 A 
BRANCH   7  11
ATOM     11  O   UNL     1      40.486 -21.188 -37.154  0.00  0.00    -0.494 OA
BRANCH  11  12
ATOM     12  C   UNL     1      41.269 -21.822 -36.133  0.00  0.00    +0.075 C 
BRANCH  12  13
ATOM     13  C   UNL     1      40.349 -22.643 -35.203  0.00  0.00    -0.053 C 
BRANCH  13  14
ATOM     14  N   UNL     1      40.001 -21.969 -33.804  0.00  0.00    +0.382 N 
BRANCH  14  15
ATOM     15  C   UNL     1      41.284 -22.045 -32.929  0.00  0.00    -0.091 C 
ATOM     16  C   UNL     1      41.337 -23.185 -31.927  0.00  0.00    -0.080 C 
ENDBRANCH  14  15
BRANCH  14  17
ATOM     17  C   UNL     1      38.891 -22.833 -33.138  0.00  0.00    -0.091 C 
ATOM     18  C   UNL     1      38.343 -23.932 -34.036  0.00  0.00    -0.080 C 
ENDBRANCH  14  17
BRANCH  14  19
ATOM     19  C   UNL     1      39.566 -20.505 -34.060  0.00  0.00    -0.091 C 
ATOM     20  C   UNL     1      38.221 -20.100 -33.477  0.00  0.00    -0.080 C 
ENDBRANCH  14  19
ENDBRANCH  13  14
ENDBRANCH  12  13
ENDBRANCH  11  12
ENDBRANCH   7  11
BRANCH   5  21
ATOM     21  O   UNL     1      44.730 -19.679 -38.655  0.00  0.00    -0.494 OA
BRANCH  21  22
ATOM     22  C   UNL     1      45.275 -21.001 -38.783  0.00  0.00    +0.075 C 
BRANCH  22  23
ATOM     23  C   UNL     1      46.515 -21.087 -40.033  0.00  0.00    -0.053 C 
BRANCH  23  24
ATOM     24  N   UNL     1      46.257 -21.180 -40.995  0.00  0.00    +0.382 N 
BRANCH  24  26
ATOM     25  C   UNL     1      47.626 -19.107 -41.784  0.00  0.00    -0.080 C 
ATOM     26  C   UNL     1      46.436 -20.206 -41.137  0.00  0.00    -0.091 C 
ENDBRANCH  24  26
BRANCH  24  27
ATOM     27  C   UNL     1      46.077 -22.153 -40.853  0.00  0.00    -0.091 C 
ATOM     28  C   UNL     1      47.367 -23.274 -40.980  0.00  0.00    -0.080 C 
ENDBRANCH  24  27
BRANCH  24  29
ATOM     29  C   UNL     1      45.998 -21.272 -41.956  0.00  0.00    -0.091 C 
ATOM     30  C   UNL     1      44.374 -21.003 -42.428  0.00  0.00    -0.080 C 
ENDBRANCH  24  29
ENDBRANCH  23  24
ENDBRANCH  22  23
ENDBRANCH  21  22
ENDBRANCH   5  21
ENDBRANCH   1   9
BRANCH   3  31
ATOM     31  C   UNL     1      40.913 -14.617 -40.252  0.00  0.00    +0.012 C 
BRANCH  31  32
ATOM     32  C   UNL     1      41.987 -13.633 -40.701  0.00  0.00    -0.037 C 
BRANCH  32  33
ATOM     33  C   UNL     1      43.335 -13.899 -40.025  0.00  0.00    -0.051 C 
BRANCH  33  34
ATOM     34  C   UNL     1      44.445 -13.852 -41.071  0.00  0.00    -0.045 C 
BRANCH  34  35
ATOM     35  C   UNL     1      45.528 -14.909 -40.863  0.00  0.00    +0.025 C 
BRANCH  35  36
ATOM     36  C   UNL     1      46.115 -14.746 -39.476  0.00  0.00    +0.229 C 
ATOM     37  O   UNL     1      46.643 -13.704 -39.100  0.00  0.00    -0.274 OA
ATOM     38  N   UNL     1      45.923 -15.850 -38.658  0.00  0.00    -0.236 N 
ATOM     39  H   UNL     1      45.890 -16.770 -39.009  0.00  0.00    +0.000 HD
BRANCH  38  40
ATOM     40  N   UNL     1      45.777 -15.557 -37.282  0.00  0.00    -0.264 N 
ATOM     41  H   UNL     1      46.081 -14.720 -36.861  0.00  0.00    +0.000 HD
BRANCH  40  42
ATOM     42  C   UNL     1      45.138 -16.617 -36.579  0.00  0.00    +0.058 A 
ATOM     43  C   UNL     1      45.922 -17.708 -36.144  0.00  0.00    -0.003 A 
ATOM     44  C   UNL     1      45.294 -18.706 -35.404  0.00  0.00    +0.047 A 
ATOM     45  N   UNL     1      43.977 -18.680 -35.106  0.00  0.00    -0.251 NA
ATOM     46  C   UNL     1      43.229 -17.646 -35.518  0.00  0.00    +0.074 A 
ATOM     47  C   UNL     1      41.881 -17.659 -35.193  0.00  0.00    -0.017 A 
ATOM     48  C   UNL     1      41.036 -16.617 -35.565  0.00  0.00    +0.043 A 
ATOM     49 CL   UNL     1      39.370 -16.674 -35.143  0.00  0.00    -0.083 Cl
ATOM     50  C   UNL     1      41.534 -15.531 -36.270  0.00  0.00    -0.043 A 
ATOM     51  C   UNL     1      42.887 -15.500 -36.608  0.00  0.00    -0.049 A 
ATOM     52  C   UNL     1      43.756 -16.562 -36.252  0.00  0.00    +0.023 A 
ATOM     53  C   UNL     1      46.031 -19.934 -34.936  0.00  0.00    -0.010 C 
ATOM     54  C   UNL     1      47.547 -19.761 -34.919  0.00  0.00    -0.047 C 
ATOM     55  C   UNL     1      48.013 -19.166 -36.239  0.00  0.00    -0.049 C 
ATOM     56  C   UNL     1      47.402 -17.779 -36.440  0.00  0.00    -0.024 C 
ENDBRANCH  40  42
ENDBRANCH  38  40
ENDBRANCH  35  36
ENDBRANCH  34  35
ENDBRANCH  33  34
ENDBRANCH  32  33
ENDBRANCH  31  32
ENDBRANCH   3  31
TORSDOF 23
ENDMDL
MODEL 17
REMARK VINA RESULT:    -6.603      2.681      4.844
REMARK INTER + INTRA:          -8.777
REMARK INTER:                 -13.384
REMARK INTRA:                   4.607
REMARK UNBOUND:                 5.353
REMARK  Name = cpd107.pdb
REMARK  29 active torsions:
REMARK  status: ('A' for Active; 'I' for Inactive)
REMARK    1  A    between atoms: C_1  and  C_2
REMARK    2  A    between atoms: C_2  and  N_3
REMARK    3  A    between atoms: N_3  and  C_4
REMARK    4  A    between atoms: N_3  and  C_6
REMARK    5  A    between atoms: N_3  and  C_8
REMARK    6  A    between atoms: C_4  and  C_5
REMARK    7  A    between atoms: C_6  and  C_7
REMARK    8  A    between atoms: C_8  and  C_9
REMARK    9  A    between atoms: C_9  and  O_10
REMARK   10  A    between atoms: O_10  and  C_11
REMARK   11  A    between atoms: C_13  and  O_14
REMARK   12  A    between atoms: O_14  and  C_15
REMARK   13  A    between atoms: C_15  and  C_16
REMARK   14  A    between atoms: C_16  and  N_17
REMARK   15  A    between atoms: N_17  and  C_18
REMARK   16  A    between atoms: N_17  and  C_20
REMARK   17  A    between atoms: N_17  and  C_22
REMARK   18  A    between atoms: C_18  and  C_19
REMARK   19  A    between atoms: C_20  and  C_21
REMARK   20  A    between atoms: C_22  and  C_23
REMARK   21  A    between atoms: C_25  and  C_26
REMARK   22  A    between atoms: N_28  and  C_29
REMARK   23  A    between atoms: C_29  and  C_30
REMARK   24  A    between atoms: C_30  and  C_31
REMARK   25  A    between atoms: C_31  and  C_32
REMARK   26  A    between atoms: C_32  and  C_33
REMARK   27  A    between atoms: C_33  and  C_34
REMARK   28  A    between atoms: N_36  and  N_37
REMARK   29  A    between atoms: N_37  and  C_38
REMARK                            x       y       z     vdW  Elec       q    Type
REMARK                         _______ _______ _______ _____ _____    ______ ____
ROOT
ATOM      1  C   UNL     1      41.484 -19.957 -37.692  0.00  0.00    +0.244 C 
ATOM      2  O   UNL     1      41.261 -20.399 -38.812  0.00  0.00    -0.270 OA
ATOM      3  N   UNL     1      40.560 -19.956 -36.668  0.00  0.00    -0.311 N 
ATOM      4  H   UNL     1      40.797 -19.576 -35.791  0.00  0.00    +0.000 HD
ENDROOT
BRANCH   1   9
ATOM      5  C   UNL     1      45.248 -19.744 -37.390  0.00  0.00    +0.125 A 
ATOM      6  C   UNL     1      45.412 -18.357 -37.282  0.00  0.00    +0.022 A 
ATOM      7  C   UNL     1      44.294 -17.521 -37.220  0.00  0.00    +0.125 A 
ATOM      8  C   UNL     1      43.015 -18.052 -37.330  0.00  0.00    -0.008 A 
ATOM      9  C   UNL     1      42.843 -19.435 -37.389  0.00  0.00    +0.044 A 
ATOM     10  C   UNL     1      43.959 -20.282 -37.354  0.00  0.00    -0.008 A 
BRANCH   7  11
ATOM     11  O   UNL     1      44.422 -16.158 -37.194  0.00  0.00    -0.494 OA
BRANCH  11  12
ATOM     12  C   UNL     1      45.414 -15.712 -38.130  0.00  0.00    +0.075 C 
BRANCH  12  13
ATOM     13  C   UNL     1      44.746 -14.863 -39.234  0.00  0.00    -0.053 C 
BRANCH  13  14
ATOM     14  N   UNL     1      45.032 -15.327 -40.730  0.00  0.00    +0.382 N 
BRANCH  14  15
ATOM     15  C   UNL     1      45.969 -16.566 -40.653  0.00  0.00    -0.091 C 
ATOM     16  C   UNL     1      45.369 -17.880 -41.121  0.00  0.00    -0.080 C 
ENDBRANCH  14  15
BRANCH  14  17
ATOM     17  C   UNL     1      45.795 -14.169 -41.436  0.00  0.00    -0.091 C 
ATOM     18  C   UNL     1      44.964 -13.427 -42.473  0.00  0.00    -0.080 C 
ENDBRANCH  14  17
BRANCH  14  19
ATOM     19  C   UNL     1      43.680 -15.671 -41.403  0.00  0.00    -0.091 C 
ATOM     20  C   UNL     1      42.489 -15.812 -40.467  0.00  0.00    -0.080 C 
ENDBRANCH  14  19
ENDBRANCH  13  14
ENDBRANCH  12  13
ENDBRANCH  11  12
ENDBRANCH   7  11
BRANCH   5  21
ATOM     21  O   UNL     1      46.403 -20.453 -37.604  0.00  0.00    -0.494 OA
BRANCH  21  22
ATOM     22  C   UNL     1      47.054 -20.389 -38.882  0.00  0.00    +0.075 C 
BRANCH  22  23
ATOM     23  C   UNL     1      46.865 -21.883 -39.798  0.00  0.00    -0.053 C 
BRANCH  23  24
ATOM     24  N   UNL     1      46.698 -21.854 -40.783  0.00  0.00    +0.382 N 
BRANCH  24  26
ATOM     25  C   UNL     1      44.147 -21.340 -40.938  0.00  0.00    -0.080 C 
ATOM     26  C   UNL     1      45.724 -22.016 -40.622  0.00  0.00    -0.091 C 
ENDBRANCH  24  26
BRANCH  24  27
ATOM     27  C   UNL     1      47.671 -21.692 -40.944  0.00  0.00    -0.091 C 
ATOM     28  C   UNL     1      48.157 -20.335 -41.871  0.00  0.00    -0.080 C 
ENDBRANCH  24  27
BRANCH  24  29
ATOM     29  C   UNL     1      46.530 -21.825 -41.768  0.00  0.00    -0.091 C 
ATOM     30  C   UNL     1      46.711 -23.248 -42.702  0.00  0.00    -0.080 C 
ENDBRANCH  24  29
ENDBRANCH  23  24
ENDBRANCH  22  23
ENDBRANCH  21  22
ENDBRANCH   5  21
ENDBRANCH   1   9
BRANCH   3  31
ATOM     31  C   UNL     1      39.233 -20.515 -36.880  0.00  0.00    +0.012 C 
BRANCH  31  32
ATOM     32  C   UNL     1      38.148 -19.656 -36.242  0.00  0.00    -0.037 C 
BRANCH  32  33
ATOM     33  C   UNL     1      38.070 -18.261 -36.869  0.00  0.00    -0.051 C 
BRANCH  33  34
ATOM     34  C   UNL     1      38.446 -17.213 -35.826  0.00  0.00    -0.045 C 
BRANCH  34  35
ATOM     35  C   UNL     1      37.288 -16.812 -34.914  0.00  0.00    +0.025 C 
BRANCH  35  36
ATOM     36  C   UNL     1      37.701 -17.024 -33.472  0.00  0.00    +0.229 C 
ATOM     37  O   UNL     1      36.893 -17.273 -32.583  0.00  0.00    -0.274 OA
ATOM     38  N   UNL     1      39.074 -16.991 -33.278  0.00  0.00    -0.236 N 
ATOM     39  H   UNL     1      39.673 -16.429 -33.823  0.00  0.00    +0.000 HD
BRANCH  38  40
ATOM     40  N   UNL     1      39.552 -17.825 -32.240  0.00  0.00    -0.264 N 
ATOM     41  H   UNL     1      39.302 -17.725 -31.293  0.00  0.00    +0.000 HD
BRANCH  40  42
ATOM     42  C   UNL     1      40.435 -18.828 -32.730  0.00  0.00    +0.058 A 
ATOM     43  C   UNL     1      39.919 -20.119 -32.980  0.00  0.00    -0.003 A 
ATOM     44  C   UNL     1      40.781 -21.071 -33.517  0.00  0.00    +0.047 A 
ATOM     45  N   UNL     1      42.080 -20.816 -33.787  0.00  0.00    -0.251 NA
ATOM     46  C   UNL     1      42.574 -19.591 -33.549  0.00  0.00    +0.074 A 
ATOM     47  C   UNL     1      43.911 -19.372 -33.838  0.00  0.00    -0.017 A 
ATOM     48  C   UNL     1      44.501 -18.127 -33.639  0.00  0.00    +0.043 A 
ATOM     49 CL   UNL     1      46.165 -17.898 -34.008  0.00  0.00    -0.083 Cl
ATOM     50  C   UNL     1      43.750 -17.068 -33.150  0.00  0.00    -0.043 A 
ATOM     51  C   UNL     1      42.403 -17.270 -32.851  0.00  0.00    -0.049 A 
ATOM     52  C   UNL     1      41.793 -18.537 -33.031  0.00  0.00    +0.023 A 
ATOM     53  C   UNL     1      40.341 -22.489 -33.775  0.00  0.00    -0.010 C 
ATOM     54  C   UNL     1      38.826 -22.648 -33.855  0.00  0.00    -0.047 C 
ATOM     55  C   UNL     1      38.171 -21.951 -32.672  0.00  0.00    -0.049 C 
ATOM     56  C   UNL     1      38.471 -20.453 -32.708  0.00  0.00    -0.024 C 
ENDBRANCH  40  42
ENDBRANCH  38  40
ENDBRANCH  35  36
ENDBRANCH  34  35
ENDBRANCH  33  34
ENDBRANCH  32  33
ENDBRANCH  31  32
ENDBRANCH   3  31
TORSDOF 23
ENDMDL
MODEL 18
REMARK VINA RESULT:    -6.539      3.293      9.299
REMARK INTER + INTRA:          -8.640
REMARK INTER:                 -13.311
REMARK INTRA:                   4.671
REMARK UNBOUND:                 5.353
REMARK  Name = cpd107.pdb
REMARK  29 active torsions:
REMARK  status: ('A' for Active; 'I' for Inactive)
REMARK    1  A    between atoms: C_1  and  C_2
REMARK    2  A    between atoms: C_2  and  N_3
REMARK    3  A    between atoms: N_3  and  C_4
REMARK    4  A    between atoms: N_3  and  C_6
REMARK    5  A    between atoms: N_3  and  C_8
REMARK    6  A    between atoms: C_4  and  C_5
REMARK    7  A    between atoms: C_6  and  C_7
REMARK    8  A    between atoms: C_8  and  C_9
REMARK    9  A    between atoms: C_9  and  O_10
REMARK   10  A    between atoms: O_10  and  C_11
REMARK   11  A    between atoms: C_13  and  O_14
REMARK   12  A    between atoms: O_14  and  C_15
REMARK   13  A    between atoms: C_15  and  C_16
REMARK   14  A    between atoms: C_16  and  N_17
REMARK   15  A    between atoms: N_17  and  C_18
REMARK   16  A    between atoms: N_17  and  C_20
REMARK   17  A    between atoms: N_17  and  C_22
REMARK   18  A    between atoms: C_18  and  C_19
REMARK   19  A    between atoms: C_20  and  C_21
REMARK   20  A    between atoms: C_22  and  C_23
REMARK   21  A    between atoms: C_25  and  C_26
REMARK   22  A    between atoms: N_28  and  C_29
REMARK   23  A    between atoms: C_29  and  C_30
REMARK   24  A    between atoms: C_30  and  C_31
REMARK   25  A    between atoms: C_31  and  C_32
REMARK   26  A    between atoms: C_32  and  C_33
REMARK   27  A    between atoms: C_33  and  C_34
REMARK   28  A    between atoms: N_36  and  N_37
REMARK   29  A    between atoms: N_37  and  C_38
REMARK                            x       y       z     vdW  Elec       q    Type
REMARK                         _______ _______ _______ _____ _____    ______ ____
ROOT
ATOM      1  C   UNL     1      46.360 -18.170 -35.830  0.00  0.00    +0.244 C 
ATOM      2  O   UNL     1      47.201 -17.283 -35.742  0.00  0.00    -0.270 OA
ATOM      3  N   UNL     1      46.242 -19.012 -36.917  0.00  0.00    -0.311 N 
ATOM      4  H   UNL     1      45.538 -19.700 -36.933  0.00  0.00    +0.000 HD
ENDROOT
BRANCH   1   9
ATOM      5  C   UNL     1      44.136 -17.507 -32.844  0.00  0.00    +0.125 A 
ATOM      6  C   UNL     1      43.373 -18.682 -32.835  0.00  0.00    +0.022 A 
ATOM      7  C   UNL     1      43.653 -19.707 -33.741  0.00  0.00    +0.125 A 
ATOM      8  C   UNL     1      44.644 -19.543 -34.700  0.00  0.00    -0.008 A 
ATOM      9  C   UNL     1      45.439 -18.397 -34.685  0.00  0.00    +0.044 A 
ATOM     10  C   UNL     1      45.224 -17.408 -33.715  0.00  0.00    -0.008 A 
BRANCH   7  11
ATOM     11  O   UNL     1      42.876 -20.833 -33.809  0.00  0.00    -0.494 OA
BRANCH  11  12
ATOM     12  C   UNL     1      41.631 -20.646 -33.121  0.00  0.00    +0.075 C 
BRANCH  12  13
ATOM     13  C   UNL     1      40.792 -21.941 -33.199  0.00  0.00    -0.053 C 
BRANCH  13  14
ATOM     14  N   UNL     1      39.622 -21.942 -34.278  0.00  0.00    +0.382 N 
BRANCH  14  15
ATOM     15  C   UNL     1      40.151 -22.705 -35.526  0.00  0.00    -0.091 C 
ATOM     16  C   UNL     1      39.367 -22.501 -36.810  0.00  0.00    -0.080 C 
ENDBRANCH  14  15
BRANCH  14  17
ATOM     17  C   UNL     1      39.358 -20.460 -34.675  0.00  0.00    -0.091 C 
ATOM     18  C   UNL     1      38.028 -19.916 -34.174  0.00  0.00    -0.080 C 
ENDBRANCH  14  17
BRANCH  14  19
ATOM     19  C   UNL     1      38.386 -22.640 -33.660  0.00  0.00    -0.091 C 
ATOM     20  C   UNL     1      38.401 -24.162 -33.683  0.00  0.00    -0.080 C 
ENDBRANCH  14  19
ENDBRANCH  13  14
ENDBRANCH  12  13
ENDBRANCH  11  12
ENDBRANCH   7  11
BRANCH   5  21
ATOM     21  O   UNL     1      43.676 -16.507 -32.025  0.00  0.00    -0.494 OA
BRANCH  21  22
ATOM     22  C   UNL     1      42.867 -15.452 -32.569  0.00  0.00    +0.075 C 
BRANCH  22  23
ATOM     23  C   UNL     1      43.226 -13.893 -31.829  0.00  0.00    -0.053 C 
BRANCH  23  24
ATOM     24  N   UNL     1      42.838 -13.053 -32.207  0.00  0.00    +0.382 N 
BRANCH  24  26
ATOM     25  C   UNL     1      45.200 -11.965 -32.034  0.00  0.00    -0.080 C 
ATOM     26  C   UNL     1      43.743 -12.783 -32.535  0.00  0.00    -0.091 C 
ENDBRANCH  24  26
BRANCH  24  27
ATOM     27  C   UNL     1      41.932 -13.324 -31.880  0.00  0.00    -0.091 C 
ATOM     28  C   UNL     1      41.386 -12.758 -30.357  0.00  0.00    -0.080 C 
ENDBRANCH  24  27
BRANCH  24  29
ATOM     29  C   UNL     1      42.449 -12.213 -32.586  0.00  0.00    -0.091 C 
ATOM     30  C   UNL     1      41.851 -12.204 -34.190  0.00  0.00    -0.080 C 
ENDBRANCH  24  29
ENDBRANCH  23  24
ENDBRANCH  22  23
ENDBRANCH  21  22
ENDBRANCH   5  21
ENDBRANCH   1   9
BRANCH   3  31
ATOM     31  C   UNL     1      47.157 -18.886 -38.042  0.00  0.00    +0.012 C 
BRANCH  31  32
ATOM     32  C   UNL     1      47.207 -20.160 -38.876  0.00  0.00    -0.037 C 
BRANCH  32  33
ATOM     33  C   UNL     1      45.892 -20.942 -38.818  0.00  0.00    -0.051 C 
BRANCH  33  34
ATOM     34  C   UNL     1      45.805 -21.879 -40.019  0.00  0.00    -0.045 C 
BRANCH  34  35
ATOM     35  C   UNL     1      46.321 -21.261 -41.318  0.00  0.00    +0.025 C 
BRANCH  35  36
ATOM     36  C   UNL     1      45.230 -20.399 -41.920  0.00  0.00    +0.229 C 
ATOM     37  O   UNL     1      44.234 -20.873 -42.457  0.00  0.00    -0.274 OA
ATOM     38  N   UNL     1      45.429 -19.039 -41.729  0.00  0.00    -0.236 N 
ATOM     39  H   UNL     1      46.327 -18.636 -41.687  0.00  0.00    +0.000 HD
BRANCH  38  40
ATOM     40  N   UNL     1      44.246 -18.274 -41.599  0.00  0.00    -0.264 N 
ATOM     41  H   UNL     1      43.580 -18.162 -42.316  0.00  0.00    +0.000 HD
BRANCH  40  42
ATOM     42  C   UNL     1      44.134 -17.686 -40.307  0.00  0.00    +0.058 A 
ATOM     43  C   UNL     1      43.298 -18.308 -39.354  0.00  0.00    -0.003 A 
ATOM     44  C   UNL     1      43.248 -17.757 -38.076  0.00  0.00    +0.047 A 
ATOM     45  N   UNL     1      43.944 -16.654 -37.725  0.00  0.00    -0.251 NA
ATOM     46  C   UNL     1      44.739 -16.061 -38.628  0.00  0.00    +0.074 A 
ATOM     47  C   UNL     1      45.435 -14.931 -38.227  0.00  0.00    -0.017 A 
ATOM     48  C   UNL     1      46.294 -14.264 -39.095  0.00  0.00    +0.043 A 
ATOM     49 CL   UNL     1      47.137 -12.865 -38.558  0.00  0.00    -0.083 Cl
ATOM     50  C   UNL     1      46.479 -14.728 -40.389  0.00  0.00    -0.043 A 
ATOM     51  C   UNL     1      45.786 -15.861 -40.812  0.00  0.00    -0.049 A 
ATOM     52  C   UNL     1      44.893 -16.541 -39.946  0.00  0.00    +0.023 A 
ATOM     53  C   UNL     1      42.350 -18.315 -37.002  0.00  0.00    -0.010 C 
ATOM     54  C   UNL     1      41.903 -19.748 -37.272  0.00  0.00    -0.047 C 
ATOM     55  C   UNL     1      41.390 -19.869 -38.699  0.00  0.00    -0.049 C 
ATOM     56  C   UNL     1      42.507 -19.550 -39.692  0.00  0.00    -0.024 C 
ENDBRANCH  40  42
ENDBRANCH  38  40
ENDBRANCH  35  36
ENDBRANCH  34  35
ENDBRANCH  33  34
ENDBRANCH  32  33
ENDBRANCH  31  32
ENDBRANCH   3  31
TORSDOF 23
ENDMDL
MODEL 19
REMARK VINA RESULT:    -6.308      2.946      5.165
REMARK INTER + INTRA:          -8.147
REMARK INTER:                 -12.933
REMARK INTRA:                   4.787
REMARK UNBOUND:                 5.353
REMARK  Name = cpd107.pdb
REMARK  29 active torsions:
REMARK  status: ('A' for Active; 'I' for Inactive)
REMARK    1  A    between atoms: C_1  and  C_2
REMARK    2  A    between atoms: C_2  and  N_3
REMARK    3  A    between atoms: N_3  and  C_4
REMARK    4  A    between atoms: N_3  and  C_6
REMARK    5  A    between atoms: N_3  and  C_8
REMARK    6  A    between atoms: C_4  and  C_5
REMARK    7  A    between atoms: C_6  and  C_7
REMARK    8  A    between atoms: C_8  and  C_9
REMARK    9  A    between atoms: C_9  and  O_10
REMARK   10  A    between atoms: O_10  and  C_11
REMARK   11  A    between atoms: C_13  and  O_14
REMARK   12  A    between atoms: O_14  and  C_15
REMARK   13  A    between atoms: C_15  and  C_16
REMARK   14  A    between atoms: C_16  and  N_17
REMARK   15  A    between atoms: N_17  and  C_18
REMARK   16  A    between atoms: N_17  and  C_20
REMARK   17  A    between atoms: N_17  and  C_22
REMARK   18  A    between atoms: C_18  and  C_19
REMARK   19  A    between atoms: C_20  and  C_21
REMARK   20  A    between atoms: C_22  and  C_23
REMARK   21  A    between atoms: C_25  and  C_26
REMARK   22  A    between atoms: N_28  and  C_29
REMARK   23  A    between atoms: C_29  and  C_30
REMARK   24  A    between atoms: C_30  and  C_31
REMARK   25  A    between atoms: C_31  and  C_32
REMARK   26  A    between atoms: C_32  and  C_33
REMARK   27  A    between atoms: C_33  and  C_34
REMARK   28  A    between atoms: N_36  and  N_37
REMARK   29  A    between atoms: N_37  and  C_38
REMARK                            x       y       z     vdW  Elec       q    Type
REMARK                         _______ _______ _______ _____ _____    ______ ____
ROOT
ATOM      1  C   UNL     1      43.067 -16.215 -36.826  0.00  0.00    +0.244 C 
ATOM      2  O   UNL     1      42.837 -15.184 -37.448  0.00  0.00    -0.270 OA
ATOM      3  N   UNL     1      42.085 -17.034 -36.307  0.00  0.00    -0.311 N 
ATOM      4  H   UNL     1      42.335 -17.845 -35.808  0.00  0.00    +0.000 HD
ENDROOT
BRANCH   1   9
ATOM      5  C   UNL     1      46.147 -18.405 -36.730  0.00  0.00    +0.125 A 
ATOM      6  C   UNL     1      47.150 -17.430 -36.818  0.00  0.00    +0.022 A 
ATOM      7  C   UNL     1      46.812 -16.074 -36.817  0.00  0.00    +0.125 A 
ATOM      8  C   UNL     1      45.479 -15.684 -36.796  0.00  0.00    -0.008 A 
ATOM      9  C   UNL     1      44.479 -16.647 -36.660  0.00  0.00    +0.044 A 
ATOM     10  C   UNL     1      44.820 -18.003 -36.563  0.00  0.00    -0.008 A 
BRANCH   7  11
ATOM     11  O   UNL     1      47.762 -15.101 -36.981  0.00  0.00    -0.494 OA
BRANCH  11  12
ATOM     12  C   UNL     1      47.507 -14.320 -38.158  0.00  0.00    +0.075 C 
BRANCH  12  13
ATOM     13  C   UNL     1      48.253 -14.933 -39.363  0.00  0.00    -0.053 C 
BRANCH  13  14
ATOM     14  N   UNL     1      48.167 -14.108 -40.722  0.00  0.00    +0.382 N 
BRANCH  14  15
ATOM     15  C   UNL     1      49.333 -13.079 -40.706  0.00  0.00    -0.091 C 
ATOM     16  C   UNL     1      48.928 -11.618 -40.772  0.00  0.00    -0.080 C 
ENDBRANCH  14  15
BRANCH  14  17
ATOM     17  C   UNL     1      46.817 -13.333 -40.707  0.00  0.00    -0.091 C 
ATOM     18  C   UNL     1      45.720 -13.991 -41.532  0.00  0.00    -0.080 C 
ENDBRANCH  14  17
BRANCH  14  19
ATOM     19  C   UNL     1      48.292 -15.099 -41.905  0.00  0.00    -0.091 C 
ATOM     20  C   UNL     1      49.437 -14.837 -42.873  0.00  0.00    -0.080 C 
ENDBRANCH  14  19
ENDBRANCH  13  14
ENDBRANCH  12  13
ENDBRANCH  11  12
ENDBRANCH   7  11
BRANCH   5  21
ATOM     21  O   UNL     1      46.575 -19.698 -36.900  0.00  0.00    -0.494 OA
BRANCH  21  22
ATOM     22  C   UNL     1      47.049 -20.130 -38.185  0.00  0.00    +0.075 C 
BRANCH  22  23
ATOM     23  C   UNL     1      45.792 -20.044 -39.417  0.00  0.00    -0.053 C 
BRANCH  23  24
ATOM     24  N   UNL     1      46.015 -20.211 -40.378  0.00  0.00    +0.382 N 
BRANCH  24  26
ATOM     25  C   UNL     1      45.873 -17.617 -40.599  0.00  0.00    -0.080 C 
ATOM     26  C   UNL     1      46.376 -19.282 -40.456  0.00  0.00    -0.091 C 
ENDBRANCH  24  26
BRANCH  24  27
ATOM     27  C   UNL     1      45.653 -21.140 -40.300  0.00  0.00    -0.091 C 
ATOM     28  C   UNL     1      43.957 -21.384 -40.278  0.00  0.00    -0.080 C 
ENDBRANCH  24  27
BRANCH  24  29
ATOM     29  C   UNL     1      46.237 -20.378 -41.339  0.00  0.00    -0.091 C 
ATOM     30  C   UNL     1      47.587 -21.351 -41.740  0.00  0.00    -0.080 C 
ENDBRANCH  24  29
ENDBRANCH  23  24
ENDBRANCH  22  23
ENDBRANCH  21  22
ENDBRANCH   5  21
ENDBRANCH   1   9
BRANCH   3  31
ATOM     31  C   UNL     1      40.680 -16.701 -36.495  0.00  0.00    +0.012 C 
BRANCH  31  32
ATOM     32  C   UNL     1      39.804 -17.947 -36.530  0.00  0.00    -0.037 C 
BRANCH  32  33
ATOM     33  C   UNL     1      40.197 -18.900 -37.663  0.00  0.00    -0.051 C 
BRANCH  33  34
ATOM     34  C   UNL     1      40.081 -20.342 -37.178  0.00  0.00    -0.045 C 
BRANCH  34  35
ATOM     35  C   UNL     1      41.311 -21.194 -37.484  0.00  0.00    +0.025 C 
BRANCH  35  36
ATOM     36  C   UNL     1      42.125 -21.355 -36.217  0.00  0.00    +0.229 C 
ATOM     37  O   UNL     1      43.285 -20.963 -36.122  0.00  0.00    -0.274 OA
ATOM     38  N   UNL     1      41.410 -21.907 -35.164  0.00  0.00    -0.236 N 
ATOM     39  H   UNL     1      40.687 -22.562 -35.301  0.00  0.00    +0.000 HD
BRANCH  38  40
ATOM     40  N   UNL     1      41.796 -21.460 -33.879  0.00  0.00    -0.264 N 
ATOM     41  H   UNL     1      42.404 -21.954 -33.282  0.00  0.00    +0.000 HD
BRANCH  40  42
ATOM     42  C   UNL     1      41.201 -20.208 -33.553  0.00  0.00    +0.058 A 
ATOM     43  C   UNL     1      39.795 -20.140 -33.434  0.00  0.00    -0.003 A 
ATOM     44  C   UNL     1      39.234 -18.924 -33.053  0.00  0.00    +0.047 A 
ATOM     45  N   UNL     1      39.971 -17.817 -32.815  0.00  0.00    -0.251 NA
ATOM     46  C   UNL     1      41.306 -17.879 -32.928  0.00  0.00    +0.074 A 
ATOM     47  C   UNL     1      42.025 -16.721 -32.676  0.00  0.00    -0.017 A 
ATOM     48  C   UNL     1      43.414 -16.699 -32.753  0.00  0.00    +0.043 A 
ATOM     49 CL   UNL     1      44.268 -15.241 -32.435  0.00  0.00    -0.083 Cl
ATOM     50  C   UNL     1      44.114 -17.852 -33.079  0.00  0.00    -0.043 A 
ATOM     51  C   UNL     1      43.409 -19.027 -33.337  0.00  0.00    -0.049 A 
ATOM     52  C   UNL     1      41.992 -19.059 -33.281  0.00  0.00    +0.023 A 
ATOM     53  C   UNL     1      37.743 -18.735 -32.945  0.00  0.00    -0.010 C 
ATOM     54  C   UNL     1      36.973 -20.045 -32.815  0.00  0.00    -0.047 C 
ATOM     55  C   UNL     1      37.446 -21.028 -33.876  0.00  0.00    -0.049 C 
ATOM     56  C   UNL     1      38.926 -21.352 -33.677  0.00  0.00    -0.024 C 
ENDBRANCH  40  42
ENDBRANCH  38  40
ENDBRANCH  35  36
ENDBRANCH  34  35
ENDBRANCH  33  34
ENDBRANCH  32  33
ENDBRANCH  31  32
ENDBRANCH   3  31
TORSDOF 23
ENDMDL
MODEL 20
REMARK VINA RESULT:    -6.301      2.520      4.542
REMARK INTER + INTRA:          -8.131
REMARK INTER:                 -11.713
REMARK INTRA:                   3.583
REMARK UNBOUND:                 5.353
REMARK  Name = cpd107.pdb
REMARK  29 active torsions:
REMARK  status: ('A' for Active; 'I' for Inactive)
REMARK    1  A    between atoms: C_1  and  C_2
REMARK    2  A    between atoms: C_2  and  N_3
REMARK    3  A    between atoms: N_3  and  C_4
REMARK    4  A    between atoms: N_3  and  C_6
REMARK    5  A    between atoms: N_3  and  C_8
REMARK    6  A    between atoms: C_4  and  C_5
REMARK    7  A    between atoms: C_6  and  C_7
REMARK    8  A    between atoms: C_8  and  C_9
REMARK    9  A    between atoms: C_9  and  O_10
REMARK   10  A    between atoms: O_10  and  C_11
REMARK   11  A    between atoms: C_13  and  O_14
REMARK   12  A    between atoms: O_14  and  C_15
REMARK   13  A    between atoms: C_15  and  C_16
REMARK   14  A    between atoms: C_16  and  N_17
REMARK   15  A    between atoms: N_17  and  C_18
REMARK   16  A    between atoms: N_17  and  C_20
REMARK   17  A    between atoms: N_17  and  C_22
REMARK   18  A    between atoms: C_18  and  C_19
REMARK   19  A    between atoms: C_20  and  C_21
REMARK   20  A    between atoms: C_22  and  C_23
REMARK   21  A    between atoms: C_25  and  C_26
REMARK   22  A    between atoms: N_28  and  C_29
REMARK   23  A    between atoms: C_29  and  C_30
REMARK   24  A    between atoms: C_30  and  C_31
REMARK   25  A    between atoms: C_31  and  C_32
REMARK   26  A    between atoms: C_32  and  C_33
REMARK   27  A    between atoms: C_33  and  C_34
REMARK   28  A    between atoms: N_36  and  N_37
REMARK   29  A    between atoms: N_37  and  C_38
REMARK                            x       y       z     vdW  Elec       q    Type
REMARK                         _______ _______ _______ _____ _____    ______ ____
ROOT
ATOM      1  C   UNL     1      43.405 -18.540 -33.726  0.00  0.00    +0.244 C 
ATOM      2  O   UNL     1      43.143 -17.481 -33.168  0.00  0.00    -0.270 OA
ATOM      3  N   UNL     1      42.646 -19.685 -33.597  0.00  0.00    -0.311 N 
ATOM      4  H   UNL     1      42.915 -20.509 -34.064  0.00  0.00    +0.000 HD
ENDROOT
BRANCH   1   9
ATOM      5  C   UNL     1      45.807 -19.729 -36.394  0.00  0.00    +0.125 A 
ATOM      6  C   UNL     1      46.478 -18.532 -36.677  0.00  0.00    +0.022 A 
ATOM      7  C   UNL     1      46.203 -17.381 -35.935  0.00  0.00    +0.125 A 
ATOM      8  C   UNL     1      45.216 -17.396 -34.958  0.00  0.00    -0.008 A 
ATOM      9  C   UNL     1      44.577 -18.595 -34.638  0.00  0.00    +0.044 A 
ATOM     10  C   UNL     1      44.921 -19.774 -35.315  0.00  0.00    -0.008 A 
BRANCH   7  11
ATOM     11  O   UNL     1      46.784 -16.178 -36.239  0.00  0.00    -0.494 OA
BRANCH  11  12
ATOM     12  C   UNL     1      47.240 -16.152 -37.599  0.00  0.00    +0.075 C 
BRANCH  12  13
ATOM     13  C   UNL     1      48.151 -14.924 -37.820  0.00  0.00    -0.053 C 
BRANCH  13  14
ATOM     14  N   UNL     1      47.670 -13.899 -38.939  0.00  0.00    +0.382 N 
BRANCH  14  15
ATOM     15  C   UNL     1      46.472 -13.105 -38.346  0.00  0.00    -0.091 C 
ATOM     16  C   UNL     1      45.475 -12.558 -39.352  0.00  0.00    -0.080 C 
ENDBRANCH  14  15
BRANCH  14  17
ATOM     17  C   UNL     1      47.163 -14.738 -40.148  0.00  0.00    -0.091 C 
ATOM     18  C   UNL     1      47.961 -14.522 -41.425  0.00  0.00    -0.080 C 
ENDBRANCH  14  17
BRANCH  14  19
ATOM     19  C   UNL     1      48.856 -12.968 -39.294  0.00  0.00    -0.091 C 
ATOM     20  C   UNL     1      49.040 -11.755 -38.394  0.00  0.00    -0.080 C 
ENDBRANCH  14  19
ENDBRANCH  13  14
ENDBRANCH  12  13
ENDBRANCH  11  12
ENDBRANCH   7  11
BRANCH   5  21
ATOM     21  O   UNL     1      46.036 -20.750 -37.282  0.00  0.00    -0.494 OA
BRANCH  21  22
ATOM     22  C   UNL     1      45.470 -20.690 -38.600  0.00  0.00    +0.075 C 
BRANCH  22  23
ATOM     23  C   UNL     1      46.708 -20.546 -39.847  0.00  0.00    -0.053 C 
BRANCH  23  24
ATOM     24  N   UNL     1      46.470 -20.663 -40.811  0.00  0.00    +0.382 N 
BRANCH  24  26
ATOM     25  C   UNL     1      48.416 -22.398 -40.762  0.00  0.00    -0.080 C 
ATOM     26  C   UNL     1      46.877 -21.577 -40.800  0.00  0.00    -0.091 C 
ENDBRANCH  24  26
BRANCH  24  27
ATOM     27  C   UNL     1      46.064 -19.750 -40.822  0.00  0.00    -0.091 C 
ATOM     28  C   UNL     1      47.071 -18.384 -41.061  0.00  0.00    -0.080 C 
ENDBRANCH  24  27
BRANCH  24  29
ATOM     29  C   UNL     1      46.232 -20.781 -41.775  0.00  0.00    -0.091 C 
ATOM     30  C   UNL     1      44.758 -21.541 -42.198  0.00  0.00    -0.080 C 
ENDBRANCH  24  29
ENDBRANCH  23  24
ENDBRANCH  22  23
ENDBRANCH  21  22
ENDBRANCH   5  21
ENDBRANCH   1   9
BRANCH   3  31
ATOM     31  C   UNL     1      41.447 -19.678 -32.772  0.00  0.00    +0.012 C 
BRANCH  31  32
ATOM     32  C   UNL     1      40.576 -20.901 -33.029  0.00  0.00    -0.037 C 
BRANCH  32  33
ATOM     33  C   UNL     1      41.134 -21.784 -34.149  0.00  0.00    -0.051 C 
BRANCH  33  34
ATOM     34  C   UNL     1      40.004 -22.174 -35.098  0.00  0.00    -0.045 C 
BRANCH  34  35
ATOM     35  C   UNL     1      40.491 -22.740 -36.431  0.00  0.00    +0.025 C 
BRANCH  35  36
ATOM     36  C   UNL     1      40.097 -21.789 -37.542  0.00  0.00    +0.229 C 
ATOM     37  O   UNL     1      39.044 -21.899 -38.164  0.00  0.00    -0.274 OA
ATOM     38  N   UNL     1      40.995 -20.748 -37.726  0.00  0.00    -0.236 N 
ATOM     39  H   UNL     1      41.962 -20.847 -37.563  0.00  0.00    +0.000 HD
BRANCH  38  40
ATOM     40  N   UNL     1      40.420 -19.532 -38.166  0.00  0.00    -0.264 N 
ATOM     41  H   UNL     1      39.827 -19.454 -38.948  0.00  0.00    +0.000 HD
BRANCH  40  42
ATOM     42  C   UNL     1      40.801 -18.437 -37.341  0.00  0.00    +0.058 A 
ATOM     43  C   UNL     1      41.893 -17.636 -37.745  0.00  0.00    -0.003 A 
ATOM     44  C   UNL     1      42.214 -16.532 -36.960  0.00  0.00    +0.047 A 
ATOM     45  N   UNL     1      41.542 -16.212 -35.833  0.00  0.00    -0.251 NA
ATOM     46  C   UNL     1      40.505 -16.971 -35.446  0.00  0.00    +0.074 A 
ATOM     47  C   UNL     1      39.844 -16.609 -34.283  0.00  0.00    -0.017 A 
ATOM     48  C   UNL     1      38.748 -17.329 -33.819  0.00  0.00    +0.043 A 
ATOM     49 CL   UNL     1      37.957 -16.848 -32.370  0.00  0.00    -0.083 Cl
ATOM     50  C   UNL     1      38.286 -18.431 -34.525  0.00  0.00    -0.043 A 
ATOM     51  C   UNL     1      38.939 -18.812 -35.696  0.00  0.00    -0.049 A 
ATOM     52  C   UNL     1      40.068 -18.099 -36.171  0.00  0.00    +0.023 A 
ATOM     53  C   UNL     1      43.389 -15.644 -37.278  0.00  0.00    -0.010 C 
ATOM     54  C   UNL     1      43.866 -15.763 -38.722  0.00  0.00    -0.047 C 
ATOM     55  C   UNL     1      44.018 -17.231 -39.094  0.00  0.00    -0.049 C 
ATOM     56  C   UNL     1      42.670 -17.943 -39.004  0.00  0.00    -0.024 C 
ENDBRANCH  40  42
ENDBRANCH  38  40
ENDBRANCH  35  36
ENDBRANCH  34  35
ENDBRANCH  33  34
ENDBRANCH  32  33
ENDBRANCH  31  32
ENDBRANCH   3  31
TORSDOF 23
ENDMDL
