@<TRIPOS>MOLECULE
*****
 53 56 0 0 0
SMALL
GASTEIGER

@<TRIPOS>ATOM
      1 C          -1.5000   -0.1340    0.0000 C.3     1  UNL1        0.0671
      2 C          -1.0000   -1.0000    0.0000 C.3     1  UNL1        0.1088
      3 N           0.0000   -1.0000    0.0000 N.4     1  UNL1        0.2998
      4 C          -0.0000   -2.0000    0.0000 C.3     1  UNL1        0.1088
      5 C           0.8660   -2.5000    0.0000 C.3     1  UNL1        0.0671
      6 C           1.0000   -1.0000    0.0000 C.3     1  UNL1        0.1088
      7 C           1.5000   -0.1340    0.0000 C.3     1  UNL1        0.0671
      8 C           0.0000   -0.0000    0.0000 C.3     1  UNL1        0.1566
      9 C           0.8660    0.5000    0.0000 C.3     1  UNL1        0.2658
     10 O           0.8660    1.5000    0.0000 O.3     1  UNL1       -0.4690
     11 C           1.7321    2.0000    0.0000 C.ar    1  UNL1        0.1420
     12 C           1.7321    3.0000    0.0000 C.ar    1  UNL1        0.0738
     13 C           2.5981    3.5000    0.0000 C.ar    1  UNL1        0.1420
     14 O           2.5981    4.5000    0.0000 O.3     1  UNL1       -0.4690
     15 C           3.4641    5.0000    0.0000 C.3     1  UNL1        0.2658
     16 C           3.4641    6.0000    0.0000 C.3     1  UNL1        0.1566
     17 N           4.3301    6.5000    0.0000 N.4     1  UNL1        0.2998
     18 C           4.8301    5.6340    0.0000 C.3     1  UNL1        0.1088
     19 C           5.8301    5.6340    0.0000 C.3     1  UNL1        0.0671
     20 C           5.1962    7.0000    0.0000 C.3     1  UNL1        0.1088
     21 C           5.1962    8.0000    0.0000 C.3     1  UNL1        0.0671
     22 C           3.8301    7.3660    0.0000 C.3     1  UNL1        0.1088
     23 C           4.3301    8.2321    0.0000 C.3     1  UNL1        0.0671
     24 C           3.4641    3.0000    0.0000 C.ar    1  UNL1        0.0417
     25 C           3.4641    2.0000    0.0000 C.ar    1  UNL1        0.0611
     26 C           4.3301    1.5000    0.0000 C.2     1  UNL1        0.2650
     27 O           4.3301    0.5000    0.0000 O.2     1  UNL1       -0.2684
     28 N           5.1962    2.0000    0.0000 N.am    1  UNL1       -0.2017
     29 C           6.0622    1.5000    0.0000 C.3     1  UNL1        0.1155
     30 C           6.9282    2.0000    0.0000 C.3     1  UNL1        0.0235
     31 C           7.7942    1.5000    0.0000 C.3     1  UNL1        0.0023
     32 C           8.6603    2.0000    0.0000 C.3     1  UNL1        0.0097
     33 C           9.5263    1.5000    0.0000 C.3     1  UNL1        0.0885
     34 C          10.3923    2.0000    0.0000 C.2     1  UNL1        0.2606
     35 O          11.2583    1.5000    0.0000 O.2     1  UNL1       -0.2717
     36 N          10.3923    3.0000    0.0000 N.am    1  UNL1       -0.0905
     37 N          11.2583    3.5000    0.0000 N.pl3   1  UNL1       -0.1256
     38 C          11.2583    4.5000    0.0000 C.ar    1  UNL1        0.0877
     39 C          10.3923    5.0000    0.0000 C.ar    1  UNL1        0.0081
     40 C          10.3923    6.0000    0.0000 C.ar    1  UNL1        0.0563
     41 N          11.2583    6.5000    0.0000 N.ar    1  UNL1       -0.2499
     42 C          12.1244    6.0000    0.0000 C.ar    1  UNL1        0.0830
     43 C          12.9904    6.5000    0.0000 C.ar    1  UNL1        0.0305
     44 C          13.8564    6.0000    0.0000 C.ar    1  UNL1        0.0592
     45 CL         14.7224    6.5000    0.0000 Cl      1  UNL1       -0.0822
     46 C          13.8564    5.0000    0.0000 C.ar    1  UNL1        0.0115
     47 C          12.9904    4.5000    0.0000 C.ar    1  UNL1        0.0037
     48 C          12.1244    5.0000    0.0000 C.ar    1  UNL1        0.0342
     49 C           9.5263    6.5000    0.0000 C.3     1  UNL1        0.0455
     50 C           8.6603    6.0000    0.0000 C.3     1  UNL1        0.0066
     51 C           8.6603    5.0000    0.0000 C.3     1  UNL1        0.0052
     52 C           9.5263    4.5000    0.0000 C.3     1  UNL1        0.0289
     53 C           2.5981    1.5000    0.0000 C.ar    1  UNL1        0.0417
@<TRIPOS>UNITY_ATOM_ATTR
3 1
charge 1
17 1
charge 1
@<TRIPOS>BOND
     1     1     2    1
     2     2     3    1
     3     3     4    1
     4     4     5    1
     5     3     6    1
     6     6     7    1
     7     3     8    1
     8     8     9    1
     9     9    10    1
    10    10    11    1
    11    11    12   ar
    12    12    13   ar
    13    13    14    1
    14    14    15    1
    15    15    16    1
    16    16    17    1
    17    17    18    1
    18    18    19    1
    19    17    20    1
    20    20    21    1
    21    17    22    1
    22    22    23    1
    23    13    24   ar
    24    24    25   ar
    25    25    26    1
    26    26    27    2
    27    26    28   am
    28    28    29    1
    29    29    30    1
    30    30    31    1
    31    31    32    1
    32    32    33    1
    33    33    34    1
    34    34    35    2
    35    34    36   am
    36    36    37    1
    37    37    38    1
    38    38    39   ar
    39    39    40   ar
    40    40    41   ar
    41    41    42   ar
    42    42    43   ar
    43    43    44   ar
    44    44    45    1
    45    44    46   ar
    46    46    47   ar
    47    47    48   ar
    48    38    48   ar
    49    42    48   ar
    50    40    49    1
    51    49    50    1
    52    50    51    1
    53    51    52    1
    54    39    52    1
    55    25    53   ar
    56    11    53   ar
