REMARK  Name = cpd107.pdb
REMARK  29 active torsions:
REMARK  status: ('A' for Active; 'I' for Inactive)
REMARK    1  A    between atoms: C_1  and  C_2
REMARK    2  A    between atoms: C_2  and  N_3
REMARK    3  A    between atoms: N_3  and  C_4
REMARK    4  A    between atoms: N_3  and  C_6
REMARK    5  A    between atoms: N_3  and  C_8
REMARK    6  A    between atoms: C_4  and  C_5
REMARK    7  A    between atoms: C_6  and  C_7
REMARK    8  A    between atoms: C_8  and  C_9
REMARK    9  A    between atoms: C_9  and  O_10
REMARK   10  A    between atoms: O_10  and  C_11
REMARK   11  A    between atoms: C_13  and  O_14
REMARK   12  A    between atoms: O_14  and  C_15
REMARK   13  A    between atoms: C_15  and  C_16
REMARK   14  A    between atoms: C_16  and  N_17
REMARK   15  A    between atoms: N_17  and  C_18
REMARK   16  A    between atoms: N_17  and  C_20
REMARK   17  A    between atoms: N_17  and  C_22
REMARK   18  A    between atoms: C_18  and  C_19
REMARK   19  A    between atoms: C_20  and  C_21
REMARK   20  A    between atoms: C_22  and  C_23
REMARK   21  A    between atoms: C_25  and  C_26
REMARK   22  A    between atoms: N_28  and  C_29
REMARK   23  A    between atoms: C_29  and  C_30
REMARK   24  A    between atoms: C_30  and  C_31
REMARK   25  A    between atoms: C_31  and  C_32
REMARK   26  A    between atoms: C_32  and  C_33
REMARK   27  A    between atoms: C_33  and  C_34
REMARK   28  A    between atoms: N_36  and  N_37
REMARK   29  A    between atoms: N_37  and  C_38
REMARK                            x       y       z     vdW  Elec       q    Type
REMARK                         _______ _______ _______ _____ _____    ______ ____
ROOT
ATOM      1  C   UNL     1       4.734   2.275   0.037  0.00  0.00    +0.244 C 
ATOM      2  O   UNL     1       5.351   2.608   1.042  0.00  0.00    -0.270 OA
ATOM      3  N   UNL     1       5.108   1.230  -0.783  0.00  0.00    -0.311 N 
ATOM      4  H   UNL     1       4.575   1.018  -1.583  0.00  0.00    +0.000 HD
ENDROOT
BRANCH   1   9
ATOM      5  C   UNL     1       1.145   2.936  -0.953  0.00  0.00    +0.125 A 
ATOM      6  C   UNL     1       0.998   4.252  -0.495  0.00  0.00    +0.022 A 
ATOM      7  C   UNL     1       2.091   4.933   0.046  0.00  0.00    +0.125 A 
ATOM      8  C   UNL     1       3.313   4.290   0.195  0.00  0.00    -0.008 A 
ATOM      9  C   UNL     1       3.480   2.997  -0.302  0.00  0.00    +0.044 A 
ATOM     10  C   UNL     1       2.411   2.346  -0.933  0.00  0.00    -0.008 A 
BRANCH   7  11
ATOM     11  O   UNL     1       1.960   6.190   0.574  0.00  0.00    -0.494 OA
BRANCH  11  12
ATOM     12  C   UNL     1       1.953   7.188  -0.457  0.00  0.00    +0.075 C 
BRANCH  12  13
ATOM     13  C   UNL     1       2.058   8.593   0.176  0.00  0.00    -0.053 C 
BRANCH  13  14
ATOM     14  N   UNL     1       3.527   9.069   0.562  0.00  0.00    +0.382 N 
BRANCH  14  15
ATOM     15  C   UNL     1       4.118   7.996   1.520  0.00  0.00    -0.091 C 
ATOM     16  C   UNL     1       5.469   8.324   2.130  0.00  0.00    -0.080 C 
ENDBRANCH  14  15
BRANCH  14  17
ATOM     17  C   UNL     1       3.389  10.410   1.340  0.00  0.00    -0.091 C 
ATOM     18  C   UNL     1       2.599  11.476   0.595  0.00  0.00    -0.080 C 
ENDBRANCH  14  17
BRANCH  14  19
ATOM     19  C   UNL     1       4.358   9.198  -0.738  0.00  0.00    -0.091 C 
ATOM     20  C   UNL     1       5.534  10.162  -0.682  0.00  0.00    -0.080 C 
ENDBRANCH  14  19
ENDBRANCH  13  14
ENDBRANCH  12  13
ENDBRANCH  11  12
ENDBRANCH   7  11
BRANCH   5  21
ATOM     21  O   UNL     1      -0.022   2.311  -1.315  0.00  0.00    -0.494 OA
BRANCH  21  22
ATOM     22  C   UNL     1      -0.037   0.890  -1.521  0.00  0.00    +0.075 C 
BRANCH  22  23
ATOM     23  C   UNL     1       0.000   0.000   0.000  0.00  0.00    -0.053 C 
BRANCH  23  24
ATOM     24  N   UNL     1       0.000  -1.000   0.000  0.00  0.00    +0.382 N 
BRANCH  24  26
ATOM     25  C   UNL     1      -2.376   0.070   0.074  0.00  0.00    -0.080 C 
ATOM     26  C   UNL     1      -1.000  -1.000   0.000  0.00  0.00    -0.091 C 
ENDBRANCH  24  26
BRANCH  24  27
ATOM     27  C   UNL     1       1.000  -1.000   0.000  0.00  0.00    -0.091 C 
ATOM     28  C   UNL     1       1.841  -0.840   1.485  0.00  0.00    -0.080 C 
ENDBRANCH  24  27
BRANCH  24  29
ATOM     29  C   UNL     1       0.000  -2.000   0.000  0.00  0.00    -0.091 C 
ATOM     30  C   UNL     1       0.219  -2.848  -1.471  0.00  0.00    -0.080 C 
ENDBRANCH  24  29
ENDBRANCH  23  24
ENDBRANCH  22  23
ENDBRANCH  21  22
ENDBRANCH   5  21
ENDBRANCH   1   9
BRANCH   3  31
ATOM     31  C   UNL     1       6.289   0.440  -0.468  0.00  0.00    +0.012 C 
BRANCH  31  32
ATOM     32  C   UNL     1       7.574   1.177  -0.824  0.00  0.00    -0.037 C 
BRANCH  32  33
ATOM     33  C   UNL     1       8.822   0.428  -0.348  0.00  0.00    -0.051 C 
BRANCH  33  34
ATOM     34  C   UNL     1      10.065   1.247  -0.684  0.00  0.00    -0.045 C 
BRANCH  34  35
ATOM     35  C   UNL     1      11.366   0.620  -0.186  0.00  0.00    +0.025 C 
BRANCH  35  36
ATOM     36  C   UNL     1      12.536   1.371  -0.788  0.00  0.00    +0.229 C 
ATOM     37  O   UNL     1      13.251   0.890  -1.662  0.00  0.00    -0.274 OA
ATOM     38  N   UNL     1      12.663   2.670  -0.317  0.00  0.00    -0.236 N 
ATOM     39  H   UNL     1      12.406   2.929   0.598  0.00  0.00    +0.000 HD
BRANCH  38  40
ATOM     40  N   UNL     1      13.189   3.595  -1.249  0.00  0.00    -0.264 N 
ATOM     41  H   UNL     1      13.466   3.359  -2.164  0.00  0.00    +0.000 HD
BRANCH  40  42
ATOM     42  C   UNL     1      13.269   4.908  -0.705  0.00  0.00    +0.058 A 
ATOM     43  C   UNL     1      12.104   5.707  -0.697  0.00  0.00    -0.003 A 
ATOM     44  C   UNL     1      12.183   6.965  -0.105  0.00  0.00    +0.047 A 
ATOM     45  N   UNL     1      13.321   7.451   0.437  0.00  0.00    -0.251 NA
ATOM     46  C   UNL     1      14.429   6.695   0.430  0.00  0.00    +0.074 A 
ATOM     47  C   UNL     1      15.575   7.232   0.995  0.00  0.00    -0.017 A 
ATOM     48  C   UNL     1      16.764   6.510   1.046  0.00  0.00    +0.043 A 
ATOM     49 CL   UNL     1      18.164   7.214   1.754  0.00  0.00    -0.083 Cl
ATOM     50  C   UNL     1      16.822   5.222   0.534  0.00  0.00    -0.043 A 
ATOM     51  C   UNL     1      15.680   4.665  -0.040  0.00  0.00    -0.049 A 
ATOM     52  C   UNL     1      14.467   5.395  -0.116  0.00  0.00    +0.023 A 
ATOM     53  C   UNL     1      11.011   7.912  -0.088  0.00  0.00    -0.010 C 
ATOM     54  C   UNL     1       9.671   7.222  -0.321  0.00  0.00    -0.047 C 
ATOM     55  C   UNL     1       9.768   6.302  -1.529  0.00  0.00    -0.049 C 
ATOM     56  C   UNL     1      10.803   5.206  -1.279  0.00  0.00    -0.024 C 
ENDBRANCH  40  42
ENDBRANCH  38  40
ENDBRANCH  35  36
ENDBRANCH  34  35
ENDBRANCH  33  34
ENDBRANCH  32  33
ENDBRANCH  31  32
ENDBRANCH   3  31
TORSDOF 23
