REMARK  Name = cpd278.pdb
REMARK  11 active torsions:
REMARK  status: ('A' for Active; 'I' for Inactive)
REMARK    1  A    between atoms: C_2  and  C_3
REMARK    2  A    between atoms: C_2  and  C_5
REMARK    3  A    between atoms: C_3  and  O_4
REMARK    4  A    between atoms: C_8  and  C_9
REMARK    5  A    between atoms: C_15  and  C_16
REMARK    6  A    between atoms: C_19  and  O_20
REMARK    7  A    between atoms: C_21  and  C_22
REMARK    8  A    between atoms: C_21  and  C_23
REMARK    9  A    between atoms: C_27  and  C_28
REMARK   10  A    between atoms: C_29  and  C_30
REMARK   11  A    between atoms: C_32  and  O_33
REMARK                            x       y       z     vdW  Elec       q    Type
REMARK                         _______ _______ _______ _____ _____    ______ ____
ROOT
ATOM      1  C   UNL A   1      -3.193  -1.294  -0.550  0.00  0.00    -0.014 C 
ATOM      2  C   UNL A   1      -3.727   0.002  -1.213  0.00  0.00    -0.046 C 
ATOM      3  C   UNL A   1      -2.662   1.074  -1.004  0.00  0.00    -0.044 C 
ATOM      4  C   UNL A   1      -1.911   0.644   0.265  0.00  0.00    -0.002 C 
ATOM      5  C   UNL A   1      -2.764   0.997   1.512  0.00  0.00    -0.057 C 
ATOM      6  C   UNL A   1      -1.798  -0.893   0.080  0.00  0.00    -0.023 C 
ATOM      7  C   UNL A   1      -0.629  -1.328  -0.878  0.00  0.00    -0.031 C 
ATOM      8  C   UNL A   1      -0.464  -2.855  -0.939  0.00  0.00    -0.049 C 
ATOM      9  C   UNL A   1       0.248  -3.441   0.267  0.00  0.00    -0.049 C 
ATOM     10  C   UNL A   1       1.667  -2.896   0.520  0.00  0.00    -0.029 C 
ATOM     11  C   UNL A   1       2.862  -3.787  -0.074  0.00  0.00    -0.025 C 
ATOM     12  C   UNL A   1       2.668  -4.114  -1.569  0.00  0.00    -0.059 C 
ATOM     13  C   UNL A   1       2.881  -5.160   0.680  0.00  0.00    -0.045 C 
ATOM     14  C   UNL A   1       4.121  -6.007   0.408  0.00  0.00    -0.026 C 
ATOM     15  C   UNL A   1       5.414  -5.264   0.725  0.00  0.00    +0.061 C 
ATOM     16  C   UNL A   1       5.542  -3.884   0.012  0.00  0.00    -0.006 C 
ATOM     17  C   UNL A   1       6.729  -3.131   0.681  0.00  0.00    -0.057 C 
ATOM     18  C   UNL A   1       5.931  -4.046  -1.472  0.00  0.00    -0.057 C 
ATOM     19  C   UNL A   1       4.215  -3.066   0.246  0.00  0.00    -0.028 C 
ATOM     20  C   UNL A   1       4.206  -1.661  -0.370  0.00  0.00    -0.049 C 
ATOM     21  C   UNL A   1       3.196  -0.779   0.354  0.00  0.00    -0.047 C 
ATOM     22  C   UNL A   1       1.722  -1.301   0.439  0.00  0.00    -0.023 C 
ATOM     23  C   UNL A   1       1.255  -0.815   1.853  0.00  0.00    -0.059 C 
ATOM     24  C   UNL A   1       0.767  -0.628  -0.702  0.00  0.00    -0.021 C 
ATOM     25  C   UNL A   1       1.472  -0.717  -2.094  0.00  0.00    -0.059 C 
ATOM     26  C   UNL A   1       0.535   0.907  -0.525  0.00  0.00    -0.020 C 
ATOM     27  C   UNL A   1      -0.560   1.352   0.438  0.00  0.00    +0.061 C 
ENDROOT
BRANCH   1  29
ATOM     28  C   UNL A   1      -5.307  -1.598   0.866  0.00  0.00    -0.097 C 
ATOM     29  C   UNL A   1      -4.129  -2.061   0.403  0.00  0.00    -0.048 C 
BRANCH  29  30
ATOM     30  C   UNL A   1      -3.659  -3.469   0.728  0.00  0.00    +0.065 C 
BRANCH  30  31
ATOM     31  O   UNL A   1      -4.481  -4.114   1.691  0.00  0.00    -0.391 OA
ATOM     32  H   UNL A   1      -4.456  -3.616   2.523  0.00  0.00    +0.000 HD
ENDBRANCH  30  31
ENDBRANCH  29  30
ENDBRANCH   1  29
BRANCH  15  33
ATOM     33  O   UNL A   1       6.493  -6.136   0.390  0.00  0.00    -0.391 OA
ATOM     34  H   UNL A   1       6.459  -6.343  -0.557  0.00  0.00    +0.000 HD
ENDBRANCH  15  33
BRANCH  27  35
ATOM     35  O   UNL A   1      -0.743   2.766   0.278  0.00  0.00    -0.391 OA
ATOM     36  H   UNL A   1      -1.043   2.953  -0.625  0.00  0.00    +0.000 HD
ENDBRANCH  27  35
TORSDOF 5
