@<TRIPOS>MOLECULE
*****
 33 37 0 0 0
SMALL
GASTEIGER

@<TRIPOS>ATOM
      1 C          -4.0510   -1.8494    0.0000 C.2     1  UNL1       -0.0066
      2 C          -3.1348   -2.0946    0.0000 C.2     1  UNL1       -0.0120
      3 C          -2.8890   -3.0107    0.0000 C.3     1  UNL1        0.2044
      4 O          -3.5595   -3.6815    0.0000 O.3     1  UNL1       -0.2155
      5 C          -2.4643   -1.4237    0.0000 C.3     1  UNL1        0.0209
      6 C          -2.4645   -0.4752    0.0000 C.3     1  UNL1        0.0042
      7 C          -1.6439   -0.0005    0.0000 C.3     1  UNL1        0.0028
      8 C          -0.8218   -0.4748    0.0000 C.3     1  UNL1        0.0285
      9 C          -0.8221    0.4989    0.0000 C.3     1  UNL1        0.0025
     10 C          -0.8215   -1.4232    0.0000 C.3     1  UNL1        0.0062
     11 C           0.0005   -1.8975    0.0000 C.3     1  UNL1        0.0005
     12 C           0.0008   -2.8466    0.0000 C.3     1  UNL1        0.0000
     13 C           0.8229   -3.3209    0.0000 C.3     1  UNL1        0.0000
     14 C           1.6447   -2.8461    0.0000 C.3     1  UNL1        0.0000
     15 C           2.4662   -3.3204    0.0000 C.3     1  UNL1        0.0002
     16 C           1.6232   -3.8077    0.0000 C.3     1  UNL1        0.0000
     17 C           2.4667   -4.2690    0.0000 C.3     1  UNL1        0.0026
     18 C           3.2885   -4.7428    0.0000 C.3     1  UNL1        0.0329
     19 C           4.1097   -4.2681    0.0000 C.3     1  UNL1        0.1519
     20 O           4.9618   -4.7593    0.0000 O.3     1  UNL1       -0.2232
     21 C           4.1092   -3.3195    0.0000 C.3     1  UNL1        0.0282
     22 C           5.0927   -3.3189    0.0000 C.3     1  UNL1        0.0025
     23 C           4.6005   -2.4674    0.0000 C.3     1  UNL1        0.0025
     24 C           3.2874   -2.8457    0.0000 C.3     1  UNL1        0.0024
     25 C           3.2872   -1.8966    0.0000 C.3     1  UNL1        0.0001
     26 C           2.4657   -1.4223    0.0000 C.3     1  UNL1        0.0000
     27 C           1.6444   -1.8971    0.0000 C.3     1  UNL1        0.0001
     28 C           1.6439    0.0503    0.0000 C.3     1  UNL1        0.0000
     29 C           0.8223   -1.4228    0.0000 C.3     1  UNL1        0.0025
     30 C           1.6655   -0.9357    0.0000 C.3     1  UNL1        0.0001
     31 C           0.8221   -0.4743    0.0000 C.3     1  UNL1        0.0329
     32 C           0.0000   -0.0000    0.0000 C.3     1  UNL1        0.1519
     33 O          -0.0003    0.9737    0.0000 O.3     1  UNL1       -0.2232
@<TRIPOS>BOND
     1     1     2    2
     2     2     3    1
     3     3     4    1
     4     2     5    1
     5     5     6    1
     6     6     7    1
     7     7     8    1
     8     8     9    1
     9     8    10    1
    10     5    10    1
    11    10    11    1
    12    11    12    1
    13    12    13    1
    14    13    14    1
    15    14    15    1
    16    15    16    1
    17    15    17    1
    18    17    18    1
    19    18    19    1
    20    19    20    1
    21    19    21    1
    22    21    22    1
    23    21    23    1
    24    21    24    1
    25    15    24    1
    26    24    25    1
    27    25    26    1
    28    26    27    1
    29    14    27    1
    30    27    28    1
    31    27    29    1
    32    11    29    1
    33    29    30    1
    34    29    31    1
    35    31    32    1
    36     8    32    1
    37    32    33    1
