MODEL 1
REMARK VINA RESULT:    -5.652      0.000      0.000
REMARK INTER + INTRA:          -6.167
REMARK INTER:                  -6.148
REMARK INTRA:                  -0.019
REMARK UNBOUND:                -0.019
REMARK  Name = cpd201.pdb
REMARK  2 active torsions:
REMARK  status: ('A' for Active; 'I' for Inactive)
REMARK    1  A    between atoms: C_2  and  C_3
REMARK    2  A    between atoms: C_6  and  O_7
REMARK                            x       y       z     vdW  Elec       q    Type
REMARK                         _______ _______ _______ _____ _____    ______ ____
ROOT
ATOM      1  C   UNL A   1      47.967 -39.954 -29.803  0.00  0.00    +0.014 A 
ATOM      2  C   UNL A   1      48.549 -40.349 -31.012  0.00  0.00    -0.048 A 
ATOM      3  C   UNL A   1      49.810 -39.863 -31.367  0.00  0.00    -0.020 A 
ATOM      4  C   UNL A   1      50.471 -38.988 -30.510  0.00  0.00    +0.117 A 
ATOM      5  C   UNL A   1      49.896 -38.592 -29.306  0.00  0.00    -0.020 A 
ATOM      6  C   UNL A   1      48.636 -39.075 -28.946  0.00  0.00    -0.048 A 
ENDROOT
BRANCH   1   8
ATOM      7  O   UNL A   1      46.145 -40.246 -28.320  0.00  0.00    -0.296 OA
ATOM      8  C   UNL A   1      46.635 -40.464 -29.421  0.00  0.00    +0.150 C 
ENDBRANCH   1   8
BRANCH   4   9
ATOM      9  O   UNL A   1      51.702 -38.489 -30.816  0.00  0.00    -0.507 OA
ATOM     10  H   UNL A   1      52.080 -38.658 -31.657  0.00  0.00    +0.000 HD
ENDBRANCH   4   9
TORSDOF 2
ENDMDL
MODEL 2
REMARK VINA RESULT:    -5.429      7.654      9.528
REMARK INTER + INTRA:          -5.924
REMARK INTER:                  -5.909
REMARK INTRA:                  -0.016
REMARK UNBOUND:                -0.019
REMARK  Name = cpd201.pdb
REMARK  2 active torsions:
REMARK  status: ('A' for Active; 'I' for Inactive)
REMARK    1  A    between atoms: C_2  and  C_3
REMARK    2  A    between atoms: C_6  and  O_7
REMARK                            x       y       z     vdW  Elec       q    Type
REMARK                         _______ _______ _______ _____ _____    ______ ____
ROOT
ATOM      1  C   UNL A   1      41.601 -37.187 -31.546  0.00  0.00    +0.014 A 
ATOM      2  C   UNL A   1      40.515 -37.095 -30.668  0.00  0.00    -0.048 A 
ATOM      3  C   UNL A   1      39.324 -36.505 -31.096  0.00  0.00    -0.020 A 
ATOM      4  C   UNL A   1      39.233 -36.014 -32.396  0.00  0.00    +0.117 A 
ATOM      5  C   UNL A   1      40.310 -36.104 -33.273  0.00  0.00    -0.020 A 
ATOM      6  C   UNL A   1      41.503 -36.693 -32.850  0.00  0.00    -0.048 A 
ENDROOT
BRANCH   1   8
ATOM      7  O   UNL A   1      43.939 -37.230 -31.178  0.00  0.00    -0.296 OA
ATOM      8  C   UNL A   1      42.863 -37.810 -31.100  0.00  0.00    +0.150 C 
ENDBRANCH   1   8
BRANCH   4   9
ATOM      9  O   UNL A   1      38.091 -35.431 -32.855  0.00  0.00    -0.507 OA
ATOM     10  H   UNL A   1      37.258 -35.821 -32.672  0.00  0.00    +0.000 HD
ENDBRANCH   4   9
TORSDOF 2
ENDMDL
MODEL 3
REMARK VINA RESULT:    -5.400      7.763      9.565
REMARK INTER + INTRA:          -5.893
REMARK INTER:                  -5.878
REMARK INTRA:                  -0.015
REMARK UNBOUND:                -0.019
REMARK  Name = cpd201.pdb
REMARK  2 active torsions:
REMARK  status: ('A' for Active; 'I' for Inactive)
REMARK    1  A    between atoms: C_2  and  C_3
REMARK    2  A    between atoms: C_6  and  O_7
REMARK                            x       y       z     vdW  Elec       q    Type
REMARK                         _______ _______ _______ _____ _____    ______ ____
ROOT
ATOM      1  C   UNL A   1      41.370 -37.242 -31.454  0.00  0.00    +0.014 A 
ATOM      2  C   UNL A   1      41.378 -36.700 -32.744  0.00  0.00    -0.048 A 
ATOM      3  C   UNL A   1      40.236 -36.064 -33.237  0.00  0.00    -0.020 A 
ATOM      4  C   UNL A   1      39.101 -35.978 -32.435  0.00  0.00    +0.117 A 
ATOM      5  C   UNL A   1      39.089 -36.516 -31.151  0.00  0.00    -0.020 A 
ATOM      6  C   UNL A   1      40.228 -37.153 -30.653  0.00  0.00    -0.048 A 
ENDROOT
BRANCH   1   8
ATOM      7  O   UNL A   1      43.625 -37.317 -30.738  0.00  0.00    -0.296 OA
ATOM      8  C   UNL A   1      42.573 -37.916 -30.927  0.00  0.00    +0.150 C 
ENDBRANCH   1   8
BRANCH   4   9
ATOM      9  O   UNL A   1      37.966 -35.367 -32.875  0.00  0.00    -0.507 OA
ATOM     10  H   UNL A   1      37.936 -34.433 -32.952  0.00  0.00    +0.000 HD
ENDBRANCH   4   9
TORSDOF 2
ENDMDL
MODEL 4
REMARK VINA RESULT:    -5.264      7.259      8.827
REMARK INTER + INTRA:          -5.745
REMARK INTER:                  -5.729
REMARK INTRA:                  -0.016
REMARK UNBOUND:                -0.019
REMARK  Name = cpd201.pdb
REMARK  2 active torsions:
REMARK  status: ('A' for Active; 'I' for Inactive)
REMARK    1  A    between atoms: C_2  and  C_3
REMARK    2  A    between atoms: C_6  and  O_7
REMARK                            x       y       z     vdW  Elec       q    Type
REMARK                         _______ _______ _______ _____ _____    ______ ____
ROOT
ATOM      1  C   UNL A   1      40.306 -36.203 -31.658  0.00  0.00    +0.014 A 
ATOM      2  C   UNL A   1      41.429 -36.488 -32.442  0.00  0.00    -0.048 A 
ATOM      3  C   UNL A   1      42.316 -37.492 -32.047  0.00  0.00    -0.020 A 
ATOM      4  C   UNL A   1      42.068 -38.199 -30.873  0.00  0.00    +0.117 A 
ATOM      5  C   UNL A   1      40.952 -37.918 -30.089  0.00  0.00    -0.020 A 
ATOM      6  C   UNL A   1      40.063 -36.916 -30.480  0.00  0.00    -0.048 A 
ENDROOT
BRANCH   1   8
ATOM      7  O   UNL A   1      39.735 -34.000 -32.310  0.00  0.00    -0.296 OA
ATOM      8  C   UNL A   1      39.365 -35.143 -32.069  0.00  0.00    +0.150 C 
ENDBRANCH   1   8
BRANCH   4   9
ATOM      9  O   UNL A   1      42.906 -39.186 -30.449  0.00  0.00    -0.507 OA
ATOM     10  H   UNL A   1      43.716 -38.967 -30.031  0.00  0.00    +0.000 HD
ENDBRANCH   4   9
TORSDOF 2
ENDMDL
MODEL 5
REMARK VINA RESULT:    -5.150      2.014      4.643
REMARK INTER + INTRA:          -5.621
REMARK INTER:                  -5.606
REMARK INTRA:                  -0.015
REMARK UNBOUND:                -0.019
REMARK  Name = cpd201.pdb
REMARK  2 active torsions:
REMARK  status: ('A' for Active; 'I' for Inactive)
REMARK    1  A    between atoms: C_2  and  C_3
REMARK    2  A    between atoms: C_6  and  O_7
REMARK                            x       y       z     vdW  Elec       q    Type
REMARK                         _______ _______ _______ _____ _____    ______ ____
ROOT
ATOM      1  C   UNL A   1      47.636 -40.213 -29.949  0.00  0.00    +0.014 A 
ATOM      2  C   UNL A   1      46.596 -40.300 -29.017  0.00  0.00    -0.048 A 
ATOM      3  C   UNL A   1      45.575 -41.236 -29.201  0.00  0.00    -0.020 A 
ATOM      4  C   UNL A   1      45.608 -42.073 -30.312  0.00  0.00    +0.117 A 
ATOM      5  C   UNL A   1      46.641 -41.990 -31.242  0.00  0.00    -0.020 A 
ATOM      6  C   UNL A   1      47.663 -41.056 -31.064  0.00  0.00    -0.048 A 
ENDROOT
BRANCH   1   8
ATOM      7  O   UNL A   1      48.973 -38.371 -30.602  0.00  0.00    -0.296 OA
ATOM      8  C   UNL A   1      48.717 -39.225 -29.762  0.00  0.00    +0.150 C 
ENDBRANCH   1   8
BRANCH   4   9
ATOM      9  O   UNL A   1      44.634 -43.001 -30.530  0.00  0.00    -0.507 OA
ATOM     10  H   UNL A   1      44.852 -43.829 -30.911  0.00  0.00    +0.000 HD
ENDBRANCH   4   9
TORSDOF 2
ENDMDL
MODEL 6
REMARK VINA RESULT:    -4.947      2.019      4.436
REMARK INTER + INTRA:          -5.400
REMARK INTER:                  -5.384
REMARK INTRA:                  -0.017
REMARK UNBOUND:                -0.019
REMARK  Name = cpd201.pdb
REMARK  2 active torsions:
REMARK  status: ('A' for Active; 'I' for Inactive)
REMARK    1  A    between atoms: C_2  and  C_3
REMARK    2  A    between atoms: C_6  and  O_7
REMARK                            x       y       z     vdW  Elec       q    Type
REMARK                         _______ _______ _______ _____ _____    ______ ____
ROOT
ATOM      1  C   UNL A   1      47.459 -40.078 -29.756  0.00  0.00    +0.014 A 
ATOM      2  C   UNL A   1      47.450 -40.901 -30.887  0.00  0.00    -0.048 A 
ATOM      3  C   UNL A   1      46.476 -41.894 -31.017  0.00  0.00    -0.020 A 
ATOM      4  C   UNL A   1      45.522 -42.050 -30.015  0.00  0.00    +0.117 A 
ATOM      5  C   UNL A   1      45.527 -41.234 -28.887  0.00  0.00    -0.020 A 
ATOM      6  C   UNL A   1      46.498 -40.241 -28.752  0.00  0.00    -0.048 A 
ENDROOT
BRANCH   1   8
ATOM      7  O   UNL A   1      48.880 -38.367 -30.565  0.00  0.00    -0.296 OA
ATOM      8  C   UNL A   1      48.485 -39.028 -29.612  0.00  0.00    +0.150 C 
ENDBRANCH   1   8
BRANCH   4   9
ATOM      9  O   UNL A   1      44.554 -43.005 -30.100  0.00  0.00    -0.507 OA
ATOM     10  H   UNL A   1      44.330 -43.515 -29.346  0.00  0.00    +0.000 HD
ENDBRANCH   4   9
TORSDOF 2
ENDMDL
MODEL 7
REMARK VINA RESULT:    -4.918      8.264      9.946
REMARK INTER + INTRA:          -5.369
REMARK INTER:                  -5.350
REMARK INTRA:                  -0.019
REMARK UNBOUND:                -0.019
REMARK  Name = cpd201.pdb
REMARK  2 active torsions:
REMARK  status: ('A' for Active; 'I' for Inactive)
REMARK    1  A    between atoms: C_2  and  C_3
REMARK    2  A    between atoms: C_6  and  O_7
REMARK                            x       y       z     vdW  Elec       q    Type
REMARK                         _______ _______ _______ _____ _____    ______ ____
ROOT
ATOM      1  C   UNL A   1      39.159 -36.745 -30.799  0.00  0.00    +0.014 A 
ATOM      2  C   UNL A   1      40.519 -37.062 -30.891  0.00  0.00    -0.048 A 
ATOM      3  C   UNL A   1      41.118 -37.848 -29.902  0.00  0.00    -0.020 A 
ATOM      4  C   UNL A   1      40.350 -38.306 -28.835  0.00  0.00    +0.117 A 
ATOM      5  C   UNL A   1      38.997 -37.993 -28.740  0.00  0.00    -0.020 A 
ATOM      6  C   UNL A   1      38.393 -37.208 -29.724  0.00  0.00    -0.048 A 
ENDROOT
BRANCH   1   8
ATOM      7  O   UNL A   1      39.111 -35.578 -32.858  0.00  0.00    -0.296 OA
ATOM      8  C   UNL A   1      38.520 -35.916 -31.839  0.00  0.00    +0.150 C 
ENDBRANCH   1   8
BRANCH   4   9
ATOM      9  O   UNL A   1      40.892 -39.074 -27.850  0.00  0.00    -0.507 OA
ATOM     10  H   UNL A   1      40.346 -39.649 -27.349  0.00  0.00    +0.000 HD
ENDBRANCH   4   9
TORSDOF 2
ENDMDL
MODEL 8
REMARK VINA RESULT:    -4.789     25.913     26.026
REMARK INTER + INTRA:          -5.228
REMARK INTER:                  -5.212
REMARK INTRA:                  -0.016
REMARK UNBOUND:                -0.019
REMARK  Name = cpd201.pdb
REMARK  2 active torsions:
REMARK  status: ('A' for Active; 'I' for Inactive)
REMARK    1  A    between atoms: C_2  and  C_3
REMARK    2  A    between atoms: C_6  and  O_7
REMARK                            x       y       z     vdW  Elec       q    Type
REMARK                         _______ _______ _______ _____ _____    ______ ____
ROOT
ATOM      1  C   UNL A   1      55.756 -22.120 -47.655  0.00  0.00    +0.014 A 
ATOM      2  C   UNL A   1      57.086 -22.470 -47.396  0.00  0.00    -0.048 A 
ATOM      3  C   UNL A   1      57.820 -21.755 -46.447  0.00  0.00    -0.020 A 
ATOM      4  C   UNL A   1      57.217 -20.699 -45.770  0.00  0.00    +0.117 A 
ATOM      5  C   UNL A   1      55.895 -20.347 -46.024  0.00  0.00    -0.020 A 
ATOM      6  C   UNL A   1      55.156 -21.058 -46.972  0.00  0.00    -0.048 A 
ENDROOT
BRANCH   1   8
ATOM      7  O   UNL A   1      54.315 -22.310 -49.524  0.00  0.00    -0.296 OA
ATOM      8  C   UNL A   1      54.974 -22.871 -48.656  0.00  0.00    +0.150 C 
ENDBRANCH   1   8
BRANCH   4   9
ATOM      9  O   UNL A   1      57.896 -19.975 -44.837  0.00  0.00    -0.507 OA
ATOM     10  H   UNL A   1      58.595 -19.408 -45.100  0.00  0.00    +0.000 HD
ENDBRANCH   4   9
TORSDOF 2
ENDMDL
MODEL 9
REMARK VINA RESULT:    -4.778      9.392     10.520
REMARK INTER + INTRA:          -5.216
REMARK INTER:                  -5.197
REMARK INTRA:                  -0.019
REMARK UNBOUND:                -0.019
REMARK  Name = cpd201.pdb
REMARK  2 active torsions:
REMARK  status: ('A' for Active; 'I' for Inactive)
REMARK    1  A    between atoms: C_2  and  C_3
REMARK    2  A    between atoms: C_6  and  O_7
REMARK                            x       y       z     vdW  Elec       q    Type
REMARK                         _______ _______ _______ _____ _____    ______ ____
ROOT
ATOM      1  C   UNL A   1      38.324 -36.885 -29.964  0.00  0.00    +0.014 A 
ATOM      2  C   UNL A   1      37.716 -36.052 -30.910  0.00  0.00    -0.048 A 
ATOM      3  C   UNL A   1      38.449 -35.597 -32.009  0.00  0.00    -0.020 A 
ATOM      4  C   UNL A   1      39.780 -35.980 -32.148  0.00  0.00    +0.117 A 
ATOM      5  C   UNL A   1      40.389 -36.808 -31.210  0.00  0.00    -0.020 A 
ATOM      6  C   UNL A   1      39.662 -37.266 -30.110  0.00  0.00    -0.048 A 
ENDROOT
BRANCH   1   8
ATOM      7  O   UNL A   1      38.083 -37.983 -27.881  0.00  0.00    -0.296 OA
ATOM      8  C   UNL A   1      37.556 -37.369 -28.801  0.00  0.00    +0.150 C 
ENDBRANCH   1   8
BRANCH   4   9
ATOM      9  O   UNL A   1      40.532 -35.560 -33.204  0.00  0.00    -0.507 OA
ATOM     10  H   UNL A   1      40.833 -34.673 -33.242  0.00  0.00    +0.000 HD
ENDBRANCH   4   9
TORSDOF 2
ENDMDL
MODEL 10
REMARK VINA RESULT:    -4.715      8.679     10.175
REMARK INTER + INTRA:          -5.148
REMARK INTER:                  -5.130
REMARK INTRA:                  -0.017
REMARK UNBOUND:                -0.019
REMARK  Name = cpd201.pdb
REMARK  2 active torsions:
REMARK  status: ('A' for Active; 'I' for Inactive)
REMARK    1  A    between atoms: C_2  and  C_3
REMARK    2  A    between atoms: C_6  and  O_7
REMARK                            x       y       z     vdW  Elec       q    Type
REMARK                         _______ _______ _______ _____ _____    ______ ____
ROOT
ATOM      1  C   UNL A   1      40.359 -36.860 -30.905  0.00  0.00    +0.014 A 
ATOM      2  C   UNL A   1      38.987 -36.588 -30.844  0.00  0.00    -0.048 A 
ATOM      3  C   UNL A   1      38.215 -37.138 -29.818  0.00  0.00    -0.020 A 
ATOM      4  C   UNL A   1      38.823 -37.952 -28.866  0.00  0.00    +0.117 A 
ATOM      5  C   UNL A   1      40.187 -38.225 -28.923  0.00  0.00    -0.020 A 
ATOM      6  C   UNL A   1      40.964 -37.678 -29.946  0.00  0.00    -0.048 A 
ENDROOT
BRANCH   1   8
ATOM      7  O   UNL A   1      40.940 -35.184 -32.472  0.00  0.00    -0.296 OA
ATOM      8  C   UNL A   1      41.181 -36.282 -31.986  0.00  0.00    +0.150 C 
ENDBRANCH   1   8
BRANCH   4   9
ATOM      9  O   UNL A   1      38.108 -38.509 -27.849  0.00  0.00    -0.507 OA
ATOM     10  H   UNL A   1      37.530 -37.978 -27.337  0.00  0.00    +0.000 HD
ENDBRANCH   4   9
TORSDOF 2
ENDMDL
MODEL 11
REMARK VINA RESULT:    -4.701     29.754     30.478
REMARK INTER + INTRA:          -5.132
REMARK INTER:                  -5.118
REMARK INTRA:                  -0.014
REMARK UNBOUND:                -0.019
REMARK  Name = cpd201.pdb
REMARK  2 active torsions:
REMARK  status: ('A' for Active; 'I' for Inactive)
REMARK    1  A    between atoms: C_2  and  C_3
REMARK    2  A    between atoms: C_6  and  O_7
REMARK                            x       y       z     vdW  Elec       q    Type
REMARK                         _______ _______ _______ _____ _____    ______ ____
ROOT
ATOM      1  C   UNL A   1      63.646 -27.005  -6.612  0.00  0.00    +0.014 A 
ATOM      2  C   UNL A   1      62.562 -26.304  -7.153  0.00  0.00    -0.048 A 
ATOM      3  C   UNL A   1      62.770 -25.061  -7.755  0.00  0.00    -0.020 A 
ATOM      4  C   UNL A   1      64.057 -24.534  -7.809  0.00  0.00    +0.117 A 
ATOM      5  C   UNL A   1      65.138 -25.228  -7.273  0.00  0.00    -0.020 A 
ATOM      6  C   UNL A   1      64.937 -26.470  -6.669  0.00  0.00    -0.048 A 
ENDROOT
BRANCH   1   8
ATOM      7  O   UNL A   1      63.759 -29.367  -6.517  0.00  0.00    -0.296 OA
ATOM      8  C   UNL A   1      63.434 -28.319  -5.974  0.00  0.00    +0.150 C 
ENDBRANCH   1   8
BRANCH   4   9
ATOM      9  O   UNL A   1      64.305 -23.326  -8.387  0.00  0.00    -0.507 OA
ATOM     10  H   UNL A   1      65.014 -22.795  -8.079  0.00  0.00    +0.000 HD
ENDBRANCH   4   9
TORSDOF 2
ENDMDL
MODEL 12
REMARK VINA RESULT:    -4.630      9.540     10.664
REMARK INTER + INTRA:          -5.055
REMARK INTER:                  -5.036
REMARK INTRA:                  -0.019
REMARK UNBOUND:                -0.019
REMARK  Name = cpd201.pdb
REMARK  2 active torsions:
REMARK  status: ('A' for Active; 'I' for Inactive)
REMARK    1  A    between atoms: C_2  and  C_3
REMARK    2  A    between atoms: C_6  and  O_7
REMARK                            x       y       z     vdW  Elec       q    Type
REMARK                         _______ _______ _______ _____ _____    ______ ____
ROOT
ATOM      1  C   UNL A   1      38.181 -37.041 -29.688  0.00  0.00    +0.014 A 
ATOM      2  C   UNL A   1      39.530 -37.354 -29.890  0.00  0.00    -0.048 A 
ATOM      3  C   UNL A   1      40.222 -36.786 -30.963  0.00  0.00    -0.020 A 
ATOM      4  C   UNL A   1      39.557 -35.912 -31.818  0.00  0.00    +0.117 A 
ATOM      5  C   UNL A   1      38.215 -35.597 -31.621  0.00  0.00    -0.020 A 
ATOM      6  C   UNL A   1      37.519 -36.162 -30.551  0.00  0.00    -0.048 A 
ENDROOT
BRANCH   1   8
ATOM      7  O   UNL A   1      37.952 -38.468 -27.813  0.00  0.00    -0.296 OA
ATOM      8  C   UNL A   1      37.443 -37.638 -28.557  0.00  0.00    +0.150 C 
ENDBRANCH   1   8
BRANCH   4   9
ATOM      9  O   UNL A   1      40.193 -35.334 -32.876  0.00  0.00    -0.507 OA
ATOM     10  H   UNL A   1      41.070 -35.586 -33.090  0.00  0.00    +0.000 HD
ENDBRANCH   4   9
TORSDOF 2
ENDMDL
MODEL 13
REMARK VINA RESULT:    -4.624      8.899     10.703
REMARK INTER + INTRA:          -5.049
REMARK INTER:                  -5.030
REMARK INTRA:                  -0.018
REMARK UNBOUND:                -0.019
REMARK  Name = cpd201.pdb
REMARK  2 active torsions:
REMARK  status: ('A' for Active; 'I' for Inactive)
REMARK    1  A    between atoms: C_2  and  C_3
REMARK    2  A    between atoms: C_6  and  O_7
REMARK                            x       y       z     vdW  Elec       q    Type
REMARK                         _______ _______ _______ _____ _____    ______ ____
ROOT
ATOM      1  C   UNL A   1      37.939 -36.969 -30.027  0.00  0.00    +0.014 A 
ATOM      2  C   UNL A   1      37.675 -37.690 -28.856  0.00  0.00    -0.048 A 
ATOM      3  C   UNL A   1      38.720 -38.322 -28.179  0.00  0.00    -0.020 A 
ATOM      4  C   UNL A   1      40.016 -38.226 -28.679  0.00  0.00    +0.117 A 
ATOM      5  C   UNL A   1      40.283 -37.510 -29.843  0.00  0.00    -0.020 A 
ATOM      6  C   UNL A   1      39.243 -36.876 -30.524  0.00  0.00    -0.048 A 
ENDROOT
BRANCH   1   8
ATOM      7  O   UNL A   1      37.024 -35.305 -31.440  0.00  0.00    -0.296 OA
ATOM      8  C   UNL A   1      36.839 -36.299 -30.748  0.00  0.00    +0.150 C 
ENDBRANCH   1   8
BRANCH   4   9
ATOM      9  O   UNL A   1      41.065 -38.826 -28.051  0.00  0.00    -0.507 OA
ATOM     10  H   UNL A   1      41.292 -38.578 -27.176  0.00  0.00    +0.000 HD
ENDBRANCH   4   9
TORSDOF 2
ENDMDL
MODEL 14
REMARK VINA RESULT:    -4.573     29.254     30.210
REMARK INTER + INTRA:          -4.993
REMARK INTER:                  -4.975
REMARK INTRA:                  -0.018
REMARK UNBOUND:                -0.019
REMARK  Name = cpd201.pdb
REMARK  2 active torsions:
REMARK  status: ('A' for Active; 'I' for Inactive)
REMARK    1  A    between atoms: C_2  and  C_3
REMARK    2  A    between atoms: C_6  and  O_7
REMARK                            x       y       z     vdW  Elec       q    Type
REMARK                         _______ _______ _______ _____ _____    ______ ____
ROOT
ATOM      1  C   UNL A   1      63.557 -24.580  -8.736  0.00  0.00    +0.014 A 
ATOM      2  C   UNL A   1      62.266 -24.904  -8.305  0.00  0.00    -0.048 A 
ATOM      3  C   UNL A   1      62.092 -25.662  -7.144  0.00  0.00    -0.020 A 
ATOM      4  C   UNL A   1      63.210 -26.085  -6.430  0.00  0.00    +0.117 A 
ATOM      5  C   UNL A   1      64.495 -25.764  -6.855  0.00  0.00    -0.020 A 
ATOM      6  C   UNL A   1      64.676 -25.007  -8.015  0.00  0.00    -0.048 A 
ENDROOT
BRANCH   1   8
ATOM      7  O   UNL A   1      62.914 -23.750 -10.858  0.00  0.00    -0.296 OA
ATOM      8  C   UNL A   1      63.749 -23.780  -9.962  0.00  0.00    +0.150 C 
ENDBRANCH   1   8
BRANCH   4   9
ATOM      9  O   UNL A   1      63.086 -26.825  -5.293  0.00  0.00    -0.507 OA
ATOM     10  H   UNL A   1      62.532 -26.528  -4.597  0.00  0.00    +0.000 HD
ENDBRANCH   4   9
TORSDOF 2
ENDMDL
MODEL 15
REMARK VINA RESULT:    -4.419     17.581     19.455
REMARK INTER + INTRA:          -4.826
REMARK INTER:                  -4.807
REMARK INTRA:                  -0.019
REMARK UNBOUND:                -0.019
REMARK  Name = cpd201.pdb
REMARK  2 active torsions:
REMARK  status: ('A' for Active; 'I' for Inactive)
REMARK    1  A    between atoms: C_2  and  C_3
REMARK    2  A    between atoms: C_6  and  O_7
REMARK                            x       y       z     vdW  Elec       q    Type
REMARK                         _______ _______ _______ _____ _____    ______ ____
ROOT
ATOM      1  C   UNL A   1      55.539 -34.919 -48.263  0.00  0.00    +0.014 A 
ATOM      2  C   UNL A   1      55.921 -34.189 -47.132  0.00  0.00    -0.048 A 
ATOM      3  C   UNL A   1      55.321 -34.453 -45.898  0.00  0.00    -0.020 A 
ATOM      4  C   UNL A   1      54.347 -35.443 -45.811  0.00  0.00    +0.117 A 
ATOM      5  C   UNL A   1      53.963 -36.173 -46.933  0.00  0.00    -0.020 A 
ATOM      6  C   UNL A   1      54.560 -35.913 -48.168  0.00  0.00    -0.048 A 
ENDROOT
BRANCH   1   8
ATOM      7  O   UNL A   1      57.144 -33.912 -49.682  0.00  0.00    -0.296 OA
ATOM      8  C   UNL A   1      56.169 -34.645 -49.569  0.00  0.00    +0.150 C 
ENDBRANCH   1   8
BRANCH   4   9
ATOM      9  O   UNL A   1      53.735 -35.734 -44.629  0.00  0.00    -0.507 OA
ATOM     10  H   UNL A   1      53.005 -36.322 -44.610  0.00  0.00    +0.000 HD
ENDBRANCH   4   9
TORSDOF 2
ENDMDL
MODEL 16
REMARK VINA RESULT:    -4.326     16.928     18.379
REMARK INTER + INTRA:          -4.724
REMARK INTER:                  -4.709
REMARK INTRA:                  -0.016
REMARK UNBOUND:                -0.019
REMARK  Name = cpd201.pdb
REMARK  2 active torsions:
REMARK  status: ('A' for Active; 'I' for Inactive)
REMARK    1  A    between atoms: C_2  and  C_3
REMARK    2  A    between atoms: C_6  and  O_7
REMARK                            x       y       z     vdW  Elec       q    Type
REMARK                         _______ _______ _______ _____ _____    ______ ____
ROOT
ATOM      1  C   UNL A   1      54.191 -34.980 -45.890  0.00  0.00    +0.014 A 
ATOM      2  C   UNL A   1      54.266 -35.801 -47.022  0.00  0.00    -0.048 A 
ATOM      3  C   UNL A   1      55.242 -35.558 -47.992  0.00  0.00    -0.020 A 
ATOM      4  C   UNL A   1      56.129 -34.500 -47.819  0.00  0.00    +0.117 A 
ATOM      5  C   UNL A   1      56.058 -33.681 -46.695  0.00  0.00    -0.020 A 
ATOM      6  C   UNL A   1      55.085 -33.919 -45.723  0.00  0.00    -0.048 A 
ENDROOT
BRANCH   1   8
ATOM      7  O   UNL A   1      51.972 -35.312 -45.136  0.00  0.00    -0.296 OA
ATOM      8  C   UNL A   1      53.163 -35.231 -44.861  0.00  0.00    +0.150 C 
ENDBRANCH   1   8
BRANCH   4   9
ATOM      9  O   UNL A   1      57.096 -34.227 -48.740  0.00  0.00    -0.507 OA
ATOM     10  H   UNL A   1      57.870 -33.765 -48.484  0.00  0.00    +0.000 HD
ENDBRANCH   4   9
TORSDOF 2
ENDMDL
MODEL 17
REMARK VINA RESULT:    -4.273      9.192     10.623
REMARK INTER + INTRA:          -4.667
REMARK INTER:                  -4.651
REMARK INTRA:                  -0.016
REMARK UNBOUND:                -0.019
REMARK  Name = cpd201.pdb
REMARK  2 active torsions:
REMARK  status: ('A' for Active; 'I' for Inactive)
REMARK    1  A    between atoms: C_2  and  C_3
REMARK    2  A    between atoms: C_6  and  O_7
REMARK                            x       y       z     vdW  Elec       q    Type
REMARK                         _______ _______ _______ _____ _____    ______ ____
ROOT
ATOM      1  C   UNL A   1      38.131 -35.912 -30.949  0.00  0.00    +0.014 A 
ATOM      2  C   UNL A   1      38.893 -36.951 -30.403  0.00  0.00    -0.048 A 
ATOM      3  C   UNL A   1      40.271 -36.995 -30.629  0.00  0.00    -0.020 A 
ATOM      4  C   UNL A   1      40.869 -36.002 -31.399  0.00  0.00    +0.117 A 
ATOM      5  C   UNL A   1      40.115 -34.967 -31.945  0.00  0.00    -0.020 A 
ATOM      6  C   UNL A   1      38.738 -34.917 -31.722  0.00  0.00    -0.048 A 
ENDROOT
BRANCH   1   8
ATOM      7  O   UNL A   1      35.870 -35.758 -31.632  0.00  0.00    -0.296 OA
ATOM      8  C   UNL A   1      36.675 -35.859 -30.714  0.00  0.00    +0.150 C 
ENDBRANCH   1   8
BRANCH   4   9
ATOM      9  O   UNL A   1      42.209 -36.006 -31.645  0.00  0.00    -0.507 OA
ATOM     10  H   UNL A   1      42.783 -35.477 -31.126  0.00  0.00    +0.000 HD
ENDBRANCH   4   9
TORSDOF 2
ENDMDL
MODEL 18
REMARK VINA RESULT:    -4.270     29.552     30.977
REMARK INTER + INTRA:          -4.664
REMARK INTER:                  -4.650
REMARK INTRA:                  -0.014
REMARK UNBOUND:                -0.019
REMARK  Name = cpd201.pdb
REMARK  2 active torsions:
REMARK  status: ('A' for Active; 'I' for Inactive)
REMARK    1  A    between atoms: C_2  and  C_3
REMARK    2  A    between atoms: C_6  and  O_7
REMARK                            x       y       z     vdW  Elec       q    Type
REMARK                         _______ _______ _______ _____ _____    ______ ____
ROOT
ATOM      1  C   UNL A   1      63.727 -24.636  -6.805  0.00  0.00    +0.014 A 
ATOM      2  C   UNL A   1      62.445 -25.010  -7.222  0.00  0.00    -0.048 A 
ATOM      3  C   UNL A   1      62.083 -26.359  -7.229  0.00  0.00    -0.020 A 
ATOM      4  C   UNL A   1      63.007 -27.317  -6.820  0.00  0.00    +0.117 A 
ATOM      5  C   UNL A   1      64.283 -26.949  -6.405  0.00  0.00    -0.020 A 
ATOM      6  C   UNL A   1      64.651 -25.603  -6.395  0.00  0.00    -0.048 A 
ENDROOT
BRANCH   1   8
ATOM      7  O   UNL A   1      63.913 -22.488  -5.829  0.00  0.00    -0.296 OA
ATOM      8  C   UNL A   1      64.117 -23.212  -6.795  0.00  0.00    +0.150 C 
ENDBRANCH   1   8
BRANCH   4   9
ATOM      9  O   UNL A   1      62.696 -28.643  -6.811  0.00  0.00    -0.507 OA
ATOM     10  H   UNL A   1      62.453 -29.073  -7.608  0.00  0.00    +0.000 HD
ENDBRANCH   4   9
TORSDOF 2
ENDMDL
MODEL 19
REMARK VINA RESULT:    -4.266     25.323     25.924
REMARK INTER + INTRA:          -4.659
REMARK INTER:                  -4.645
REMARK INTRA:                  -0.014
REMARK UNBOUND:                -0.019
REMARK  Name = cpd201.pdb
REMARK  2 active torsions:
REMARK  status: ('A' for Active; 'I' for Inactive)
REMARK    1  A    between atoms: C_2  and  C_3
REMARK    2  A    between atoms: C_6  and  O_7
REMARK                            x       y       z     vdW  Elec       q    Type
REMARK                         _______ _______ _______ _____ _____    ______ ____
ROOT
ATOM      1  C   UNL A   1      56.025 -21.296 -46.834  0.00  0.00    +0.014 A 
ATOM      2  C   UNL A   1      57.379 -21.548 -46.586  0.00  0.00    -0.048 A 
ATOM      3  C   UNL A   1      57.966 -22.721 -47.068  0.00  0.00    -0.020 A 
ATOM      4  C   UNL A   1      57.193 -23.626 -47.790  0.00  0.00    +0.117 A 
ATOM      5  C   UNL A   1      55.846 -23.378 -48.039  0.00  0.00    -0.020 A 
ATOM      6  C   UNL A   1      55.254 -22.208 -47.561  0.00  0.00    -0.048 A 
ENDROOT
BRANCH   1   8
ATOM      7  O   UNL A   1      55.364 -19.028 -46.990  0.00  0.00    -0.296 OA
ATOM      8  C   UNL A   1      55.398 -20.059 -46.329  0.00  0.00    +0.150 C 
ENDBRANCH   1   8
BRANCH   4   9
ATOM      9  O   UNL A   1      57.725 -24.781 -48.278  0.00  0.00    -0.507 OA
ATOM     10  H   UNL A   1      58.387 -24.750 -48.941  0.00  0.00    +0.000 HD
ENDBRANCH   4   9
TORSDOF 2
ENDMDL
MODEL 20
REMARK VINA RESULT:    -4.082     21.138     21.729
REMARK INTER + INTRA:          -4.460
REMARK INTER:                  -4.445
REMARK INTRA:                  -0.015
REMARK UNBOUND:                -0.019
REMARK  Name = cpd201.pdb
REMARK  2 active torsions:
REMARK  status: ('A' for Active; 'I' for Inactive)
REMARK    1  A    between atoms: C_2  and  C_3
REMARK    2  A    between atoms: C_6  and  O_7
REMARK                            x       y       z     vdW  Elec       q    Type
REMARK                         _______ _______ _______ _____ _____    ______ ____
ROOT
ATOM      1  C   UNL A   1      45.287 -20.972 -41.629  0.00  0.00    +0.014 A 
ATOM      2  C   UNL A   1      45.290 -21.844 -42.724  0.00  0.00    -0.048 A 
ATOM      3  C   UNL A   1      46.162 -22.936 -42.739  0.00  0.00    -0.020 A 
ATOM      4  C   UNL A   1      47.017 -23.142 -41.660  0.00  0.00    +0.117 A 
ATOM      5  C   UNL A   1      47.017 -22.278 -40.569  0.00  0.00    -0.020 A 
ATOM      6  C   UNL A   1      46.148 -21.185 -40.549  0.00  0.00    -0.048 A 
ENDROOT
BRANCH   1   8
ATOM      7  O   UNL A   1      44.494 -18.869 -42.374  0.00  0.00    -0.296 OA
ATOM      8  C   UNL A   1      44.369 -19.816 -41.607  0.00  0.00    +0.150 C 
ENDBRANCH   1   8
BRANCH   4   9
ATOM      9  O   UNL A   1      47.883 -24.194 -41.633  0.00  0.00    -0.507 OA
ATOM     10  H   UNL A   1      47.875 -24.826 -42.325  0.00  0.00    +0.000 HD
ENDBRANCH   4   9
TORSDOF 2
ENDMDL
