REMARK  Name = cpd201.pdb
REMARK  2 active torsions:
REMARK  status: ('A' for Active; 'I' for Inactive)
REMARK    1  A    between atoms: C_2  and  C_3
REMARK    2  A    between atoms: C_6  and  O_7
REMARK                            x       y       z     vdW  Elec       q    Type
REMARK                         _______ _______ _______ _____ _____    ______ ____
ROOT
ATOM      1  C   UNL A   1      -0.855  -0.801   0.000  0.00  0.00    +0.014 A 
ATOM      2  C   UNL A   1      -2.073  -0.112   0.000  0.00  0.00    -0.048 A 
ATOM      3  C   UNL A   1      -2.081   1.285   0.000  0.00  0.00    -0.020 A 
ATOM      4  C   UNL A   1      -0.872   1.975   0.000  0.00  0.00    +0.117 A 
ATOM      5  C   UNL A   1       0.342   1.294   0.000  0.00  0.00    -0.020 A 
ATOM      6  C   UNL A   1       0.356  -0.102   0.000  0.00  0.00    -0.048 A 
ENDROOT
BRANCH   1   8
ATOM      7  O   UNL A   1      -1.869  -2.940   0.000  0.00  0.00    -0.296 OA
ATOM      8  C   UNL A   1      -0.839  -2.277   0.000  0.00  0.00    +0.150 C 
ENDBRANCH   1   8
BRANCH   4   9
ATOM      9  O   UNL A   1      -0.833   3.337   0.000  0.00  0.00    -0.507 OA
ATOM     10  H   UNL A   1      -1.631   3.829   0.000  0.00  0.00    +0.000 HD
ENDBRANCH   4   9
TORSDOF 2
