@<TRIPOS>MOLECULE
*****
 9 9 0 0 0
SMALL
GASTEIGER

@<TRIPOS>ATOM
      1 O          -1.7321   -2.0000    0.0000 O.2     1  UNL1       -0.2831
      2 C          -0.8660   -1.5000    0.0000 C.2     1  UNL1        0.2342
      3 C          -0.8660   -0.5000    0.0000 C.ar    1  UNL1        0.0424
      4 C          -1.7321   -0.0000    0.0000 C.ar    1  UNL1        0.0066
      5 C          -1.7321    1.0000    0.0000 C.ar    1  UNL1        0.0421
      6 C          -0.8660    1.5000    0.0000 C.ar    1  UNL1        0.1957
      7 O          -0.8660    2.5000    0.0000 O.3     1  UNL1       -0.2866
      8 C          -0.0000    1.0000    0.0000 C.ar    1  UNL1        0.0421
      9 C           0.0000    0.0000    0.0000 C.ar    1  UNL1        0.0066
@<TRIPOS>BOND
     1     1     2    2
     2     2     3    1
     3     3     4   ar
     4     4     5   ar
     5     5     6   ar
     6     6     7    1
     7     6     8   ar
     8     8     9   ar
     9     3     9   ar
