REMARK  Name = cpd178.pdb
REMARK  13 active torsions:
REMARK  status: ('A' for Active; 'I' for Inactive)
REMARK    1  A    between atoms: C_1  and  C_2
REMARK    2  A    between atoms: C_6  and  N_7
REMARK    3  A    between atoms: N_7  and  C_8
REMARK    4  A    between atoms: C_13  and  C_14
REMARK    5  A    between atoms: N_16  and  C_17
REMARK    6  A    between atoms: C_17  and  C_18
REMARK    7  A    between atoms: C_18  and  C_19
REMARK    8  A    between atoms: C_19  and  C_20
REMARK    9  A    between atoms: C_20  and  C_21
REMARK   10  A    between atoms: C_21  and  C_22
REMARK   11  A    between atoms: C_22  and  N_23
REMARK   12  A    between atoms: N_23  and  C_24
REMARK   13  A    between atoms: C_39  and  C_40
REMARK                            x       y       z     vdW  Elec       q    Type
REMARK                         _______ _______ _______ _____ _____    ______ ____
ROOT
ATOM      1  C   UNL A   1       5.626   3.466   0.120  0.00  0.00    -0.037 C 
ENDROOT
BRANCH   1   2
ATOM      2  C   UNL A   1       4.401   2.588  -0.116  0.00  0.00    +0.012 C 
BRANCH   2   5
ATOM      3  C   UNL A   1       1.964   2.799  -0.313  0.00  0.00    +0.246 C 
ATOM      4  O   UNL A   1       1.869   1.762  -0.962  0.00  0.00    -0.270 OA
ATOM      5  N   UNL A   1       3.172   3.322   0.111  0.00  0.00    -0.311 N 
ATOM      6  H   UNL A   1       3.197   4.194   0.568  0.00  0.00    +0.000 HD
BRANCH   3  12
ATOM      7  C   UNL A   1      -0.467   2.835   0.341  0.00  0.00    +0.044 A 
ATOM      8  C   UNL A   1      -1.574   3.566   0.806  0.00  0.00    -0.040 A 
ATOM      9  C   UNL A   1      -1.519   4.955   0.949  0.00  0.00    -0.060 A 
ATOM     10  C   UNL A   1      -0.347   5.641   0.653  0.00  0.00    -0.061 A 
ATOM     11  C   UNL A   1       0.782   4.937   0.237  0.00  0.00    -0.048 A 
ATOM     12  C   UNL A   1       0.738   3.537   0.109  0.00  0.00    +0.058 A 
BRANCH   7  13
ATOM     13  N   UNL A   1      -0.524   1.415   0.266  0.00  0.00    -0.314 N 
ATOM     14  H   UNL A   1       0.317   0.936   0.448  0.00  0.00    +0.000 HD
BRANCH  13  20
ATOM     15  C   UNL A   1      -2.926  -2.956   0.626  0.00  0.00    -0.039 C 
ATOM     16  C   UNL A   1      -2.789  -1.557   0.090  0.00  0.00    -0.046 A 
ATOM     17  C   UNL A   1      -3.736  -1.095  -0.837  0.00  0.00    -0.058 A 
ATOM     18  C   UNL A   1      -3.634   0.180  -1.383  0.00  0.00    -0.060 A 
ATOM     19  C   UNL A   1      -2.588   1.016  -1.001  0.00  0.00    -0.040 A 
ATOM     20  C   UNL A   1      -1.652   0.606  -0.041  0.00  0.00    +0.035 A 
ATOM     21  C   UNL A   1      -1.744  -0.697   0.504  0.00  0.00    -0.026 A 
ATOM     22  C   UNL A   1      -0.696  -1.175   1.481  0.00  0.00    -0.038 C 
ENDBRANCH  13  20
ENDBRANCH   7  13
ENDBRANCH   3  12
ENDBRANCH   2   5
ENDBRANCH   1   2
BRANCH   1  23
ATOM     23  C   UNL A   1       6.950   2.710  -0.027  0.00  0.00    -0.052 C 
BRANCH  23  24
ATOM     24  C   UNL A   1       7.258   2.314  -1.473  0.00  0.00    -0.052 C 
BRANCH  24  25
ATOM     25  C   UNL A   1       8.526   1.467  -1.637  0.00  0.00    -0.037 C 
BRANCH  25  26
ATOM     26  C   UNL A   1       9.842   2.234  -1.479  0.00  0.00    +0.009 C 
BRANCH  26  27
ATOM     27  N   UNL A   1      10.141   2.462  -0.059  0.00  0.00    -0.343 N 
ATOM     28  H   UNL A   1       9.552   2.189   0.681  0.00  0.00    +0.000 HD
BRANCH  27  29
ATOM     29  C   UNL A   1      11.392   3.128   0.115  0.00  0.00    +0.041 A 
ATOM     30  C   UNL A   1      11.407   4.537   0.167  0.00  0.00    -0.005 A 
ATOM     31  C   UNL A   1      12.644   5.166   0.311  0.00  0.00    +0.047 A 
ATOM     32  N   UNL A   1      13.817   4.493   0.349  0.00  0.00    -0.251 NA
ATOM     33  C   UNL A   1      13.806   3.157   0.275  0.00  0.00    +0.074 A 
ATOM     34  C   UNL A   1      15.029   2.504   0.319  0.00  0.00    -0.017 A 
ATOM     35  C   UNL A   1      15.112   1.117   0.246  0.00  0.00    +0.043 A 
ATOM     36 CL   UNL A   1      16.648   0.344   0.301  0.00  0.00    -0.083 Cl
ATOM     37  C   UNL A   1      13.961   0.353   0.127  0.00  0.00    -0.043 A 
ATOM     38  C   UNL A   1      12.723   0.992   0.082  0.00  0.00    -0.049 A 
ATOM     39  C   UNL A   1      12.619   2.405   0.154  0.00  0.00    +0.022 A 
ATOM     40  C   UNL A   1      12.765   6.667   0.382  0.00  0.00    -0.010 C 
ATOM     41  C   UNL A   1      11.474   7.354   0.808  0.00  0.00    -0.047 C 
ATOM     42  C   UNL A   1      10.315   6.834  -0.028  0.00  0.00    -0.049 C 
ATOM     43  C   UNL A   1      10.123   5.334   0.192  0.00  0.00    -0.024 C 
ENDBRANCH  27  29
ENDBRANCH  26  27
ENDBRANCH  25  26
ENDBRANCH  24  25
ENDBRANCH  23  24
ENDBRANCH   1  23
TORSDOF 11
