MODEL 1
REMARK VINA RESULT:    -7.552      0.000      0.000
REMARK INTER + INTRA:         -16.596
REMARK INTER:                 -12.408
REMARK INTRA:                  -4.187
REMARK UNBOUND:                -4.187
REMARK  Name = cpd178.pdb
REMARK  13 active torsions:
REMARK  status: ('A' for Active; 'I' for Inactive)
REMARK    1  A    between atoms: C_1  and  C_2
REMARK    2  A    between atoms: C_6  and  N_7
REMARK    3  A    between atoms: N_7  and  C_8
REMARK    4  A    between atoms: C_13  and  C_14
REMARK    5  A    between atoms: N_16  and  C_17
REMARK    6  A    between atoms: C_17  and  C_18
REMARK    7  A    between atoms: C_18  and  C_19
REMARK    8  A    between atoms: C_19  and  C_20
REMARK    9  A    between atoms: C_20  and  C_21
REMARK   10  A    between atoms: C_21  and  C_22
REMARK   11  A    between atoms: C_22  and  N_23
REMARK   12  A    between atoms: N_23  and  C_24
REMARK   13  A    between atoms: C_39  and  C_40
REMARK                            x       y       z     vdW  Elec       q    Type
REMARK                         _______ _______ _______ _____ _____    ______ ____
ROOT
ATOM      1  C   UNL A   1      35.226 -37.000 -27.396  0.00  0.00    -0.037 C 
ENDROOT
BRANCH   1   2
ATOM      2  C   UNL A   1      36.264 -38.025 -27.842  0.00  0.00    +0.012 C 
BRANCH   2   5
ATOM      3  C   UNL A   1      37.436 -37.639 -29.963  0.00  0.00    +0.246 C 
ATOM      4  O   UNL A   1      36.719 -38.428 -30.569  0.00  0.00    -0.270 OA
ATOM      5  N   UNL A   1      37.328 -37.404 -28.604  0.00  0.00    -0.311 N 
ATOM      6  H   UNL A   1      37.975 -36.813 -28.154  0.00  0.00    +0.000 HD
BRANCH   3  12
ATOM      7  C   UNL A   1      38.061 -36.019 -31.786  0.00  0.00    +0.044 A 
ATOM      8  C   UNL A   1      39.044 -35.222 -32.398  0.00  0.00    -0.040 A 
ATOM      9  C   UNL A   1      40.384 -35.293 -32.007  0.00  0.00    -0.060 A 
ATOM     10  C   UNL A   1      40.766 -36.145 -30.977  0.00  0.00    -0.061 A 
ATOM     11  C   UNL A   1      39.805 -36.911 -30.319  0.00  0.00    -0.048 A 
ATOM     12  C   UNL A   1      38.453 -36.830 -30.696  0.00  0.00    +0.058 A 
BRANCH   7  13
ATOM     13  N   UNL A   1      36.694 -35.883 -32.155  0.00  0.00    -0.314 N 
ATOM     14  H   UNL A   1      36.383 -36.459 -32.891  0.00  0.00    +0.000 HD
BRANCH  13  20
ATOM     15  C   UNL A   1      31.939 -34.382 -31.776  0.00  0.00    -0.039 C 
ATOM     16  C   UNL A   1      33.403 -34.247 -31.457  0.00  0.00    -0.046 A 
ATOM     17  C   UNL A   1      33.826 -33.155 -30.683  0.00  0.00    -0.058 A 
ATOM     18  C   UNL A   1      35.172 -32.971 -30.387  0.00  0.00    -0.060 A 
ATOM     19  C   UNL A   1      36.115 -33.884 -30.853  0.00  0.00    -0.040 A 
ATOM     20  C   UNL A   1      35.723 -35.013 -31.587  0.00  0.00    +0.035 A 
ATOM     21  C   UNL A   1      34.356 -35.193 -31.903  0.00  0.00    -0.026 A 
ATOM     22  C   UNL A   1      33.934 -36.364 -32.759  0.00  0.00    -0.038 C 
ENDBRANCH  13  20
ENDBRANCH   7  13
ENDBRANCH   3  12
ENDBRANCH   2   5
ENDBRANCH   1   2
BRANCH   1  23
ATOM     23  C   UNL A   1      34.343 -36.495 -28.542  0.00  0.00    -0.052 C 
BRANCH  23  24
ATOM     24  C   UNL A   1      33.160 -35.651 -28.061  0.00  0.00    -0.052 C 
BRANCH  24  25
ATOM     25  C   UNL A   1      31.791 -36.167 -28.522  0.00  0.00    -0.037 C 
BRANCH  25  26
ATOM     26  C   UNL A   1      31.824 -37.487 -29.296  0.00  0.00    +0.009 C 
BRANCH  26  27
ATOM     27  N   UNL A   1      31.240 -38.571 -28.495  0.00  0.00    -0.343 N 
ATOM     28  H   UNL A   1      30.289 -38.826 -28.517  0.00  0.00    +0.000 HD
BRANCH  27  29
ATOM     29  C   UNL A   1      32.222 -39.211 -27.679  0.00  0.00    +0.041 A 
ATOM     30  C   UNL A   1      33.072 -40.169 -28.269  0.00  0.00    -0.005 A 
ATOM     31  C   UNL A   1      34.006 -40.800 -27.446  0.00  0.00    +0.047 A 
ATOM     32  N   UNL A   1      34.093 -40.572 -26.115  0.00  0.00    -0.251 NA
ATOM     33  C   UNL A   1      33.271 -39.681 -25.550  0.00  0.00    +0.074 A 
ATOM     34  C   UNL A   1      33.393 -39.475 -24.184  0.00  0.00    -0.017 A 
ATOM     35  C   UNL A   1      32.578 -38.569 -23.512  0.00  0.00    +0.043 A 
ATOM     36 CL   UNL A   1      32.758 -38.344 -21.816  0.00  0.00    -0.083 Cl
ATOM     37  C   UNL A   1      31.617 -37.847 -24.204  0.00  0.00    -0.043 A 
ATOM     38  C   UNL A   1      31.481 -38.040 -25.578  0.00  0.00    -0.049 A 
ATOM     39  C   UNL A   1      32.302 -38.960 -26.279  0.00  0.00    +0.022 A 
ATOM     40  C   UNL A   1      34.962 -41.834 -27.983  0.00  0.00    -0.010 C 
ATOM     41  C   UNL A   1      35.175 -41.732 -29.487  0.00  0.00    -0.047 C 
ATOM     42  C   UNL A   1      33.830 -41.662 -30.193  0.00  0.00    -0.049 C 
ATOM     43  C   UNL A   1      33.059 -40.416 -29.760  0.00  0.00    -0.024 C 
ENDBRANCH  27  29
ENDBRANCH  26  27
ENDBRANCH  25  26
ENDBRANCH  24  25
ENDBRANCH  23  24
ENDBRANCH   1  23
TORSDOF 11
ENDMDL
MODEL 2
REMARK VINA RESULT:    -7.199     18.766     22.438
REMARK INTER + INTRA:         -16.016
REMARK INTER:                 -11.839
REMARK INTRA:                  -4.177
REMARK UNBOUND:                -4.187
REMARK  Name = cpd178.pdb
REMARK  13 active torsions:
REMARK  status: ('A' for Active; 'I' for Inactive)
REMARK    1  A    between atoms: C_1  and  C_2
REMARK    2  A    between atoms: C_6  and  N_7
REMARK    3  A    between atoms: N_7  and  C_8
REMARK    4  A    between atoms: C_13  and  C_14
REMARK    5  A    between atoms: N_16  and  C_17
REMARK    6  A    between atoms: C_17  and  C_18
REMARK    7  A    between atoms: C_18  and  C_19
REMARK    8  A    between atoms: C_19  and  C_20
REMARK    9  A    between atoms: C_20  and  C_21
REMARK   10  A    between atoms: C_21  and  C_22
REMARK   11  A    between atoms: C_22  and  N_23
REMARK   12  A    between atoms: N_23  and  C_24
REMARK   13  A    between atoms: C_39  and  C_40
REMARK                            x       y       z     vdW  Elec       q    Type
REMARK                         _______ _______ _______ _____ _____    ______ ____
ROOT
ATOM      1  C   UNL A   1      42.471 -17.307 -38.093  0.00  0.00    -0.037 C 
ENDROOT
BRANCH   1   2
ATOM      2  C   UNL A   1      42.874 -17.197 -39.560  0.00  0.00    +0.012 C 
BRANCH   2   5
ATOM      3  C   UNL A   1      44.318 -18.396 -41.141  0.00  0.00    +0.246 C 
ATOM      4  O   UNL A   1      44.505 -17.392 -41.821  0.00  0.00    -0.270 OA
ATOM      5  N   UNL A   1      43.491 -18.421 -40.033  0.00  0.00    -0.311 N 
ATOM      6  H   UNL A   1      43.321 -19.270 -39.564  0.00  0.00    +0.000 HD
BRANCH   3  12
ATOM      7  C   UNL A   1      46.413 -19.793 -41.138  0.00  0.00    +0.044 A 
ATOM      8  C   UNL A   1      47.030 -21.031 -41.389  0.00  0.00    -0.040 A 
ATOM      9  C   UNL A   1      46.341 -22.073 -42.016  0.00  0.00    -0.060 A 
ATOM     10  C   UNL A   1      45.011 -21.907 -42.384  0.00  0.00    -0.061 A 
ATOM     11  C   UNL A   1      44.358 -20.708 -42.103  0.00  0.00    -0.048 A 
ATOM     12  C   UNL A   1      45.041 -19.663 -41.455  0.00  0.00    +0.058 A 
BRANCH   7  13
ATOM     13  N   UNL A   1      47.112 -18.770 -40.439  0.00  0.00    -0.314 N 
ATOM     14  H   UNL A   1      47.718 -18.211 -40.978  0.00  0.00    +0.000 HD
BRANCH  13  20
ATOM     15  C   UNL A   1      46.995 -15.362 -36.782  0.00  0.00    -0.039 C 
ATOM     16  C   UNL A   1      47.046 -16.784 -37.269  0.00  0.00    -0.046 A 
ATOM     17  C   UNL A   1      47.157 -17.816 -36.325  0.00  0.00    -0.058 A 
ATOM     18  C   UNL A   1      47.238 -19.145 -36.729  0.00  0.00    -0.060 A 
ATOM     19  C   UNL A   1      47.200 -19.460 -38.085  0.00  0.00    -0.040 A 
ATOM     20  C   UNL A   1      47.041 -18.459 -39.054  0.00  0.00    +0.035 A 
ATOM     21  C   UNL A   1      46.974 -17.105 -38.646  0.00  0.00    -0.026 A 
ATOM     22  C   UNL A   1      46.880 -16.014 -39.686  0.00  0.00    -0.038 C 
ENDBRANCH  13  20
ENDBRANCH   7  13
ENDBRANCH   3  12
ENDBRANCH   2   5
ENDBRANCH   1   2
BRANCH   1  23
ATOM     23  C   UNL A   1      43.564 -17.917 -37.209  0.00  0.00    -0.052 C 
BRANCH  23  24
ATOM     24  C   UNL A   1      43.493 -17.445 -35.755  0.00  0.00    -0.052 C 
BRANCH  24  25
ATOM     25  C   UNL A   1      43.688 -18.561 -34.721  0.00  0.00    -0.037 C 
BRANCH  25  26
ATOM     26  C   UNL A   1      44.054 -19.928 -35.306  0.00  0.00    +0.009 C 
BRANCH  26  27
ATOM     27  N   UNL A   1      43.165 -20.972 -34.778  0.00  0.00    -0.343 N 
ATOM     28  H   UNL A   1      43.407 -21.587 -34.049  0.00  0.00    +0.000 HD
BRANCH  27  29
ATOM     29  C   UNL A   1      41.907 -20.982 -35.453  0.00  0.00    +0.041 A 
ATOM     30  C   UNL A   1      40.730 -20.823 -34.693  0.00  0.00    -0.005 A 
ATOM     31  C   UNL A   1      39.511 -20.863 -35.371  0.00  0.00    +0.047 A 
ATOM     32  N   UNL A   1      39.410 -21.097 -36.699  0.00  0.00    -0.251 NA
ATOM     33  C   UNL A   1      40.525 -21.273 -37.418  0.00  0.00    +0.074 A 
ATOM     34  C   UNL A   1      40.380 -21.509 -38.777  0.00  0.00    -0.017 A 
ATOM     35  C   UNL A   1      41.484 -21.705 -39.600  0.00  0.00    +0.043 A 
ATOM     36 CL   UNL A   1      41.262 -21.998 -41.281  0.00  0.00    -0.083 Cl
ATOM     37  C   UNL A   1      42.766 -21.667 -39.071  0.00  0.00    -0.043 A 
ATOM     38  C   UNL A   1      42.931 -21.430 -37.708  0.00  0.00    -0.049 A 
ATOM     39  C   UNL A   1      41.817 -21.229 -36.853  0.00  0.00    +0.022 A 
ATOM     40  C   UNL A   1      38.198 -20.698 -34.649  0.00  0.00    -0.010 C 
ATOM     41  C   UNL A   1      38.335 -19.986 -33.309  0.00  0.00    -0.047 C 
ATOM     42  C   UNL A   1      39.447 -20.630 -32.496  0.00  0.00    -0.049 C 
ATOM     43  C   UNL A   1      40.788 -20.497 -33.218  0.00  0.00    -0.024 C 
ENDBRANCH  27  29
ENDBRANCH  26  27
ENDBRANCH  25  26
ENDBRANCH  24  25
ENDBRANCH  23  24
ENDBRANCH   1  23
TORSDOF 11
ENDMDL
MODEL 3
REMARK VINA RESULT:    -7.169      2.690      6.620
REMARK INTER + INTRA:         -15.966
REMARK INTER:                 -12.003
REMARK INTRA:                  -3.963
REMARK UNBOUND:                -4.187
REMARK  Name = cpd178.pdb
REMARK  13 active torsions:
REMARK  status: ('A' for Active; 'I' for Inactive)
REMARK    1  A    between atoms: C_1  and  C_2
REMARK    2  A    between atoms: C_6  and  N_7
REMARK    3  A    between atoms: N_7  and  C_8
REMARK    4  A    between atoms: C_13  and  C_14
REMARK    5  A    between atoms: N_16  and  C_17
REMARK    6  A    between atoms: C_17  and  C_18
REMARK    7  A    between atoms: C_18  and  C_19
REMARK    8  A    between atoms: C_19  and  C_20
REMARK    9  A    between atoms: C_20  and  C_21
REMARK   10  A    between atoms: C_21  and  C_22
REMARK   11  A    between atoms: C_22  and  N_23
REMARK   12  A    between atoms: N_23  and  C_24
REMARK   13  A    between atoms: C_39  and  C_40
REMARK                            x       y       z     vdW  Elec       q    Type
REMARK                         _______ _______ _______ _____ _____    ______ ____
ROOT
ATOM      1  C   UNL A   1      33.428 -41.326 -27.589  0.00  0.00    -0.037 C 
ENDROOT
BRANCH   1   2
ATOM      2  C   UNL A   1      32.225 -40.398 -27.716  0.00  0.00    +0.012 C 
BRANCH   2   5
ATOM      3  C   UNL A   1      32.321 -38.323 -29.023  0.00  0.00    +0.246 C 
ATOM      4  O   UNL A   1      32.323 -37.621 -28.017  0.00  0.00    -0.270 OA
ATOM      5  N   UNL A   1      32.225 -39.702 -28.988  0.00  0.00    -0.311 N 
ATOM      6  H   UNL A   1      32.157 -40.212 -29.828  0.00  0.00    +0.000 HD
BRANCH   3  12
ATOM      7  C   UNL A   1      31.641 -36.640 -30.768  0.00  0.00    +0.044 A 
ATOM      8  C   UNL A   1      31.881 -36.045 -32.019  0.00  0.00    -0.040 A 
ATOM      9  C   UNL A   1      32.858 -36.543 -32.885  0.00  0.00    -0.060 A 
ATOM     10  C   UNL A   1      33.634 -37.633 -32.509  0.00  0.00    -0.061 A 
ATOM     11  C   UNL A   1      33.452 -38.213 -31.254  0.00  0.00    -0.048 A 
ATOM     12  C   UNL A   1      32.483 -37.704 -30.371  0.00  0.00    +0.058 A 
BRANCH   7  13
ATOM     13  N   UNL A   1      30.687 -36.077 -29.876  0.00  0.00    -0.314 N 
ATOM     14  H   UNL A   1      29.989 -36.687 -29.544  0.00  0.00    +0.000 HD
BRANCH  13  20
ATOM     15  C   UNL A   1      29.081 -31.376 -30.446  0.00  0.00    -0.039 C 
ATOM     16  C   UNL A   1      29.883 -32.426 -29.728  0.00  0.00    -0.046 A 
ATOM     17  C   UNL A   1      30.687 -32.037 -28.645  0.00  0.00    -0.058 A 
ATOM     18  C   UNL A   1      31.470 -32.967 -27.970  0.00  0.00    -0.060 A 
ATOM     19  C   UNL A   1      31.451 -34.303 -28.361  0.00  0.00    -0.040 A 
ATOM     20  C   UNL A   1      30.623 -34.736 -29.406  0.00  0.00    +0.035 A 
ATOM     21  C   UNL A   1      29.838 -33.789 -30.106  0.00  0.00    -0.026 A 
ATOM     22  C   UNL A   1      29.002 -34.234 -31.282  0.00  0.00    -0.038 C 
ENDBRANCH  13  20
ENDBRANCH   7  13
ENDBRANCH   3  12
ENDBRANCH   2   5
ENDBRANCH   1   2
BRANCH   1  23
ATOM     23  C   UNL A   1      34.111 -41.620 -28.928  0.00  0.00    -0.052 C 
BRANCH  23  24
ATOM     24  C   UNL A   1      35.607 -41.297 -28.924  0.00  0.00    -0.052 C 
BRANCH  24  25
ATOM     25  C   UNL A   1      35.936 -39.844 -28.561  0.00  0.00    -0.037 C 
BRANCH  25  26
ATOM     26  C   UNL A   1      37.411 -39.458 -28.705  0.00  0.00    +0.009 C 
BRANCH  26  27
ATOM     27  N   UNL A   1      37.641 -38.095 -28.210  0.00  0.00    -0.343 N 
ATOM     28  H   UNL A   1      37.653 -37.847 -27.257  0.00  0.00    +0.000 HD
BRANCH  27  29
ATOM     29  C   UNL A   1      37.845 -37.173 -29.281  0.00  0.00    +0.041 A 
ATOM     30  C   UNL A   1      39.099 -37.153 -29.926  0.00  0.00    -0.005 A 
ATOM     31  C   UNL A   1      39.284 -36.226 -30.952  0.00  0.00    +0.047 A 
ATOM     32  N   UNL A   1      38.343 -35.323 -31.313  0.00  0.00    -0.251 NA
ATOM     33  C   UNL A   1      37.161 -35.325 -30.685  0.00  0.00    +0.074 A 
ATOM     34  C   UNL A   1      36.223 -34.385 -31.084  0.00  0.00    -0.017 A 
ATOM     35  C   UNL A   1      34.969 -34.313 -30.485  0.00  0.00    +0.043 A 
ATOM     36 CL   UNL A   1      33.833 -33.131 -31.007  0.00  0.00    -0.083 Cl
ATOM     37  C   UNL A   1      34.631 -35.190 -29.465  0.00  0.00    -0.043 A 
ATOM     38  C   UNL A   1      35.561 -36.141 -29.051  0.00  0.00    -0.049 A 
ATOM     39  C   UNL A   1      36.844 -36.229 -29.650  0.00  0.00    +0.022 A 
ATOM     40  C   UNL A   1      40.585 -36.129 -31.707  0.00  0.00    -0.010 C 
ATOM     41  C   UNL A   1      41.419 -37.402 -31.631  0.00  0.00    -0.047 C 
ATOM     42  C   UNL A   1      41.538 -37.853 -30.184  0.00  0.00    -0.049 C 
ATOM     43  C   UNL A   1      40.162 -38.179 -29.606  0.00  0.00    -0.024 C 
ENDBRANCH  27  29
ENDBRANCH  26  27
ENDBRANCH  25  26
ENDBRANCH  24  25
ENDBRANCH  23  24
ENDBRANCH   1  23
TORSDOF 11
ENDMDL
MODEL 4
REMARK VINA RESULT:    -7.142     18.130     23.090
REMARK INTER + INTRA:         -15.922
REMARK INTER:                 -12.502
REMARK INTRA:                  -3.420
REMARK UNBOUND:                -4.187
REMARK  Name = cpd178.pdb
REMARK  13 active torsions:
REMARK  status: ('A' for Active; 'I' for Inactive)
REMARK    1  A    between atoms: C_1  and  C_2
REMARK    2  A    between atoms: C_6  and  N_7
REMARK    3  A    between atoms: N_7  and  C_8
REMARK    4  A    between atoms: C_13  and  C_14
REMARK    5  A    between atoms: N_16  and  C_17
REMARK    6  A    between atoms: C_17  and  C_18
REMARK    7  A    between atoms: C_18  and  C_19
REMARK    8  A    between atoms: C_19  and  C_20
REMARK    9  A    between atoms: C_20  and  C_21
REMARK   10  A    between atoms: C_21  and  C_22
REMARK   11  A    between atoms: C_22  and  N_23
REMARK   12  A    between atoms: N_23  and  C_24
REMARK   13  A    between atoms: C_39  and  C_40
REMARK                            x       y       z     vdW  Elec       q    Type
REMARK                         _______ _______ _______ _____ _____    ______ ____
ROOT
ATOM      1  C   UNL A   1      45.143 -16.535 -35.483  0.00  0.00    -0.037 C 
ENDROOT
BRANCH   1   2
ATOM      2  C   UNL A   1      43.713 -17.037 -35.305  0.00  0.00    +0.012 C 
BRANCH   2   5
ATOM      3  C   UNL A   1      43.349 -19.351 -36.038  0.00  0.00    +0.246 C 
ATOM      4  O   UNL A   1      43.711 -19.810 -34.960  0.00  0.00    -0.270 OA
ATOM      5  N   UNL A   1      43.359 -17.999 -36.330  0.00  0.00    -0.311 N 
ATOM      6  H   UNL A   1      43.125 -17.689 -37.235  0.00  0.00    +0.000 HD
BRANCH   3  12
ATOM      7  C   UNL A   1      42.016 -21.367 -36.744  0.00  0.00    +0.044 A 
ATOM      8  C   UNL A   1      41.476 -22.144 -37.783  0.00  0.00    -0.040 A 
ATOM      9  C   UNL A   1      41.785 -21.885 -39.121  0.00  0.00    -0.060 A 
ATOM     10  C   UNL A   1      42.623 -20.826 -39.451  0.00  0.00    -0.061 A 
ATOM     11  C   UNL A   1      43.134 -20.008 -38.445  0.00  0.00    -0.048 A 
ATOM     12  C   UNL A   1      42.812 -20.253 -37.098  0.00  0.00    +0.058 A 
BRANCH   7  13
ATOM     13  N   UNL A   1      41.636 -21.607 -35.394  0.00  0.00    -0.314 N 
ATOM     14  H   UNL A   1      42.355 -21.550 -34.723  0.00  0.00    +0.000 HD
BRANCH  13  20
ATOM     15  C   UNL A   1      37.492 -20.221 -32.963  0.00  0.00    -0.039 C 
ATOM     16  C   UNL A   1      38.344 -21.251 -33.654  0.00  0.00    -0.046 A 
ATOM     17  C   UNL A   1      37.896 -22.580 -33.692  0.00  0.00    -0.058 A 
ATOM     18  C   UNL A   1      38.662 -23.573 -34.293  0.00  0.00    -0.060 A 
ATOM     19  C   UNL A   1      39.885 -23.247 -34.875  0.00  0.00    -0.040 A 
ATOM     20  C   UNL A   1      40.341 -21.921 -34.899  0.00  0.00    +0.035 A 
ATOM     21  C   UNL A   1      39.570 -20.912 -34.274  0.00  0.00    -0.026 A 
ATOM     22  C   UNL A   1      40.090 -19.495 -34.228  0.00  0.00    -0.038 C 
ENDBRANCH  13  20
ENDBRANCH   7  13
ENDBRANCH   3  12
ENDBRANCH   2   5
ENDBRANCH   1   2
BRANCH   1  23
ATOM     23  C   UNL A   1      46.153 -17.255 -34.585  0.00  0.00    -0.052 C 
BRANCH  23  24
ATOM     24  C   UNL A   1      46.840 -18.434 -35.278  0.00  0.00    -0.052 C 
BRANCH  24  25
ATOM     25  C   UNL A   1      47.251 -18.157 -36.729  0.00  0.00    -0.037 C 
BRANCH  25  26
ATOM     26  C   UNL A   1      46.773 -19.197 -37.747  0.00  0.00    +0.009 C 
BRANCH  26  27
ATOM     27  N   UNL A   1      47.334 -18.916 -39.076  0.00  0.00    -0.343 N 
ATOM     28  H   UNL A   1      48.292 -18.776 -39.254  0.00  0.00    +0.000 HD
BRANCH  27  29
ATOM     29  C   UNL A   1      46.317 -18.872 -40.077  0.00  0.00    +0.041 A 
ATOM     30  C   UNL A   1      46.196 -19.959 -40.968  0.00  0.00    -0.005 A 
ATOM     31  C   UNL A   1      45.213 -19.881 -41.954  0.00  0.00    +0.047 A 
ATOM     32  N   UNL A   1      44.417 -18.800 -42.123  0.00  0.00    -0.251 NA
ATOM     33  C   UNL A   1      44.547 -17.758 -41.293  0.00  0.00    +0.074 A 
ATOM     34  C   UNL A   1      43.711 -16.670 -41.498  0.00  0.00    -0.017 A 
ATOM     35  C   UNL A   1      43.779 -15.542 -40.685  0.00  0.00    +0.043 A 
ATOM     36 CL   UNL A   1      42.727 -14.211 -40.973  0.00  0.00    -0.083 Cl
ATOM     37  C   UNL A   1      44.692 -15.485 -39.644  0.00  0.00    -0.043 A 
ATOM     38  C   UNL A   1      45.539 -16.569 -39.422  0.00  0.00    -0.049 A 
ATOM     39  C   UNL A   1      45.486 -17.727 -40.241  0.00  0.00    +0.022 A 
ATOM     40  C   UNL A   1      45.001 -20.992 -42.950  0.00  0.00    -0.010 C 
ATOM     41  C   UNL A   1      45.540 -22.335 -42.475  0.00  0.00    -0.047 C 
ATOM     42  C   UNL A   1      46.968 -22.170 -41.978  0.00  0.00    -0.049 C 
ATOM     43  C   UNL A   1      47.016 -21.215 -40.786  0.00  0.00    -0.024 C 
ENDBRANCH  27  29
ENDBRANCH  26  27
ENDBRANCH  25  26
ENDBRANCH  24  25
ENDBRANCH  23  24
ENDBRANCH   1  23
TORSDOF 11
ENDMDL
MODEL 5
REMARK VINA RESULT:    -7.056      2.759      6.377
REMARK INTER + INTRA:         -15.781
REMARK INTER:                 -11.641
REMARK INTRA:                  -4.140
REMARK UNBOUND:                -4.187
REMARK  Name = cpd178.pdb
REMARK  13 active torsions:
REMARK  status: ('A' for Active; 'I' for Inactive)
REMARK    1  A    between atoms: C_1  and  C_2
REMARK    2  A    between atoms: C_6  and  N_7
REMARK    3  A    between atoms: N_7  and  C_8
REMARK    4  A    between atoms: C_13  and  C_14
REMARK    5  A    between atoms: N_16  and  C_17
REMARK    6  A    between atoms: C_17  and  C_18
REMARK    7  A    between atoms: C_18  and  C_19
REMARK    8  A    between atoms: C_19  and  C_20
REMARK    9  A    between atoms: C_20  and  C_21
REMARK   10  A    between atoms: C_21  and  C_22
REMARK   11  A    between atoms: C_22  and  N_23
REMARK   12  A    between atoms: N_23  and  C_24
REMARK   13  A    between atoms: C_39  and  C_40
REMARK                            x       y       z     vdW  Elec       q    Type
REMARK                         _______ _______ _______ _____ _____    ______ ____
ROOT
ATOM      1  C   UNL A   1      30.249 -37.204 -31.493  0.00  0.00    -0.037 C 
ENDROOT
BRANCH   1   2
ATOM      2  C   UNL A   1      29.957 -37.462 -32.968  0.00  0.00    +0.012 C 
BRANCH   2   5
ATOM      3  C   UNL A   1      31.775 -38.643 -34.118  0.00  0.00    +0.246 C 
ATOM      4  O   UNL A   1      32.318 -37.596 -34.456  0.00  0.00    -0.270 OA
ATOM      5  N   UNL A   1      30.580 -38.689 -33.424  0.00  0.00    -0.311 N 
ATOM      6  H   UNL A   1      30.152 -39.557 -33.239  0.00  0.00    +0.000 HD
BRANCH   3  12
ATOM      7  C   UNL A   1      33.549 -40.365 -33.645  0.00  0.00    +0.044 A 
ATOM      8  C   UNL A   1      34.083 -41.640 -33.902  0.00  0.00    -0.040 A 
ATOM      9  C   UNL A   1      33.585 -42.442 -34.932  0.00  0.00    -0.060 A 
ATOM     10  C   UNL A   1      32.525 -41.996 -35.713  0.00  0.00    -0.061 A 
ATOM     11  C   UNL A   1      31.942 -40.758 -35.449  0.00  0.00    -0.048 A 
ATOM     12  C   UNL A   1      32.428 -39.954 -34.401  0.00  0.00    +0.058 A 
BRANCH   7  13
ATOM     13  N   UNL A   1      34.028 -39.594 -32.549  0.00  0.00    -0.314 N 
ATOM     14  H   UNL A   1      34.033 -38.617 -32.675  0.00  0.00    +0.000 HD
BRANCH  13  20
ATOM     15  C   UNL A   1      33.143 -40.768 -27.770  0.00  0.00    -0.039 C 
ATOM     16  C   UNL A   1      34.069 -40.579 -28.941  0.00  0.00    -0.046 A 
ATOM     17  C   UNL A   1      35.447 -40.751 -28.744  0.00  0.00    -0.058 A 
ATOM     18  C   UNL A   1      36.345 -40.558 -29.789  0.00  0.00    -0.060 A 
ATOM     19  C   UNL A   1      35.874 -40.199 -31.050  0.00  0.00    -0.040 A 
ATOM     20  C   UNL A   1      34.500 -40.066 -31.294  0.00  0.00    +0.035 A 
ATOM     21  C   UNL A   1      33.586 -40.247 -30.229  0.00  0.00    -0.026 A 
ATOM     22  C   UNL A   1      32.110 -40.030 -30.465  0.00  0.00    -0.038 C 
ENDBRANCH  13  20
ENDBRANCH   7  13
ENDBRANCH   3  12
ENDBRANCH   2   5
ENDBRANCH   1   2
BRANCH   1  23
ATOM     23  C   UNL A   1      31.650 -36.637 -31.244  0.00  0.00    -0.052 C 
BRANCH  23  24
ATOM     24  C   UNL A   1      31.836 -35.226 -31.807  0.00  0.00    -0.052 C 
BRANCH  24  25
ATOM     25  C   UNL A   1      33.285 -34.879 -32.169  0.00  0.00    -0.037 C 
BRANCH  25  26
ATOM     26  C   UNL A   1      34.342 -35.824 -31.589  0.00  0.00    +0.009 C 
BRANCH  26  27
ATOM     27  N   UNL A   1      35.285 -35.085 -30.739  0.00  0.00    -0.343 N 
ATOM     28  H   UNL A   1      35.479 -34.125 -30.832  0.00  0.00    +0.000 HD
BRANCH  27  29
ATOM     29  C   UNL A   1      35.886 -35.933 -29.759  0.00  0.00    +0.041 A 
ATOM     30  C   UNL A   1      37.190 -36.417 -29.991  0.00  0.00    -0.005 A 
ATOM     31  C   UNL A   1      37.745 -37.265 -29.032  0.00  0.00    +0.047 A 
ATOM     32  N   UNL A   1      37.075 -37.679 -27.932  0.00  0.00    -0.251 NA
ATOM     33  C   UNL A   1      35.828 -37.240 -27.724  0.00  0.00    +0.074 A 
ATOM     34  C   UNL A   1      35.175 -37.687 -26.585  0.00  0.00    -0.017 A 
ATOM     35  C   UNL A   1      33.876 -37.284 -26.290  0.00  0.00    +0.043 A 
ATOM     36 CL   UNL A   1      33.099 -37.862 -24.868  0.00  0.00    -0.083 Cl
ATOM     37  C   UNL A   1      33.203 -36.419 -27.139  0.00  0.00    -0.043 A 
ATOM     38  C   UNL A   1      33.843 -35.960 -28.289  0.00  0.00    -0.049 A 
ATOM     39  C   UNL A   1      35.167 -36.360 -28.606  0.00  0.00    +0.022 A 
ATOM     40  C   UNL A   1      39.135 -37.830 -29.185  0.00  0.00    -0.010 C 
ATOM     41  C   UNL A   1      40.014 -37.015 -30.125  0.00  0.00    -0.047 C 
ATOM     42  C   UNL A   1      39.271 -36.754 -31.426  0.00  0.00    -0.049 C 
ATOM     43  C   UNL A   1      38.006 -35.937 -31.169  0.00  0.00    -0.024 C 
ENDBRANCH  27  29
ENDBRANCH  26  27
ENDBRANCH  25  26
ENDBRANCH  24  25
ENDBRANCH  23  24
ENDBRANCH   1  23
TORSDOF 11
ENDMDL
MODEL 6
REMARK VINA RESULT:    -6.940     18.472     22.050
REMARK INTER + INTRA:         -15.590
REMARK INTER:                 -12.151
REMARK INTRA:                  -3.438
REMARK UNBOUND:                -4.187
REMARK  Name = cpd178.pdb
REMARK  13 active torsions:
REMARK  status: ('A' for Active; 'I' for Inactive)
REMARK    1  A    between atoms: C_1  and  C_2
REMARK    2  A    between atoms: C_6  and  N_7
REMARK    3  A    between atoms: N_7  and  C_8
REMARK    4  A    between atoms: C_13  and  C_14
REMARK    5  A    between atoms: N_16  and  C_17
REMARK    6  A    between atoms: C_17  and  C_18
REMARK    7  A    between atoms: C_18  and  C_19
REMARK    8  A    between atoms: C_19  and  C_20
REMARK    9  A    between atoms: C_20  and  C_21
REMARK   10  A    between atoms: C_21  and  C_22
REMARK   11  A    between atoms: C_22  and  N_23
REMARK   12  A    between atoms: N_23  and  C_24
REMARK   13  A    between atoms: C_39  and  C_40
REMARK                            x       y       z     vdW  Elec       q    Type
REMARK                         _______ _______ _______ _____ _____    ______ ____
ROOT
ATOM      1  C   UNL A   1      46.194 -17.456 -37.460  0.00  0.00    -0.037 C 
ENDROOT
BRANCH   1   2
ATOM      2  C   UNL A   1      47.323 -18.409 -37.840  0.00  0.00    +0.012 C 
BRANCH   2   5
ATOM      3  C   UNL A   1      46.332 -20.359 -38.954  0.00  0.00    +0.246 C 
ATOM      4  O   UNL A   1      46.050 -20.897 -37.888  0.00  0.00    -0.270 OA
ATOM      5  N   UNL A   1      47.005 -19.154 -39.042  0.00  0.00    -0.311 N 
ATOM      6  H   UNL A   1      47.268 -18.801 -39.923  0.00  0.00    +0.000 HD
BRANCH   3  12
ATOM      7  C   UNL A   1      44.616 -20.691 -40.766  0.00  0.00    +0.044 A 
ATOM      8  C   UNL A   1      44.284 -21.236 -42.019  0.00  0.00    -0.040 A 
ATOM      9  C   UNL A   1      45.153 -22.102 -42.688  0.00  0.00    -0.060 A 
ATOM     10  C   UNL A   1      46.385 -22.423 -42.130  0.00  0.00    -0.061 A 
ATOM     11  C   UNL A   1      46.762 -21.859 -40.912  0.00  0.00    -0.048 A 
ATOM     12  C   UNL A   1      45.899 -20.972 -40.243  0.00  0.00    +0.058 A 
BRANCH   7  13
ATOM     13  N   UNL A   1      43.745 -19.760 -40.134  0.00  0.00    -0.314 N 
ATOM     14  H   UNL A   1      43.737 -18.849 -40.508  0.00  0.00    +0.000 HD
BRANCH  13  20
ATOM     15  C   UNL A   1      41.236 -18.003 -36.182  0.00  0.00    -0.039 C 
ATOM     16  C   UNL A   1      41.712 -19.129 -37.058  0.00  0.00    -0.046 A 
ATOM     17  C   UNL A   1      41.402 -20.447 -36.688  0.00  0.00    -0.058 A 
ATOM     18  C   UNL A   1      41.846 -21.523 -37.450  0.00  0.00    -0.060 A 
ATOM     19  C   UNL A   1      42.598 -21.295 -38.599  0.00  0.00    -0.040 A 
ATOM     20  C   UNL A   1      42.886 -19.990 -39.025  0.00  0.00    +0.035 A 
ATOM     21  C   UNL A   1      42.449 -18.894 -38.243  0.00  0.00    -0.026 A 
ATOM     22  C   UNL A   1      42.819 -17.488 -38.652  0.00  0.00    -0.038 C 
ENDBRANCH  13  20
ENDBRANCH   7  13
ENDBRANCH   3  12
ENDBRANCH   2   5
ENDBRANCH   1   2
BRANCH   1  23
ATOM     23  C   UNL A   1      46.203 -17.066 -35.979  0.00  0.00    -0.052 C 
BRANCH  23  24
ATOM     24  C   UNL A   1      46.083 -18.270 -35.041  0.00  0.00    -0.052 C 
BRANCH  24  25
ATOM     25  C   UNL A   1      44.801 -19.090 -35.229  0.00  0.00    -0.037 C 
BRANCH  25  26
ATOM     26  C   UNL A   1      44.439 -20.004 -34.055  0.00  0.00    +0.009 C 
BRANCH  26  27
ATOM     27  N   UNL A   1      44.305 -19.227 -32.816  0.00  0.00    -0.343 N 
ATOM     28  H   UNL A   1      44.994 -19.182 -32.114  0.00  0.00    +0.000 HD
BRANCH  27  29
ATOM     29  C   UNL A   1      43.053 -18.544 -32.755  0.00  0.00    +0.041 A 
ATOM     30  C   UNL A   1      43.052 -17.135 -32.708  0.00  0.00    -0.005 A 
ATOM     31  C   UNL A   1      41.817 -16.491 -32.623  0.00  0.00    +0.047 A 
ATOM     32  N   UNL A   1      40.642 -17.154 -32.531  0.00  0.00    -0.251 NA
ATOM     33  C   UNL A   1      40.643 -18.492 -32.551  0.00  0.00    +0.074 A 
ATOM     34  C   UNL A   1      39.417 -19.134 -32.456  0.00  0.00    -0.017 A 
ATOM     35  C   UNL A   1      39.324 -20.522 -32.467  0.00  0.00    +0.043 A 
ATOM     36 CL   UNL A   1      37.785 -21.281 -32.345  0.00  0.00    -0.083 Cl
ATOM     37  C   UNL A   1      40.468 -21.298 -32.573  0.00  0.00    -0.043 A 
ATOM     38  C   UNL A   1      41.709 -20.670 -32.670  0.00  0.00    -0.049 A 
ATOM     39  C   UNL A   1      41.823 -19.256 -32.660  0.00  0.00    +0.022 A 
ATOM     40  C   UNL A   1      41.711 -14.988 -32.572  0.00  0.00    -0.010 C 
ATOM     41  C   UNL A   1      42.934 -14.280 -33.138  0.00  0.00    -0.047 C 
ATOM     42  C   UNL A   1      44.197 -14.863 -32.522  0.00  0.00    -0.049 C 
ATOM     43  C   UNL A   1      44.330 -16.345 -32.870  0.00  0.00    -0.024 C 
ENDBRANCH  27  29
ENDBRANCH  26  27
ENDBRANCH  25  26
ENDBRANCH  24  25
ENDBRANCH  23  24
ENDBRANCH   1  23
TORSDOF 11
ENDMDL
MODEL 7
REMARK VINA RESULT:    -6.771     18.356     22.253
REMARK INTER + INTRA:         -15.313
REMARK INTER:                 -11.603
REMARK INTRA:                  -3.710
REMARK UNBOUND:                -4.187
REMARK  Name = cpd178.pdb
REMARK  13 active torsions:
REMARK  status: ('A' for Active; 'I' for Inactive)
REMARK    1  A    between atoms: C_1  and  C_2
REMARK    2  A    between atoms: C_6  and  N_7
REMARK    3  A    between atoms: N_7  and  C_8
REMARK    4  A    between atoms: C_13  and  C_14
REMARK    5  A    between atoms: N_16  and  C_17
REMARK    6  A    between atoms: C_17  and  C_18
REMARK    7  A    between atoms: C_18  and  C_19
REMARK    8  A    between atoms: C_19  and  C_20
REMARK    9  A    between atoms: C_20  and  C_21
REMARK   10  A    between atoms: C_21  and  C_22
REMARK   11  A    between atoms: C_22  and  N_23
REMARK   12  A    between atoms: N_23  and  C_24
REMARK   13  A    between atoms: C_39  and  C_40
REMARK                            x       y       z     vdW  Elec       q    Type
REMARK                         _______ _______ _______ _____ _____    ______ ____
ROOT
ATOM      1  C   UNL A   1      42.458 -16.863 -38.034  0.00  0.00    -0.037 C 
ENDROOT
BRANCH   1   2
ATOM      2  C   UNL A   1      42.968 -16.697 -39.462  0.00  0.00    +0.012 C 
BRANCH   2   5
ATOM      3  C   UNL A   1      44.241 -17.961 -41.136  0.00  0.00    +0.246 C 
ATOM      4  O   UNL A   1      44.498 -16.953 -41.786  0.00  0.00    -0.270 OA
ATOM      5  N   UNL A   1      43.452 -17.952 -40.000  0.00  0.00    -0.311 N 
ATOM      6  H   UNL A   1      43.220 -18.800 -39.556  0.00  0.00    +0.000 HD
BRANCH   3  12
ATOM      7  C   UNL A   1      46.192 -19.548 -41.249  0.00  0.00    +0.044 A 
ATOM      8  C   UNL A   1      46.682 -20.827 -41.567  0.00  0.00    -0.040 A 
ATOM      9  C   UNL A   1      45.881 -21.771 -42.215  0.00  0.00    -0.060 A 
ATOM     10  C   UNL A   1      44.564 -21.466 -42.537  0.00  0.00    -0.061 A 
ATOM     11  C   UNL A   1      44.036 -20.223 -42.190  0.00  0.00    -0.048 A 
ATOM     12  C   UNL A   1      44.832 -19.276 -41.522  0.00  0.00    +0.058 A 
BRANCH   7  13
ATOM     13  N   UNL A   1      47.004 -18.626 -40.531  0.00  0.00    -0.314 N 
ATOM     14  H   UNL A   1      47.692 -18.153 -41.054  0.00  0.00    +0.000 HD
BRANCH  13  20
ATOM     15  C   UNL A   1      47.185 -15.218 -36.877  0.00  0.00    -0.039 C 
ATOM     16  C   UNL A   1      47.092 -16.638 -37.364  0.00  0.00    -0.046 A 
ATOM     17  C   UNL A   1      47.071 -17.674 -36.417  0.00  0.00    -0.058 A 
ATOM     18  C   UNL A   1      47.016 -19.004 -36.820  0.00  0.00    -0.060 A 
ATOM     19  C   UNL A   1      46.970 -19.317 -38.176  0.00  0.00    -0.040 A 
ATOM     20  C   UNL A   1      46.939 -18.306 -39.148  0.00  0.00    +0.035 A 
ATOM     21  C   UNL A   1      47.012 -16.952 -38.741  0.00  0.00    -0.026 A 
ATOM     22  C   UNL A   1      47.058 -15.860 -39.783  0.00  0.00    -0.038 C 
ENDBRANCH  13  20
ENDBRANCH   7  13
ENDBRANCH   3  12
ENDBRANCH   2   5
ENDBRANCH   1   2
BRANCH   1  23
ATOM     23  C   UNL A   1      43.491 -17.486 -37.090  0.00  0.00    -0.052 C 
BRANCH  23  24
ATOM     24  C   UNL A   1      43.372 -16.979 -35.651  0.00  0.00    -0.052 C 
BRANCH  24  25
ATOM     25  C   UNL A   1      43.160 -18.085 -34.610  0.00  0.00    -0.037 C 
BRANCH  25  26
ATOM     26  C   UNL A   1      43.988 -19.353 -34.834  0.00  0.00    +0.009 C 
BRANCH  26  27
ATOM     27  N   UNL A   1      43.280 -20.532 -34.318  0.00  0.00    -0.343 N 
ATOM     28  H   UNL A   1      43.592 -21.078 -33.561  0.00  0.00    +0.000 HD
BRANCH  27  29
ATOM     29  C   UNL A   1      42.081 -20.787 -35.051  0.00  0.00    +0.041 A 
ATOM     30  C   UNL A   1      42.164 -20.951 -36.449  0.00  0.00    -0.005 A 
ATOM     31  C   UNL A   1      40.976 -21.174 -37.146  0.00  0.00    +0.047 A 
ATOM     32  N   UNL A   1      39.760 -21.186 -36.552  0.00  0.00    -0.251 NA
ATOM     33  C   UNL A   1      39.678 -21.006 -35.229  0.00  0.00    +0.074 A 
ATOM     34  C   UNL A   1      38.414 -21.026 -34.658  0.00  0.00    -0.017 A 
ATOM     35  C   UNL A   1      38.234 -20.845 -33.290  0.00  0.00    +0.043 A 
ATOM     36 CL   UNL A   1      36.650 -20.875 -32.620  0.00  0.00    -0.083 Cl
ATOM     37  C   UNL A   1      39.327 -20.639 -32.463  0.00  0.00    -0.043 A 
ATOM     38  C   UNL A   1      40.606 -20.616 -33.019  0.00  0.00    -0.049 A 
ATOM     39  C   UNL A   1      40.808 -20.798 -34.411  0.00  0.00    +0.022 A 
ATOM     40  C   UNL A   1      40.960 -21.366 -38.641  0.00  0.00    -0.010 C 
ATOM     41  C   UNL A   1      42.303 -21.815 -39.203  0.00  0.00    -0.047 C 
ATOM     42  C   UNL A   1      43.408 -20.914 -38.675  0.00  0.00    -0.049 C 
ATOM     43  C   UNL A   1      43.500 -21.010 -37.153  0.00  0.00    -0.024 C 
ENDBRANCH  27  29
ENDBRANCH  26  27
ENDBRANCH  25  26
ENDBRANCH  24  25
ENDBRANCH  23  24
ENDBRANCH   1  23
TORSDOF 11
ENDMDL
MODEL 8
REMARK VINA RESULT:    -6.766     16.494     20.756
REMARK INTER + INTRA:         -15.304
REMARK INTER:                 -11.336
REMARK INTRA:                  -3.967
REMARK UNBOUND:                -4.187
REMARK  Name = cpd178.pdb
REMARK  13 active torsions:
REMARK  status: ('A' for Active; 'I' for Inactive)
REMARK    1  A    between atoms: C_1  and  C_2
REMARK    2  A    between atoms: C_6  and  N_7
REMARK    3  A    between atoms: N_7  and  C_8
REMARK    4  A    between atoms: C_13  and  C_14
REMARK    5  A    between atoms: N_16  and  C_17
REMARK    6  A    between atoms: C_17  and  C_18
REMARK    7  A    between atoms: C_18  and  C_19
REMARK    8  A    between atoms: C_19  and  C_20
REMARK    9  A    between atoms: C_20  and  C_21
REMARK   10  A    between atoms: C_21  and  C_22
REMARK   11  A    between atoms: C_22  and  N_23
REMARK   12  A    between atoms: N_23  and  C_24
REMARK   13  A    between atoms: C_39  and  C_40
REMARK                            x       y       z     vdW  Elec       q    Type
REMARK                         _______ _______ _______ _____ _____    ______ ____
ROOT
ATOM      1  C   UNL A   1      46.233 -17.222 -36.854  0.00  0.00    -0.037 C 
ENDROOT
BRANCH   1   2
ATOM      2  C   UNL A   1      47.233 -18.350 -37.087  0.00  0.00    +0.012 C 
BRANCH   2   5
ATOM      3  C   UNL A   1      46.145 -20.238 -38.215  0.00  0.00    +0.246 C 
ATOM      4  O   UNL A   1      45.762 -20.725 -37.156  0.00  0.00    -0.270 OA
ATOM      5  N   UNL A   1      46.920 -19.095 -38.290  0.00  0.00    -0.311 N 
ATOM      6  H   UNL A   1      47.259 -18.787 -39.161  0.00  0.00    +0.000 HD
BRANCH   3  12
ATOM      7  C   UNL A   1      44.423 -20.646 -40.006  0.00  0.00    +0.044 A 
ATOM      8  C   UNL A   1      44.107 -21.178 -41.268  0.00  0.00    -0.040 A 
ATOM      9  C   UNL A   1      45.024 -21.959 -41.977  0.00  0.00    -0.060 A 
ATOM     10  C   UNL A   1      46.287 -22.203 -41.451  0.00  0.00    -0.061 A 
ATOM     11  C   UNL A   1      46.646 -21.647 -40.224  0.00  0.00    -0.048 A 
ATOM     12  C   UNL A   1      45.734 -20.846 -39.514  0.00  0.00    +0.058 A 
BRANCH   7  13
ATOM     13  N   UNL A   1      43.499 -19.799 -39.332  0.00  0.00    -0.314 N 
ATOM     14  H   UNL A   1      43.649 -18.830 -39.425  0.00  0.00    +0.000 HD
BRANCH  13  20
ATOM     15  C   UNL A   1      39.556 -18.547 -36.523  0.00  0.00    -0.039 C 
ATOM     16  C   UNL A   1      40.495 -19.563 -37.116  0.00  0.00    -0.046 A 
ATOM     17  C   UNL A   1      40.335 -20.912 -36.766  0.00  0.00    -0.058 A 
ATOM     18  C   UNL A   1      41.198 -21.883 -37.264  0.00  0.00    -0.060 A 
ATOM     19  C   UNL A   1      42.226 -21.519 -38.129  0.00  0.00    -0.040 A 
ATOM     20  C   UNL A   1      42.385 -20.187 -38.539  0.00  0.00    +0.035 A 
ATOM     21  C   UNL A   1      41.519 -19.195 -38.020  0.00  0.00    -0.026 A 
ATOM     22  C   UNL A   1      41.731 -17.747 -38.396  0.00  0.00    -0.038 C 
ENDBRANCH  13  20
ENDBRANCH   7  13
ENDBRANCH   3  12
ENDBRANCH   2   5
ENDBRANCH   1   2
BRANCH   1  23
ATOM     23  C   UNL A   1      45.583 -17.265 -35.468  0.00  0.00    -0.052 C 
BRANCH  23  24
ATOM     24  C   UNL A   1      44.294 -18.090 -35.434  0.00  0.00    -0.052 C 
BRANCH  24  25
ATOM     25  C   UNL A   1      44.296 -19.216 -34.393  0.00  0.00    -0.037 C 
BRANCH  25  26
ATOM     26  C   UNL A   1      43.042 -20.095 -34.388  0.00  0.00    +0.009 C 
BRANCH  26  27
ATOM     27  N   UNL A   1      42.451 -20.146 -33.044  0.00  0.00    -0.343 N 
ATOM     28  H   UNL A   1      42.972 -20.239 -32.214  0.00  0.00    +0.000 HD
BRANCH  27  29
ATOM     29  C   UNL A   1      41.027 -20.044 -33.091  0.00  0.00    +0.041 A 
ATOM     30  C   UNL A   1      40.435 -18.773 -32.941  0.00  0.00    -0.005 A 
ATOM     31  C   UNL A   1      39.042 -18.701 -32.964  0.00  0.00    +0.047 A 
ATOM     32  N   UNL A   1      38.246 -19.790 -33.069  0.00  0.00    -0.251 NA
ATOM     33  C   UNL A   1      38.807 -21.000 -33.186  0.00  0.00    +0.074 A 
ATOM     34  C   UNL A   1      37.957 -22.091 -33.293  0.00  0.00    -0.017 A 
ATOM     35  C   UNL A   1      38.453 -23.385 -33.416  0.00  0.00    +0.043 A 
ATOM     36 CL   UNL A   1      37.366 -24.713 -33.543  0.00  0.00    -0.083 Cl
ATOM     37  C   UNL A   1      39.821 -23.611 -33.435  0.00  0.00    -0.043 A 
ATOM     38  C   UNL A   1      40.690 -22.526 -33.330  0.00  0.00    -0.049 A 
ATOM     39  C   UNL A   1      40.203 -21.200 -33.203  0.00  0.00    +0.022 A 
ATOM     40  C   UNL A   1      38.315 -17.389 -32.817  0.00  0.00    -0.010 C 
ATOM     41  C   UNL A   1      39.174 -16.183 -33.172  0.00  0.00    -0.047 C 
ATOM     42  C   UNL A   1      40.508 -16.271 -32.448  0.00  0.00    -0.049 C 
ATOM     43  C   UNL A   1      41.276 -17.518 -32.884  0.00  0.00    -0.024 C 
ENDBRANCH  27  29
ENDBRANCH  26  27
ENDBRANCH  25  26
ENDBRANCH  24  25
ENDBRANCH  23  24
ENDBRANCH   1  23
TORSDOF 11
ENDMDL
MODEL 9
REMARK VINA RESULT:    -6.700     18.297     22.477
REMARK INTER + INTRA:         -15.195
REMARK INTER:                 -10.733
REMARK INTRA:                  -4.462
REMARK UNBOUND:                -4.187
REMARK  Name = cpd178.pdb
REMARK  13 active torsions:
REMARK  status: ('A' for Active; 'I' for Inactive)
REMARK    1  A    between atoms: C_1  and  C_2
REMARK    2  A    between atoms: C_6  and  N_7
REMARK    3  A    between atoms: N_7  and  C_8
REMARK    4  A    between atoms: C_13  and  C_14
REMARK    5  A    between atoms: N_16  and  C_17
REMARK    6  A    between atoms: C_17  and  C_18
REMARK    7  A    between atoms: C_18  and  C_19
REMARK    8  A    between atoms: C_19  and  C_20
REMARK    9  A    between atoms: C_20  and  C_21
REMARK   10  A    between atoms: C_21  and  C_22
REMARK   11  A    between atoms: C_22  and  N_23
REMARK   12  A    between atoms: N_23  and  C_24
REMARK   13  A    between atoms: C_39  and  C_40
REMARK                            x       y       z     vdW  Elec       q    Type
REMARK                         _______ _______ _______ _____ _____    ______ ____
ROOT
ATOM      1  C   UNL A   1      42.267 -14.587 -38.842  0.00  0.00    -0.037 C 
ENDROOT
BRANCH   1   2
ATOM      2  C   UNL A   1      43.091 -15.415 -39.824  0.00  0.00    +0.012 C 
BRANCH   2   5
ATOM      3  C   UNL A   1      43.345 -17.849 -39.652  0.00  0.00    +0.246 C 
ATOM      4  O   UNL A   1      44.527 -17.761 -39.335  0.00  0.00    -0.270 OA
ATOM      5  N   UNL A   1      42.558 -16.755 -39.963  0.00  0.00    -0.311 N 
ATOM      6  H   UNL A   1      41.635 -16.888 -40.280  0.00  0.00    +0.000 HD
BRANCH   3  12
ATOM      7  C   UNL A   1      43.329 -20.308 -40.193  0.00  0.00    +0.044 A 
ATOM      8  C   UNL A   1      42.676 -21.550 -40.114  0.00  0.00    -0.040 A 
ATOM      9  C   UNL A   1      41.376 -21.656 -39.613  0.00  0.00    -0.060 A 
ATOM     10  C   UNL A   1      40.709 -20.525 -39.156  0.00  0.00    -0.061 A 
ATOM     11  C   UNL A   1      41.351 -19.288 -39.176  0.00  0.00    -0.048 A 
ATOM     12  C   UNL A   1      42.666 -19.178 -39.662  0.00  0.00    +0.058 A 
BRANCH   7  13
ATOM     13  N   UNL A   1      44.676 -20.233 -40.645  0.00  0.00    -0.314 N 
ATOM     14  H   UNL A   1      45.093 -19.340 -40.624  0.00  0.00    +0.000 HD
BRANCH  13  20
ATOM     15  C   UNL A   1      48.861 -22.949 -40.305  0.00  0.00    -0.039 C 
ATOM     16  C   UNL A   1      47.572 -22.576 -40.986  0.00  0.00    -0.046 A 
ATOM     17  C   UNL A   1      47.242 -23.208 -42.194  0.00  0.00    -0.058 A 
ATOM     18  C   UNL A   1      46.076 -22.875 -42.876  0.00  0.00    -0.060 A 
ATOM     19  C   UNL A   1      45.219 -21.910 -42.353  0.00  0.00    -0.040 A 
ATOM     20  C   UNL A   1      45.493 -21.294 -41.123  0.00  0.00    +0.035 A 
ATOM     21  C   UNL A   1      46.686 -21.619 -40.436  0.00  0.00    -0.026 A 
ATOM     22  C   UNL A   1      47.028 -20.904 -39.150  0.00  0.00    -0.038 C 
ENDBRANCH  13  20
ENDBRANCH   7  13
ENDBRANCH   3  12
ENDBRANCH   2   5
ENDBRANCH   1   2
BRANCH   1  23
ATOM     23  C   UNL A   1      41.339 -15.435 -37.967  0.00  0.00    -0.052 C 
BRANCH  23  24
ATOM     24  C   UNL A   1      40.919 -14.727 -36.676  0.00  0.00    -0.052 C 
BRANCH  24  25
ATOM     25  C   UNL A   1      39.923 -15.519 -35.819  0.00  0.00    -0.037 C 
BRANCH  25  26
ATOM     26  C   UNL A   1      39.857 -17.018 -36.123  0.00  0.00    +0.009 C 
BRANCH  26  27
ATOM     27  N   UNL A   1      40.363 -17.799 -34.987  0.00  0.00    -0.343 N 
ATOM     28  H   UNL A   1      40.163 -17.597 -34.044  0.00  0.00    +0.000 HD
BRANCH  27  29
ATOM     29  C   UNL A   1      41.179 -18.888 -35.418  0.00  0.00    +0.041 A 
ATOM     30  C   UNL A   1      40.601 -20.171 -35.513  0.00  0.00    -0.005 A 
ATOM     31  C   UNL A   1      41.425 -21.224 -35.912  0.00  0.00    +0.047 A 
ATOM     32  N   UNL A   1      42.748 -21.078 -36.156  0.00  0.00    -0.251 NA
ATOM     33  C   UNL A   1      43.303 -19.865 -36.043  0.00  0.00    +0.074 A 
ATOM     34  C   UNL A   1      44.661 -19.756 -36.304  0.00  0.00    -0.017 A 
ATOM     35  C   UNL A   1      45.320 -18.535 -36.208  0.00  0.00    +0.043 A 
ATOM     36 CL   UNL A   1      47.007 -18.441 -36.537  0.00  0.00    -0.083 Cl
ATOM     37  C   UNL A   1      44.625 -17.391 -35.847  0.00  0.00    -0.043 A 
ATOM     38  C   UNL A   1      43.260 -17.481 -35.582  0.00  0.00    -0.049 A 
ATOM     39  C   UNL A   1      42.570 -18.718 -35.673  0.00  0.00    +0.022 A 
ATOM     40  C   UNL A   1      40.902 -22.631 -36.048  0.00  0.00    -0.010 C 
ATOM     41  C   UNL A   1      39.391 -22.694 -36.236  0.00  0.00    -0.047 C 
ATOM     42  C   UNL A   1      38.706 -21.845 -35.177  0.00  0.00    -0.049 C 
ATOM     43  C   UNL A   1      39.118 -20.379 -35.312  0.00  0.00    -0.024 C 
ENDBRANCH  27  29
ENDBRANCH  26  27
ENDBRANCH  25  26
ENDBRANCH  24  25
ENDBRANCH  23  24
ENDBRANCH   1  23
TORSDOF 11
ENDMDL
MODEL 10
REMARK VINA RESULT:    -6.692     18.013     22.351
REMARK INTER + INTRA:         -15.182
REMARK INTER:                 -11.390
REMARK INTRA:                  -3.792
REMARK UNBOUND:                -4.187
REMARK  Name = cpd178.pdb
REMARK  13 active torsions:
REMARK  status: ('A' for Active; 'I' for Inactive)
REMARK    1  A    between atoms: C_1  and  C_2
REMARK    2  A    between atoms: C_6  and  N_7
REMARK    3  A    between atoms: N_7  and  C_8
REMARK    4  A    between atoms: C_13  and  C_14
REMARK    5  A    between atoms: N_16  and  C_17
REMARK    6  A    between atoms: C_17  and  C_18
REMARK    7  A    between atoms: C_18  and  C_19
REMARK    8  A    between atoms: C_19  and  C_20
REMARK    9  A    between atoms: C_20  and  C_21
REMARK   10  A    between atoms: C_21  and  C_22
REMARK   11  A    between atoms: C_22  and  N_23
REMARK   12  A    between atoms: N_23  and  C_24
REMARK   13  A    between atoms: C_39  and  C_40
REMARK                            x       y       z     vdW  Elec       q    Type
REMARK                         _______ _______ _______ _____ _____    ______ ____
ROOT
ATOM      1  C   UNL A   1      44.060 -20.937 -37.490  0.00  0.00    -0.037 C 
ENDROOT
BRANCH   1   2
ATOM      2  C   UNL A   1      44.732 -19.861 -36.643  0.00  0.00    +0.012 C 
BRANCH   2   5
ATOM      3  C   UNL A   1      46.297 -18.374 -37.811  0.00  0.00    +0.246 C 
ATOM      4  O   UNL A   1      47.272 -19.032 -37.463  0.00  0.00    -0.270 OA
ATOM      5  N   UNL A   1      45.003 -18.668 -37.421  0.00  0.00    -0.311 N 
ATOM      6  H   UNL A   1      44.265 -18.067 -37.672  0.00  0.00    +0.000 HD
BRANCH   3  12
ATOM      7  C   UNL A   1      46.975 -17.435 -40.047  0.00  0.00    +0.044 A 
ATOM      8  C   UNL A   1      47.043 -16.331 -40.914  0.00  0.00    -0.040 A 
ATOM      9  C   UNL A   1      46.701 -15.046 -40.483  0.00  0.00    -0.060 A 
ATOM     10  C   UNL A   1      46.261 -14.842 -39.180  0.00  0.00    -0.061 A 
ATOM     11  C   UNL A   1      46.136 -15.926 -38.313  0.00  0.00    -0.048 A 
ATOM     12  C   UNL A   1      46.461 -17.224 -38.747  0.00  0.00    +0.058 A 
BRANCH   7  13
ATOM     13  N   UNL A   1      47.264 -18.744 -40.526  0.00  0.00    -0.314 N 
ATOM     14  H   UNL A   1      48.178 -19.073 -40.366  0.00  0.00    +0.000 HD
BRANCH  13  20
ATOM     15  C   UNL A   1      46.368 -23.248 -42.504  0.00  0.00    -0.039 C 
ATOM     16  C   UNL A   1      45.984 -21.820 -42.227  0.00  0.00    -0.046 A 
ATOM     17  C   UNL A   1      44.789 -21.325 -42.772  0.00  0.00    -0.058 A 
ATOM     18  C   UNL A   1      44.408 -20.004 -42.569  0.00  0.00    -0.060 A 
ATOM     19  C   UNL A   1      45.212 -19.159 -41.808  0.00  0.00    -0.040 A 
ATOM     20  C   UNL A   1      46.388 -19.632 -41.208  0.00  0.00    +0.035 A 
ATOM     21  C   UNL A   1      46.787 -20.972 -41.427  0.00  0.00    -0.026 A 
ATOM     22  C   UNL A   1      48.091 -21.469 -40.849  0.00  0.00    -0.038 C 
ENDBRANCH  13  20
ENDBRANCH   7  13
ENDBRANCH   3  12
ENDBRANCH   2   5
ENDBRANCH   1   2
BRANCH   1  23
ATOM     23  C   UNL A   1      43.476 -20.400 -38.800  0.00  0.00    -0.052 C 
BRANCH  23  24
ATOM     24  C   UNL A   1      42.756 -21.473 -39.621  0.00  0.00    -0.052 C 
BRANCH  24  25
ATOM     25  C   UNL A   1      41.246 -21.248 -39.765  0.00  0.00    -0.037 C 
BRANCH  25  26
ATOM     26  C   UNL A   1      40.386 -21.925 -38.693  0.00  0.00    +0.009 C 
BRANCH  26  27
ATOM     27  N   UNL A   1      39.538 -20.938 -38.011  0.00  0.00    -0.343 N 
ATOM     28  H   UNL A   1      38.615 -20.723 -38.277  0.00  0.00    +0.000 HD
BRANCH  27  29
ATOM     29  C   UNL A   1      40.219 -20.331 -36.912  0.00  0.00    +0.041 A 
ATOM     30  C   UNL A   1      40.756 -19.038 -37.081  0.00  0.00    -0.005 A 
ATOM     31  C   UNL A   1      41.439 -18.476 -36.002  0.00  0.00    +0.047 A 
ATOM     32  N   UNL A   1      41.650 -19.130 -34.837  0.00  0.00    -0.251 NA
ATOM     33  C   UNL A   1      41.161 -20.366 -34.684  0.00  0.00    +0.074 A 
ATOM     34  C   UNL A   1      41.397 -21.002 -33.474  0.00  0.00    -0.017 A 
ATOM     35  C   UNL A   1      40.928 -22.289 -33.229  0.00  0.00    +0.043 A 
ATOM     36 CL   UNL A   1      41.243 -23.045 -31.717  0.00  0.00    -0.083 Cl
ATOM     37  C   UNL A   1      40.207 -22.967 -34.201  0.00  0.00    -0.043 A 
ATOM     38  C   UNL A   1      39.960 -22.343 -35.423  0.00  0.00    -0.049 A 
ATOM     39  C   UNL A   1      40.432 -21.032 -35.691  0.00  0.00    +0.022 A 
ATOM     40  C   UNL A   1      42.046 -17.098 -36.081  0.00  0.00    -0.010 C 
ATOM     41  C   UNL A   1      41.418 -16.226 -37.161  0.00  0.00    -0.047 C 
ATOM     42  C   UNL A   1      41.368 -16.991 -38.474  0.00  0.00    -0.049 C 
ATOM     43  C   UNL A   1      40.497 -18.239 -38.337  0.00  0.00    -0.024 C 
ENDBRANCH  27  29
ENDBRANCH  26  27
ENDBRANCH  25  26
ENDBRANCH  24  25
ENDBRANCH  23  24
ENDBRANCH   1  23
TORSDOF 11
ENDMDL
MODEL 11
REMARK VINA RESULT:    -6.681     17.386     21.130
REMARK INTER + INTRA:         -15.165
REMARK INTER:                 -11.789
REMARK INTRA:                  -3.376
REMARK UNBOUND:                -4.187
REMARK  Name = cpd178.pdb
REMARK  13 active torsions:
REMARK  status: ('A' for Active; 'I' for Inactive)
REMARK    1  A    between atoms: C_1  and  C_2
REMARK    2  A    between atoms: C_6  and  N_7
REMARK    3  A    between atoms: N_7  and  C_8
REMARK    4  A    between atoms: C_13  and  C_14
REMARK    5  A    between atoms: N_16  and  C_17
REMARK    6  A    between atoms: C_17  and  C_18
REMARK    7  A    between atoms: C_18  and  C_19
REMARK    8  A    between atoms: C_19  and  C_20
REMARK    9  A    between atoms: C_20  and  C_21
REMARK   10  A    between atoms: C_21  and  C_22
REMARK   11  A    between atoms: C_22  and  N_23
REMARK   12  A    between atoms: N_23  and  C_24
REMARK   13  A    between atoms: C_39  and  C_40
REMARK                            x       y       z     vdW  Elec       q    Type
REMARK                         _______ _______ _______ _____ _____    ______ ____
ROOT
ATOM      1  C   UNL A   1      46.419 -19.752 -35.211  0.00  0.00    -0.037 C 
ENDROOT
BRANCH   1   2
ATOM      2  C   UNL A   1      47.161 -19.377 -36.491  0.00  0.00    +0.012 C 
BRANCH   2   5
ATOM      3  C   UNL A   1      46.876 -20.031 -38.839  0.00  0.00    +0.246 C 
ATOM      4  O   UNL A   1      46.800 -18.865 -39.214  0.00  0.00    -0.270 OA
ATOM      5  N   UNL A   1      47.004 -20.395 -37.511  0.00  0.00    -0.311 N 
ATOM      6  H   UNL A   1      46.990 -21.346 -37.258  0.00  0.00    +0.000 HD
BRANCH   3  12
ATOM      7  C   UNL A   1      45.833 -21.271 -40.766  0.00  0.00    +0.044 A 
ATOM      8  C   UNL A   1      45.928 -22.291 -41.729  0.00  0.00    -0.040 A 
ATOM      9  C   UNL A   1      46.983 -23.207 -41.714  0.00  0.00    -0.060 A 
ATOM     10  C   UNL A   1      47.980 -23.109 -40.751  0.00  0.00    -0.061 A 
ATOM     11  C   UNL A   1      47.938 -22.078 -39.813  0.00  0.00    -0.048 A 
ATOM     12  C   UNL A   1      46.889 -21.142 -39.834  0.00  0.00    +0.058 A 
BRANCH   7  13
ATOM     13  N   UNL A   1      44.787 -20.309 -40.839  0.00  0.00    -0.314 N 
ATOM     14  H   UNL A   1      44.929 -19.559 -41.461  0.00  0.00    +0.000 HD
BRANCH  13  20
ATOM     15  C   UNL A   1      41.152 -17.769 -38.528  0.00  0.00    -0.039 C 
ATOM     16  C   UNL A   1      41.820 -19.054 -38.938  0.00  0.00    -0.046 A 
ATOM     17  C   UNL A   1      41.282 -20.268 -38.484  0.00  0.00    -0.058 A 
ATOM     18  C   UNL A   1      41.882 -21.479 -38.811  0.00  0.00    -0.060 A 
ATOM     19  C   UNL A   1      43.024 -21.493 -39.608  0.00  0.00    -0.040 A 
ATOM     20  C   UNL A   1      43.561 -20.303 -40.119  0.00  0.00    +0.035 A 
ATOM     21  C   UNL A   1      42.962 -19.068 -39.774  0.00  0.00    -0.026 A 
ATOM     22  C   UNL A   1      43.577 -17.777 -40.258  0.00  0.00    -0.038 C 
ENDBRANCH  13  20
ENDBRANCH   7  13
ENDBRANCH   3  12
ENDBRANCH   2   5
ENDBRANCH   1   2
BRANCH   1  23
ATOM     23  C   UNL A   1      44.955 -20.135 -35.451  0.00  0.00    -0.052 C 
BRANCH  23  24
ATOM     24  C   UNL A   1      44.158 -19.043 -36.168  0.00  0.00    -0.052 C 
BRANCH  24  25
ATOM     25  C   UNL A   1      43.682 -17.908 -35.252  0.00  0.00    -0.037 C 
BRANCH  25  26
ATOM     26  C   UNL A   1      42.183 -17.914 -34.940  0.00  0.00    +0.009 C 
BRANCH  26  27
ATOM     27  N   UNL A   1      41.919 -18.625 -33.682  0.00  0.00    -0.343 N 
ATOM     28  H   UNL A   1      42.593 -18.779 -32.982  0.00  0.00    +0.000 HD
BRANCH  27  29
ATOM     29  C   UNL A   1      40.563 -19.066 -33.602  0.00  0.00    +0.041 A 
ATOM     30  C   UNL A   1      40.224 -20.318 -34.155  0.00  0.00    -0.005 A 
ATOM     31  C   UNL A   1      38.888 -20.714 -34.087  0.00  0.00    +0.047 A 
ATOM     32  N   UNL A   1      37.910 -19.937 -33.568  0.00  0.00    -0.251 NA
ATOM     33  C   UNL A   1      38.226 -18.738 -33.065  0.00  0.00    +0.074 A 
ATOM     34  C   UNL A   1      37.196 -17.972 -32.541  0.00  0.00    -0.017 A 
ATOM     35  C   UNL A   1      37.433 -16.712 -32.000  0.00  0.00    +0.043 A 
ATOM     36 CL   UNL A   1      36.127 -15.791 -31.362  0.00  0.00    -0.083 Cl
ATOM     37  C   UNL A   1      38.719 -16.194 -31.973  0.00  0.00    -0.043 A 
ATOM     38  C   UNL A   1      39.767 -16.950 -32.494  0.00  0.00    -0.049 A 
ATOM     39  C   UNL A   1      39.544 -18.235 -33.051  0.00  0.00    +0.022 A 
ATOM     40  C   UNL A   1      38.426 -22.037 -34.644  0.00  0.00    -0.010 C 
ATOM     41  C   UNL A   1      39.548 -23.058 -34.777  0.00  0.00    -0.047 C 
ATOM     42  C   UNL A   1      40.733 -22.429 -35.493  0.00  0.00    -0.049 C 
ATOM     43  C   UNL A   1      41.285 -21.252 -34.689  0.00  0.00    -0.024 C 
ENDBRANCH  27  29
ENDBRANCH  26  27
ENDBRANCH  25  26
ENDBRANCH  24  25
ENDBRANCH  23  24
ENDBRANCH   1  23
TORSDOF 11
ENDMDL
MODEL 12
REMARK VINA RESULT:    -6.666     17.760     22.132
REMARK INTER + INTRA:         -15.140
REMARK INTER:                 -10.880
REMARK INTRA:                  -4.260
REMARK UNBOUND:                -4.187
REMARK  Name = cpd178.pdb
REMARK  13 active torsions:
REMARK  status: ('A' for Active; 'I' for Inactive)
REMARK    1  A    between atoms: C_1  and  C_2
REMARK    2  A    between atoms: C_6  and  N_7
REMARK    3  A    between atoms: N_7  and  C_8
REMARK    4  A    between atoms: C_13  and  C_14
REMARK    5  A    between atoms: N_16  and  C_17
REMARK    6  A    between atoms: C_17  and  C_18
REMARK    7  A    between atoms: C_18  and  C_19
REMARK    8  A    between atoms: C_19  and  C_20
REMARK    9  A    between atoms: C_20  and  C_21
REMARK   10  A    between atoms: C_21  and  C_22
REMARK   11  A    between atoms: C_22  and  N_23
REMARK   12  A    between atoms: N_23  and  C_24
REMARK   13  A    between atoms: C_39  and  C_40
REMARK                            x       y       z     vdW  Elec       q    Type
REMARK                         _______ _______ _______ _____ _____    ______ ____
ROOT
ATOM      1  C   UNL A   1      43.472 -16.236 -38.685  0.00  0.00    -0.037 C 
ENDROOT
BRANCH   1   2
ATOM      2  C   UNL A   1      44.785 -16.378 -39.449  0.00  0.00    +0.012 C 
BRANCH   2   5
ATOM      3  C   UNL A   1      46.333 -18.163 -40.114  0.00  0.00    +0.246 C 
ATOM      4  O   UNL A   1      47.279 -17.386 -40.207  0.00  0.00    -0.270 OA
ATOM      5  N   UNL A   1      45.049 -17.761 -39.795  0.00  0.00    -0.311 N 
ATOM      6  H   UNL A   1      44.313 -18.415 -39.803  0.00  0.00    +0.000 HD
BRANCH   3  12
ATOM      7  C   UNL A   1      47.023 -20.412 -39.218  0.00  0.00    +0.044 A 
ATOM      8  C   UNL A   1      47.136 -21.799 -39.415  0.00  0.00    -0.040 A 
ATOM      9  C   UNL A   1      46.872 -22.380 -40.658  0.00  0.00    -0.060 A 
ATOM     10  C   UNL A   1      46.465 -21.588 -41.726  0.00  0.00    -0.061 A 
ATOM     11  C   UNL A   1      46.297 -20.216 -41.547  0.00  0.00    -0.048 A 
ATOM     12  C   UNL A   1      46.543 -19.629 -40.293  0.00  0.00    +0.058 A 
BRANCH   7  13
ATOM     13  N   UNL A   1      47.232 -19.850 -37.927  0.00  0.00    -0.314 N 
ATOM     14  H   UNL A   1      48.159 -19.600 -37.707  0.00  0.00    +0.000 HD
BRANCH  13  20
ATOM     15  C   UNL A   1      45.868 -17.505 -33.727  0.00  0.00    -0.039 C 
ATOM     16  C   UNL A   1      45.629 -18.501 -34.828  0.00  0.00    -0.046 A 
ATOM     17  C   UNL A   1      44.475 -19.298 -34.777  0.00  0.00    -0.058 A 
ATOM     18  C   UNL A   1      44.226 -20.254 -35.756  0.00  0.00    -0.060 A 
ATOM     19  C   UNL A   1      45.124 -20.419 -36.808  0.00  0.00    -0.040 A 
ATOM     20  C   UNL A   1      46.262 -19.608 -36.917  0.00  0.00    +0.035 A 
ATOM     21  C   UNL A   1      46.526 -18.645 -35.914  0.00  0.00    -0.026 A 
ATOM     22  C   UNL A   1      47.789 -17.820 -35.983  0.00  0.00    -0.038 C 
ENDBRANCH  13  20
ENDBRANCH   7  13
ENDBRANCH   3  12
ENDBRANCH   2   5
ENDBRANCH   1   2
BRANCH   1  23
ATOM     23  C   UNL A   1      43.593 -16.596 -37.201  0.00  0.00    -0.052 C 
BRANCH  23  24
ATOM     24  C   UNL A   1      42.787 -15.668 -36.290  0.00  0.00    -0.052 C 
BRANCH  24  25
ATOM     25  C   UNL A   1      41.479 -16.277 -35.770  0.00  0.00    -0.037 C 
BRANCH  25  26
ATOM     26  C   UNL A   1      41.529 -17.784 -35.499  0.00  0.00    +0.009 C 
BRANCH  26  27
ATOM     27  N   UNL A   1      40.269 -18.423 -35.899  0.00  0.00    -0.343 N 
ATOM     28  H   UNL A   1      39.402 -17.958 -35.945  0.00  0.00    +0.000 HD
BRANCH  27  29
ATOM     29  C   UNL A   1      40.456 -19.804 -36.213  0.00  0.00    +0.041 A 
ATOM     30  C   UNL A   1      40.106 -20.771 -35.248  0.00  0.00    -0.005 A 
ATOM     31  C   UNL A   1      40.323 -22.111 -35.567  0.00  0.00    +0.047 A 
ATOM     32  N   UNL A   1      40.894 -22.514 -36.726  0.00  0.00    -0.251 NA
ATOM     33  C   UNL A   1      41.249 -21.595 -37.632  0.00  0.00    +0.074 A 
ATOM     34  C   UNL A   1      41.830 -22.048 -38.808  0.00  0.00    -0.017 A 
ATOM     35  C   UNL A   1      42.232 -21.164 -39.804  0.00  0.00    +0.043 A 
ATOM     36 CL   UNL A   1      42.952 -21.764 -41.247  0.00  0.00    -0.083 Cl
ATOM     37  C   UNL A   1      42.056 -19.799 -39.639  0.00  0.00    -0.043 A 
ATOM     38  C   UNL A   1      41.473 -19.325 -38.465  0.00  0.00    -0.049 A 
ATOM     39  C   UNL A   1      41.058 -20.212 -37.438  0.00  0.00    +0.022 A 
ATOM     40  C   UNL A   1      39.977 -23.220 -34.606  0.00  0.00    -0.010 C 
ATOM     41  C   UNL A   1      38.942 -22.812 -33.566  0.00  0.00    -0.047 C 
ATOM     42  C   UNL A   1      39.351 -21.496 -32.922  0.00  0.00    -0.049 C 
ATOM     43  C   UNL A   1      39.408 -20.381 -33.965  0.00  0.00    -0.024 C 
ENDBRANCH  27  29
ENDBRANCH  26  27
ENDBRANCH  25  26
ENDBRANCH  24  25
ENDBRANCH  23  24
ENDBRANCH   1  23
TORSDOF 11
ENDMDL
MODEL 13
REMARK VINA RESULT:    -6.622     19.071     23.000
REMARK INTER + INTRA:         -15.068
REMARK INTER:                 -10.659
REMARK INTRA:                  -4.409
REMARK UNBOUND:                -4.187
REMARK  Name = cpd178.pdb
REMARK  13 active torsions:
REMARK  status: ('A' for Active; 'I' for Inactive)
REMARK    1  A    between atoms: C_1  and  C_2
REMARK    2  A    between atoms: C_6  and  N_7
REMARK    3  A    between atoms: N_7  and  C_8
REMARK    4  A    between atoms: C_13  and  C_14
REMARK    5  A    between atoms: N_16  and  C_17
REMARK    6  A    between atoms: C_17  and  C_18
REMARK    7  A    between atoms: C_18  and  C_19
REMARK    8  A    between atoms: C_19  and  C_20
REMARK    9  A    between atoms: C_20  and  C_21
REMARK   10  A    between atoms: C_21  and  C_22
REMARK   11  A    between atoms: C_22  and  N_23
REMARK   12  A    between atoms: N_23  and  C_24
REMARK   13  A    between atoms: C_39  and  C_40
REMARK                            x       y       z     vdW  Elec       q    Type
REMARK                         _______ _______ _______ _____ _____    ______ ____
ROOT
ATOM      1  C   UNL A   1      44.152 -14.609 -39.625  0.00  0.00    -0.037 C 
ENDROOT
BRANCH   1   2
ATOM      2  C   UNL A   1      45.086 -15.779 -39.920  0.00  0.00    +0.012 C 
BRANCH   2   5
ATOM      3  C   UNL A   1      46.377 -17.476 -38.706  0.00  0.00    +0.246 C 
ATOM      4  O   UNL A   1      47.086 -17.716 -39.678  0.00  0.00    -0.270 OA
ATOM      5  N   UNL A   1      45.329 -16.574 -38.733  0.00  0.00    -0.311 N 
ATOM      6  H   UNL A   1      44.748 -16.472 -37.944  0.00  0.00    +0.000 HD
BRANCH   3  12
ATOM      7  C   UNL A   1      46.119 -19.401 -37.104  0.00  0.00    +0.044 A 
ATOM      8  C   UNL A   1      46.471 -20.002 -35.882  0.00  0.00    -0.040 A 
ATOM      9  C   UNL A   1      47.254 -19.328 -34.941  0.00  0.00    -0.060 A 
ATOM     10  C   UNL A   1      47.722 -18.047 -35.210  0.00  0.00    -0.061 A 
ATOM     11  C   UNL A   1      47.430 -17.446 -36.433  0.00  0.00    -0.048 A 
ATOM     12  C   UNL A   1      46.658 -18.126 -37.392  0.00  0.00    +0.058 A 
BRANCH   7  13
ATOM     13  N   UNL A   1      45.377 -20.130 -38.075  0.00  0.00    -0.314 N 
ATOM     14  H   UNL A   1      44.400 -20.146 -37.953  0.00  0.00    +0.000 HD
BRANCH  13  20
ATOM     15  C   UNL A   1      44.704 -21.941 -42.687  0.00  0.00    -0.039 C 
ATOM     16  C   UNL A   1      45.518 -21.773 -41.433  0.00  0.00    -0.046 A 
ATOM     17  C   UNL A   1      46.747 -22.442 -41.333  0.00  0.00    -0.058 A 
ATOM     18  C   UNL A   1      47.521 -22.340 -40.181  0.00  0.00    -0.060 A 
ATOM     19  C   UNL A   1      47.080 -21.559 -39.117  0.00  0.00    -0.040 A 
ATOM     20  C   UNL A   1      45.880 -20.837 -39.201  0.00  0.00    +0.035 A 
ATOM     21  C   UNL A   1      45.083 -20.952 -40.365  0.00  0.00    -0.026 A 
ATOM     22  C   UNL A   1      43.753 -20.239 -40.434  0.00  0.00    -0.038 C 
ENDBRANCH  13  20
ENDBRANCH   7  13
ENDBRANCH   3  12
ENDBRANCH   2   5
ENDBRANCH   1   2
BRANCH   1  23
ATOM     23  C   UNL A   1      42.895 -14.603 -40.500  0.00  0.00    -0.052 C 
BRANCH  23  24
ATOM     24  C   UNL A   1      41.768 -15.474 -39.938  0.00  0.00    -0.052 C 
BRANCH  24  25
ATOM     25  C   UNL A   1      41.476 -15.242 -38.451  0.00  0.00    -0.037 C 
BRANCH  25  26
ATOM     26  C   UNL A   1      41.179 -16.510 -37.644  0.00  0.00    +0.009 C 
BRANCH  26  27
ATOM     27  N   UNL A   1      42.181 -17.547 -37.922  0.00  0.00    -0.343 N 
ATOM     28  H   UNL A   1      42.693 -17.611 -38.761  0.00  0.00    +0.000 HD
BRANCH  27  29
ATOM     29  C   UNL A   1      42.321 -18.451 -36.826  0.00  0.00    +0.041 A 
ATOM     30  C   UNL A   1      41.651 -19.690 -36.880  0.00  0.00    -0.005 A 
ATOM     31  C   UNL A   1      41.782 -20.545 -35.786  0.00  0.00    +0.047 A 
ATOM     32  N   UNL A   1      42.471 -20.218 -34.668  0.00  0.00    -0.251 NA
ATOM     33  C   UNL A   1      43.087 -19.032 -34.605  0.00  0.00    +0.074 A 
ATOM     34  C   UNL A   1      43.784 -18.734 -33.443  0.00  0.00    -0.017 A 
ATOM     35  C   UNL A   1      44.452 -17.523 -33.290  0.00  0.00    +0.043 A 
ATOM     36 CL   UNL A   1      45.303 -17.190 -31.833  0.00  0.00    -0.083 Cl
ATOM     37  C   UNL A   1      44.433 -16.581 -34.307  0.00  0.00    -0.043 A 
ATOM     38  C   UNL A   1      43.739 -16.863 -35.482  0.00  0.00    -0.049 A 
ATOM     39  C   UNL A   1      43.051 -18.091 -35.656  0.00  0.00    +0.022 A 
ATOM     40  C   UNL A   1      41.109 -21.894 -35.750  0.00  0.00    -0.010 C 
ATOM     41  C   UNL A   1      40.761 -22.428 -37.134  0.00  0.00    -0.047 C 
ATOM     42  C   UNL A   1      40.030 -21.357 -37.929  0.00  0.00    -0.049 C 
ATOM     43  C   UNL A   1      40.921 -20.132 -38.128  0.00  0.00    -0.024 C 
ENDBRANCH  27  29
ENDBRANCH  26  27
ENDBRANCH  25  26
ENDBRANCH  24  25
ENDBRANCH  23  24
ENDBRANCH   1  23
TORSDOF 11
ENDMDL
MODEL 14
REMARK VINA RESULT:    -6.526     16.887     21.017
REMARK INTER + INTRA:         -14.909
REMARK INTER:                 -10.786
REMARK INTRA:                  -4.123
REMARK UNBOUND:                -4.187
REMARK  Name = cpd178.pdb
REMARK  13 active torsions:
REMARK  status: ('A' for Active; 'I' for Inactive)
REMARK    1  A    between atoms: C_1  and  C_2
REMARK    2  A    between atoms: C_6  and  N_7
REMARK    3  A    between atoms: N_7  and  C_8
REMARK    4  A    between atoms: C_13  and  C_14
REMARK    5  A    between atoms: N_16  and  C_17
REMARK    6  A    between atoms: C_17  and  C_18
REMARK    7  A    between atoms: C_18  and  C_19
REMARK    8  A    between atoms: C_19  and  C_20
REMARK    9  A    between atoms: C_20  and  C_21
REMARK   10  A    between atoms: C_21  and  C_22
REMARK   11  A    between atoms: C_22  and  N_23
REMARK   12  A    between atoms: N_23  and  C_24
REMARK   13  A    between atoms: C_39  and  C_40
REMARK                            x       y       z     vdW  Elec       q    Type
REMARK                         _______ _______ _______ _____ _____    ______ ____
ROOT
ATOM      1  C   UNL A   1      46.053 -17.281 -36.845  0.00  0.00    -0.037 C 
ENDROOT
BRANCH   1   2
ATOM      2  C   UNL A   1      47.130 -18.324 -37.128  0.00  0.00    +0.012 C 
BRANCH   2   5
ATOM      3  C   UNL A   1      46.284 -20.220 -38.435  0.00  0.00    +0.246 C 
ATOM      4  O   UNL A   1      45.974 -20.850 -37.428  0.00  0.00    -0.270 OA
ATOM      5  N   UNL A   1      46.906 -18.986 -38.397  0.00  0.00    -0.311 N 
ATOM      6  H   UNL A   1      47.197 -18.556 -39.234  0.00  0.00    +0.000 HD
BRANCH   3  12
ATOM      7  C   UNL A   1      44.643 -20.570 -40.312  0.00  0.00    +0.044 A 
ATOM      8  C   UNL A   1      44.394 -21.023 -41.619  0.00  0.00    -0.040 A 
ATOM      9  C   UNL A   1      45.367 -21.712 -42.347  0.00  0.00    -0.060 A 
ATOM     10  C   UNL A   1      46.621 -21.941 -41.793  0.00  0.00    -0.061 A 
ATOM     11  C   UNL A   1      46.914 -21.459 -40.518  0.00  0.00    -0.048 A 
ATOM     12  C   UNL A   1      45.944 -20.750 -39.788  0.00  0.00    +0.058 A 
BRANCH   7  13
ATOM     13  N   UNL A   1      43.660 -19.813 -39.614  0.00  0.00    -0.314 N 
ATOM     14  H   UNL A   1      43.761 -18.834 -39.648  0.00  0.00    +0.000 HD
BRANCH  13  20
ATOM     15  C   UNL A   1      39.640 -18.936 -36.773  0.00  0.00    -0.039 C 
ATOM     16  C   UNL A   1      40.622 -19.866 -37.433  0.00  0.00    -0.046 A 
ATOM     17  C   UNL A   1      40.506 -21.245 -37.199  0.00  0.00    -0.058 A 
ATOM     18  C   UNL A   1      41.408 -22.140 -37.763  0.00  0.00    -0.060 A 
ATOM     19  C   UNL A   1      42.434 -21.670 -38.579  0.00  0.00    -0.040 A 
ATOM     20  C   UNL A   1      42.551 -20.304 -38.874  0.00  0.00    +0.035 A 
ATOM     21  C   UNL A   1      41.644 -19.389 -38.288  0.00  0.00    -0.026 A 
ATOM     22  C   UNL A   1      41.809 -17.909 -38.539  0.00  0.00    -0.038 C 
ENDBRANCH  13  20
ENDBRANCH   7  13
ENDBRANCH   3  12
ENDBRANCH   2   5
ENDBRANCH   1   2
BRANCH   1  23
ATOM     23  C   UNL A   1      45.317 -17.514 -35.523  0.00  0.00    -0.052 C 
BRANCH  23  24
ATOM     24  C   UNL A   1      44.133 -18.476 -35.656  0.00  0.00    -0.052 C 
BRANCH  24  25
ATOM     25  C   UNL A   1      44.210 -19.700 -34.736  0.00  0.00    -0.037 C 
BRANCH  25  26
ATOM     26  C   UNL A   1      42.941 -20.557 -34.690  0.00  0.00    +0.009 C 
BRANCH  26  27
ATOM     27  N   UNL A   1      42.390 -20.594 -33.329  0.00  0.00    -0.343 N 
ATOM     28  H   UNL A   1      42.887 -20.910 -32.540  0.00  0.00    +0.000 HD
BRANCH  27  29
ATOM     29  C   UNL A   1      41.046 -20.116 -33.292  0.00  0.00    +0.041 A 
ATOM     30  C   UNL A   1      39.996 -21.030 -33.516  0.00  0.00    -0.005 A 
ATOM     31  C   UNL A   1      38.692 -20.534 -33.501  0.00  0.00    +0.047 A 
ATOM     32  N   UNL A   1      38.400 -19.223 -33.337  0.00  0.00    -0.251 NA
ATOM     33  C   UNL A   1      39.397 -18.351 -33.149  0.00  0.00    +0.074 A 
ATOM     34  C   UNL A   1      39.056 -17.016 -32.983  0.00  0.00    -0.017 A 
ATOM     35  C   UNL A   1      40.028 -16.040 -32.785  0.00  0.00    +0.043 A 
ATOM     36 CL   UNL A   1      39.566 -14.395 -32.586  0.00  0.00    -0.083 Cl
ATOM     37  C   UNL A   1      41.370 -16.387 -32.749  0.00  0.00    -0.043 A 
ATOM     38  C   UNL A   1      41.731 -17.724 -32.914  0.00  0.00    -0.049 A 
ATOM     39  C   UNL A   1      40.754 -18.732 -33.118  0.00  0.00    +0.022 A 
ATOM     40  C   UNL A   1      37.501 -21.431 -33.724  0.00  0.00    -0.010 C 
ATOM     41  C   UNL A   1      37.792 -22.898 -33.435  0.00  0.00    -0.047 C 
ATOM     42  C   UNL A   1      39.067 -23.319 -34.150  0.00  0.00    -0.049 C 
ATOM     43  C   UNL A   1      40.261 -22.512 -33.642  0.00  0.00    -0.024 C 
ENDBRANCH  27  29
ENDBRANCH  26  27
ENDBRANCH  25  26
ENDBRANCH  24  25
ENDBRANCH  23  24
ENDBRANCH   1  23
TORSDOF 11
ENDMDL
MODEL 15
REMARK VINA RESULT:    -6.523     18.050     22.902
REMARK INTER + INTRA:         -14.905
REMARK INTER:                 -11.313
REMARK INTRA:                  -3.592
REMARK UNBOUND:                -4.187
REMARK  Name = cpd178.pdb
REMARK  13 active torsions:
REMARK  status: ('A' for Active; 'I' for Inactive)
REMARK    1  A    between atoms: C_1  and  C_2
REMARK    2  A    between atoms: C_6  and  N_7
REMARK    3  A    between atoms: N_7  and  C_8
REMARK    4  A    between atoms: C_13  and  C_14
REMARK    5  A    between atoms: N_16  and  C_17
REMARK    6  A    between atoms: C_17  and  C_18
REMARK    7  A    between atoms: C_18  and  C_19
REMARK    8  A    between atoms: C_19  and  C_20
REMARK    9  A    between atoms: C_20  and  C_21
REMARK   10  A    between atoms: C_21  and  C_22
REMARK   11  A    between atoms: C_22  and  N_23
REMARK   12  A    between atoms: N_23  and  C_24
REMARK   13  A    between atoms: C_39  and  C_40
REMARK                            x       y       z     vdW  Elec       q    Type
REMARK                         _______ _______ _______ _____ _____    ______ ____
ROOT
ATOM      1  C   UNL A   1      42.814 -15.562 -36.364  0.00  0.00    -0.037 C 
ENDROOT
BRANCH   1   2
ATOM      2  C   UNL A   1      43.365 -16.929 -35.968  0.00  0.00    +0.012 C 
BRANCH   2   5
ATOM      3  C   UNL A   1      43.334 -19.270 -36.704  0.00  0.00    +0.246 C 
ATOM      4  O   UNL A   1      44.199 -19.595 -35.897  0.00  0.00    -0.270 OA
ATOM      5  N   UNL A   1      42.887 -17.970 -36.856  0.00  0.00    -0.311 N 
ATOM      6  H   UNL A   1      42.242 -17.752 -37.567  0.00  0.00    +0.000 HD
BRANCH   3  12
ATOM      7  C   UNL A   1      41.969 -21.372 -36.938  0.00  0.00    +0.044 A 
ATOM      8  C   UNL A   1      41.297 -22.279 -37.776  0.00  0.00    -0.040 A 
ATOM      9  C   UNL A   1      41.384 -22.186 -39.167  0.00  0.00    -0.060 A 
ATOM     10  C   UNL A   1      42.128 -21.168 -39.752  0.00  0.00    -0.061 A 
ATOM     11  C   UNL A   1      42.766 -20.225 -38.948  0.00  0.00    -0.048 A 
ATOM     12  C   UNL A   1      42.666 -20.303 -37.547  0.00  0.00    +0.058 A 
BRANCH   7  13
ATOM     13  N   UNL A   1      41.812 -21.446 -35.526  0.00  0.00    -0.314 N 
ATOM     14  H   UNL A   1      42.624 -21.291 -34.990  0.00  0.00    +0.000 HD
BRANCH  13  20
ATOM     15  C   UNL A   1      38.029 -19.828 -32.685  0.00  0.00    -0.039 C 
ATOM     16  C   UNL A   1      38.810 -20.925 -33.356  0.00  0.00    -0.046 A 
ATOM     17  C   UNL A   1      38.420 -22.256 -33.145  0.00  0.00    -0.058 A 
ATOM     18  C   UNL A   1      39.129 -23.305 -33.721  0.00  0.00    -0.060 A 
ATOM     19  C   UNL A   1      40.233 -23.036 -34.525  0.00  0.00    -0.040 A 
ATOM     20  C   UNL A   1      40.622 -21.717 -34.797  0.00  0.00    +0.035 A 
ATOM     21  C   UNL A   1      39.912 -20.648 -34.200  0.00  0.00    -0.026 A 
ATOM     22  C   UNL A   1      40.371 -19.227 -34.425  0.00  0.00    -0.038 C 
ENDBRANCH  13  20
ENDBRANCH   7  13
ENDBRANCH   3  12
ENDBRANCH   2   5
ENDBRANCH   1   2
BRANCH   1  23
ATOM     23  C   UNL A   1      43.906 -14.549 -36.720  0.00  0.00    -0.052 C 
BRANCH  23  24
ATOM     24  C   UNL A   1      44.555 -14.818 -38.079  0.00  0.00    -0.052 C 
BRANCH  24  25
ATOM     25  C   UNL A   1      43.557 -15.122 -39.204  0.00  0.00    -0.037 C 
BRANCH  25  26
ATOM     26  C   UNL A   1      43.692 -16.513 -39.830  0.00  0.00    +0.009 C 
BRANCH  26  27
ATOM     27  N   UNL A   1      45.042 -16.708 -40.374  0.00  0.00    -0.343 N 
ATOM     28  H   UNL A   1      45.526 -16.036 -40.906  0.00  0.00    +0.000 HD
BRANCH  27  29
ATOM     29  C   UNL A   1      45.566 -17.992 -40.034  0.00  0.00    +0.041 A 
ATOM     30  C   UNL A   1      45.297 -19.080 -40.889  0.00  0.00    -0.005 A 
ATOM     31  C   UNL A   1      45.797 -20.330 -40.522  0.00  0.00    +0.047 A 
ATOM     32  N   UNL A   1      46.474 -20.548 -39.371  0.00  0.00    -0.251 NA
ATOM     33  C   UNL A   1      46.709 -19.521 -38.547  0.00  0.00    +0.074 A 
ATOM     34  C   UNL A   1      47.407 -19.785 -37.378  0.00  0.00    -0.017 A 
ATOM     35  C   UNL A   1      47.694 -18.778 -36.463  0.00  0.00    +0.043 A 
ATOM     36 CL   UNL A   1      48.560 -19.146 -35.023  0.00  0.00    -0.083 Cl
ATOM     37  C   UNL A   1      47.283 -17.476 -36.704  0.00  0.00    -0.043 A 
ATOM     38  C   UNL A   1      46.580 -17.191 -37.874  0.00  0.00    -0.049 A 
ATOM     39  C   UNL A   1      46.278 -18.205 -38.818  0.00  0.00    +0.022 A 
ATOM     40  C   UNL A   1      45.567 -21.554 -41.372  0.00  0.00    -0.010 C 
ATOM     41  C   UNL A   1      45.246 -21.226 -42.824  0.00  0.00    -0.047 C 
ATOM     42  C   UNL A   1      44.145 -20.178 -42.882  0.00  0.00    -0.049 C 
ATOM     43  C   UNL A   1      44.600 -18.881 -42.215  0.00  0.00    -0.024 C 
ENDBRANCH  27  29
ENDBRANCH  26  27
ENDBRANCH  25  26
ENDBRANCH  24  25
ENDBRANCH  23  24
ENDBRANCH   1  23
TORSDOF 11
ENDMDL
MODEL 16
REMARK VINA RESULT:    -6.414     18.536     21.805
REMARK INTER + INTRA:         -14.726
REMARK INTER:                  -9.774
REMARK INTRA:                  -4.952
REMARK UNBOUND:                -4.187
REMARK  Name = cpd178.pdb
REMARK  13 active torsions:
REMARK  status: ('A' for Active; 'I' for Inactive)
REMARK    1  A    between atoms: C_1  and  C_2
REMARK    2  A    between atoms: C_6  and  N_7
REMARK    3  A    between atoms: N_7  and  C_8
REMARK    4  A    between atoms: C_13  and  C_14
REMARK    5  A    between atoms: N_16  and  C_17
REMARK    6  A    between atoms: C_17  and  C_18
REMARK    7  A    between atoms: C_18  and  C_19
REMARK    8  A    between atoms: C_19  and  C_20
REMARK    9  A    between atoms: C_20  and  C_21
REMARK   10  A    between atoms: C_21  and  C_22
REMARK   11  A    between atoms: C_22  and  N_23
REMARK   12  A    between atoms: N_23  and  C_24
REMARK   13  A    between atoms: C_39  and  C_40
REMARK                            x       y       z     vdW  Elec       q    Type
REMARK                         _______ _______ _______ _____ _____    ______ ____
ROOT
ATOM      1  C   UNL A   1      46.197 -18.431 -35.715  0.00  0.00    -0.037 C 
ENDROOT
BRANCH   1   2
ATOM      2  C   UNL A   1      47.216 -18.622 -36.835  0.00  0.00    +0.012 C 
BRANCH   2   5
ATOM      3  C   UNL A   1      46.016 -19.030 -38.936  0.00  0.00    +0.246 C 
ATOM      4  O   UNL A   1      45.703 -17.850 -39.054  0.00  0.00    -0.270 OA
ATOM      5  N   UNL A   1      46.720 -19.525 -37.853  0.00  0.00    -0.311 N 
ATOM      6  H   UNL A   1      46.884 -20.493 -37.775  0.00  0.00    +0.000 HD
BRANCH   3  12
ATOM      7  C   UNL A   1      44.347 -20.372 -40.260  0.00  0.00    +0.044 A 
ATOM      8  C   UNL A   1      44.086 -21.239 -41.335  0.00  0.00    -0.040 A 
ATOM      9  C   UNL A   1      45.124 -21.797 -42.086  0.00  0.00    -0.060 A 
ATOM     10  C   UNL A   1      46.445 -21.480 -41.794  0.00  0.00    -0.061 A 
ATOM     11  C   UNL A   1      46.732 -20.585 -40.764  0.00  0.00    -0.048 A 
ATOM     12  C   UNL A   1      45.690 -20.006 -40.017  0.00  0.00    +0.058 A 
BRANCH   7  13
ATOM     13  N   UNL A   1      43.273 -19.764 -39.551  0.00  0.00    -0.314 N 
ATOM     14  H   UNL A   1      43.321 -18.786 -39.444  0.00  0.00    +0.000 HD
BRANCH  13  20
ATOM     15  C   UNL A   1      41.225 -22.397 -35.826  0.00  0.00    -0.039 C 
ATOM     16  C   UNL A   1      41.163 -21.743 -37.179  0.00  0.00    -0.046 A 
ATOM     17  C   UNL A   1      39.993 -21.883 -37.942  0.00  0.00    -0.058 A 
ATOM     18  C   UNL A   1      39.901 -21.322 -39.211  0.00  0.00    -0.060 A 
ATOM     19  C   UNL A   1      40.974 -20.603 -39.732  0.00  0.00    -0.040 A 
ATOM     20  C   UNL A   1      42.139 -20.401 -38.978  0.00  0.00    +0.035 A 
ATOM     21  C   UNL A   1      42.242 -20.985 -37.693  0.00  0.00    -0.026 A 
ATOM     22  C   UNL A   1      43.523 -20.838 -36.905  0.00  0.00    -0.038 C 
ENDBRANCH  13  20
ENDBRANCH   7  13
ENDBRANCH   3  12
ENDBRANCH   2   5
ENDBRANCH   1   2
BRANCH   1  23
ATOM     23  C   UNL A   1      46.270 -17.048 -35.060  0.00  0.00    -0.052 C 
BRANCH  23  24
ATOM     24  C   UNL A   1      44.943 -16.287 -35.114  0.00  0.00    -0.052 C 
BRANCH  24  25
ATOM     25  C   UNL A   1      44.149 -16.313 -33.803  0.00  0.00    -0.037 C 
BRANCH  25  26
ATOM     26  C   UNL A   1      42.718 -16.846 -33.923  0.00  0.00    +0.009 C 
BRANCH  26  27
ATOM     27  N   UNL A   1      42.700 -18.118 -34.658  0.00  0.00    -0.343 N 
ATOM     28  H   UNL A   1      43.471 -18.726 -34.731  0.00  0.00    +0.000 HD
BRANCH  27  29
ATOM     29  C   UNL A   1      41.426 -18.363 -35.254  0.00  0.00    +0.041 A 
ATOM     30  C   UNL A   1      41.142 -17.781 -36.507  0.00  0.00    -0.005 A 
ATOM     31  C   UNL A   1      39.881 -18.013 -37.057  0.00  0.00    +0.047 A 
ATOM     32  N   UNL A   1      38.915 -18.717 -36.424  0.00  0.00    -0.251 NA
ATOM     33  C   UNL A   1      39.175 -19.249 -35.224  0.00  0.00    +0.074 A 
ATOM     34  C   UNL A   1      38.159 -19.966 -34.608  0.00  0.00    -0.017 A 
ATOM     35  C   UNL A   1      38.341 -20.551 -33.359  0.00  0.00    +0.043 A 
ATOM     36 CL   UNL A   1      37.056 -21.430 -32.627  0.00  0.00    -0.083 Cl
ATOM     37  C   UNL A   1      39.554 -20.428 -32.699  0.00  0.00    -0.043 A 
ATOM     38  C   UNL A   1      40.586 -19.712 -33.303  0.00  0.00    -0.049 A 
ATOM     39  C   UNL A   1      40.419 -19.108 -34.575  0.00  0.00    +0.022 A 
ATOM     40  C   UNL A   1      39.482 -17.440 -38.393  0.00  0.00    -0.010 C 
ATOM     41  C   UNL A   1      40.674 -17.079 -39.271  0.00  0.00    -0.047 C 
ATOM     42  C   UNL A   1      41.665 -16.245 -38.475  0.00  0.00    -0.049 C 
ATOM     43  C   UNL A   1      42.204 -17.038 -37.285  0.00  0.00    -0.024 C 
ENDBRANCH  27  29
ENDBRANCH  26  27
ENDBRANCH  25  26
ENDBRANCH  24  25
ENDBRANCH  23  24
ENDBRANCH   1  23
TORSDOF 11
ENDMDL
MODEL 17
REMARK VINA RESULT:    -6.259     17.492     21.309
REMARK INTER + INTRA:         -14.472
REMARK INTER:                 -11.730
REMARK INTRA:                  -2.742
REMARK UNBOUND:                -4.187
REMARK  Name = cpd178.pdb
REMARK  13 active torsions:
REMARK  status: ('A' for Active; 'I' for Inactive)
REMARK    1  A    between atoms: C_1  and  C_2
REMARK    2  A    between atoms: C_6  and  N_7
REMARK    3  A    between atoms: N_7  and  C_8
REMARK    4  A    between atoms: C_13  and  C_14
REMARK    5  A    between atoms: N_16  and  C_17
REMARK    6  A    between atoms: C_17  and  C_18
REMARK    7  A    between atoms: C_18  and  C_19
REMARK    8  A    between atoms: C_19  and  C_20
REMARK    9  A    between atoms: C_20  and  C_21
REMARK   10  A    between atoms: C_21  and  C_22
REMARK   11  A    between atoms: C_22  and  N_23
REMARK   12  A    between atoms: N_23  and  C_24
REMARK   13  A    between atoms: C_39  and  C_40
REMARK                            x       y       z     vdW  Elec       q    Type
REMARK                         _______ _______ _______ _____ _____    ______ ____
ROOT
ATOM      1  C   UNL A   1      40.330 -19.068 -36.396  0.00  0.00    -0.037 C 
ENDROOT
BRANCH   1   2
ATOM      2  C   UNL A   1      41.309 -18.746 -37.521  0.00  0.00    +0.012 C 
BRANCH   2   5
ATOM      3  C   UNL A   1      43.517 -19.631 -36.920  0.00  0.00    +0.246 C 
ATOM      4  O   UNL A   1      43.185 -20.787 -37.165  0.00  0.00    -0.270 OA
ATOM      5  N   UNL A   1      42.653 -18.556 -37.015  0.00  0.00    -0.311 N 
ATOM      6  H   UNL A   1      42.952 -17.659 -36.738  0.00  0.00    +0.000 HD
BRANCH   3  12
ATOM      7  C   UNL A   1      45.957 -19.438 -37.511  0.00  0.00    +0.044 A 
ATOM      8  C   UNL A   1      47.257 -19.062 -37.133  0.00  0.00    -0.040 A 
ATOM      9  C   UNL A   1      47.548 -18.668 -35.824  0.00  0.00    -0.060 A 
ATOM     10  C   UNL A   1      46.538 -18.618 -34.870  0.00  0.00    -0.061 A 
ATOM     11  C   UNL A   1      45.229 -18.938 -35.229  0.00  0.00    -0.048 A 
ATOM     12  C   UNL A   1      44.928 -19.317 -36.549  0.00  0.00    +0.058 A 
BRANCH   7  13
ATOM     13  N   UNL A   1      45.671 -19.772 -38.865  0.00  0.00    -0.314 N 
ATOM     14  H   UNL A   1      44.792 -19.487 -39.207  0.00  0.00    +0.000 HD
BRANCH  13  20
ATOM     15  C   UNL A   1      48.710 -19.718 -42.835  0.00  0.00    -0.039 C 
ATOM     16  C   UNL A   1      47.940 -20.440 -41.763  0.00  0.00    -0.046 A 
ATOM     17  C   UNL A   1      47.948 -21.843 -41.757  0.00  0.00    -0.058 A 
ATOM     18  C   UNL A   1      47.226 -22.554 -40.804  0.00  0.00    -0.060 A 
ATOM     19  C   UNL A   1      46.495 -21.871 -39.836  0.00  0.00    -0.040 A 
ATOM     20  C   UNL A   1      46.504 -20.470 -39.782  0.00  0.00    +0.035 A 
ATOM     21  C   UNL A   1      47.224 -19.743 -40.760  0.00  0.00    -0.026 A 
ATOM     22  C   UNL A   1      47.177 -18.234 -40.756  0.00  0.00    -0.038 C 
ENDBRANCH  13  20
ENDBRANCH   7  13
ENDBRANCH   3  12
ENDBRANCH   2   5
ENDBRANCH   1   2
BRANCH   1  23
ATOM     23  C   UNL A   1      39.271 -20.101 -36.792  0.00  0.00    -0.052 C 
BRANCH  23  24
ATOM     24  C   UNL A   1      39.657 -21.533 -36.413  0.00  0.00    -0.052 C 
BRANCH  24  25
ATOM     25  C   UNL A   1      40.686 -21.627 -35.279  0.00  0.00    -0.037 C 
BRANCH  25  26
ATOM     26  C   UNL A   1      40.174 -22.281 -33.993  0.00  0.00    +0.009 C 
BRANCH  26  27
ATOM     27  N   UNL A   1      40.604 -21.514 -32.816  0.00  0.00    -0.343 N 
ATOM     28  H   UNL A   1      41.196 -21.866 -32.113  0.00  0.00    +0.000 HD
BRANCH  27  29
ATOM     29  C   UNL A   1      40.056 -20.196 -32.819  0.00  0.00    +0.041 A 
ATOM     30  C   UNL A   1      40.939 -19.097 -32.782  0.00  0.00    -0.005 A 
ATOM     31  C   UNL A   1      40.380 -17.819 -32.759  0.00  0.00    +0.047 A 
ATOM     32  N   UNL A   1      39.047 -17.594 -32.717  0.00  0.00    -0.251 NA
ATOM     33  C   UNL A   1      38.208 -18.637 -32.727  0.00  0.00    +0.074 A 
ATOM     34  C   UNL A   1      36.849 -18.365 -32.684  0.00  0.00    -0.017 A 
ATOM     35  C   UNL A   1      35.906 -19.387 -32.689  0.00  0.00    +0.043 A 
ATOM     36 CL   UNL A   1      34.228 -19.010 -32.633  0.00  0.00    -0.083 Cl
ATOM     37  C   UNL A   1      36.311 -20.713 -32.736  0.00  0.00    -0.043 A 
ATOM     38  C   UNL A   1      37.673 -21.005 -32.780  0.00  0.00    -0.049 A 
ATOM     39  C   UNL A   1      38.650 -19.975 -32.775  0.00  0.00    +0.022 A 
ATOM     40  C   UNL A   1      41.239 -16.580 -32.724  0.00  0.00    -0.010 C 
ATOM     41  C   UNL A   1      42.654 -16.816 -33.238  0.00  0.00    -0.047 C 
ATOM     42  C   UNL A   1      43.250 -18.039 -32.560  0.00  0.00    -0.049 C 
ATOM     43  C   UNL A   1      42.434 -19.289 -32.890  0.00  0.00    -0.024 C 
ENDBRANCH  27  29
ENDBRANCH  26  27
ENDBRANCH  25  26
ENDBRANCH  24  25
ENDBRANCH  23  24
ENDBRANCH   1  23
TORSDOF 11
ENDMDL
MODEL 18
REMARK VINA RESULT:    -6.143     18.574     21.873
REMARK INTER + INTRA:         -14.281
REMARK INTER:                 -10.998
REMARK INTRA:                  -3.283
REMARK UNBOUND:                -4.187
REMARK  Name = cpd178.pdb
REMARK  13 active torsions:
REMARK  status: ('A' for Active; 'I' for Inactive)
REMARK    1  A    between atoms: C_1  and  C_2
REMARK    2  A    between atoms: C_6  and  N_7
REMARK    3  A    between atoms: N_7  and  C_8
REMARK    4  A    between atoms: C_13  and  C_14
REMARK    5  A    between atoms: N_16  and  C_17
REMARK    6  A    between atoms: C_17  and  C_18
REMARK    7  A    between atoms: C_18  and  C_19
REMARK    8  A    between atoms: C_19  and  C_20
REMARK    9  A    between atoms: C_20  and  C_21
REMARK   10  A    between atoms: C_21  and  C_22
REMARK   11  A    between atoms: C_22  and  N_23
REMARK   12  A    between atoms: N_23  and  C_24
REMARK   13  A    between atoms: C_39  and  C_40
REMARK                            x       y       z     vdW  Elec       q    Type
REMARK                         _______ _______ _______ _____ _____    ______ ____
ROOT
ATOM      1  C   UNL A   1      46.110 -17.413 -36.812  0.00  0.00    -0.037 C 
ENDROOT
BRANCH   1   2
ATOM      2  C   UNL A   1      47.035 -18.615 -36.649  0.00  0.00    +0.012 C 
BRANCH   2   5
ATOM      3  C   UNL A   1      46.380 -20.440 -38.154  0.00  0.00    +0.246 C 
ATOM      4  O   UNL A   1      45.587 -20.903 -37.341  0.00  0.00    -0.270 OA
ATOM      5  N   UNL A   1      47.181 -19.343 -37.894  0.00  0.00    -0.311 N 
ATOM      6  H   UNL A   1      47.851 -19.055 -38.556  0.00  0.00    +0.000 HD
BRANCH   3  12
ATOM      7  C   UNL A   1      45.509 -20.711 -40.500  0.00  0.00    +0.044 A 
ATOM      8  C   UNL A   1      45.688 -21.229 -41.795  0.00  0.00    -0.040 A 
ATOM      9  C   UNL A   1      46.740 -22.101 -42.089  0.00  0.00    -0.060 A 
ATOM     10  C   UNL A   1      47.651 -22.454 -41.100  0.00  0.00    -0.061 A 
ATOM     11  C   UNL A   1      47.527 -21.916 -39.820  0.00  0.00    -0.048 A 
ATOM     12  C   UNL A   1      46.481 -21.024 -39.523  0.00  0.00    +0.058 A 
BRANCH   7  13
ATOM     13  N   UNL A   1      44.470 -19.774 -40.239  0.00  0.00    -0.314 N 
ATOM     14  H   UNL A   1      43.575 -20.151 -40.075  0.00  0.00    +0.000 HD
BRANCH  13  20
ATOM     15  C   UNL A   1      42.553 -15.356 -38.893  0.00  0.00    -0.039 C 
ATOM     16  C   UNL A   1      43.594 -16.197 -39.579  0.00  0.00    -0.046 A 
ATOM     17  C   UNL A   1      44.617 -15.553 -40.293  0.00  0.00    -0.058 A 
ATOM     18  C   UNL A   1      45.585 -16.289 -40.969  0.00  0.00    -0.060 A 
ATOM     19  C   UNL A   1      45.550 -17.680 -40.931  0.00  0.00    -0.040 A 
ATOM     20  C   UNL A   1      44.572 -18.356 -40.187  0.00  0.00    +0.035 A 
ATOM     21  C   UNL A   1      43.576 -17.611 -39.513  0.00  0.00    -0.026 A 
ATOM     22  C   UNL A   1      42.474 -18.332 -38.773  0.00  0.00    -0.038 C 
ENDBRANCH  13  20
ENDBRANCH   7  13
ENDBRANCH   3  12
ENDBRANCH   2   5
ENDBRANCH   1   2
BRANCH   1  23
ATOM     23  C   UNL A   1      45.050 -17.310 -35.711  0.00  0.00    -0.052 C 
BRANCH  23  24
ATOM     24  C   UNL A   1      44.867 -18.614 -34.930  0.00  0.00    -0.052 C 
BRANCH  24  25
ATOM     25  C   UNL A   1      43.540 -19.332 -35.205  0.00  0.00    -0.037 C 
BRANCH  25  26
ATOM     26  C   UNL A   1      42.918 -20.031 -33.993  0.00  0.00    +0.009 C 
BRANCH  26  27
ATOM     27  N   UNL A   1      42.320 -21.314 -34.386  0.00  0.00    -0.343 N 
ATOM     28  H   UNL A   1      42.682 -22.194 -34.134  0.00  0.00    +0.000 HD
BRANCH  27  29
ATOM     29  C   UNL A   1      41.147 -21.126 -35.179  0.00  0.00    +0.041 A 
ATOM     30  C   UNL A   1      39.939 -20.795 -34.533  0.00  0.00    -0.005 A 
ATOM     31  C   UNL A   1      38.801 -20.643 -35.326  0.00  0.00    +0.047 A 
ATOM     32  N   UNL A   1      38.798 -20.849 -36.663  0.00  0.00    -0.251 NA
ATOM     33  C   UNL A   1      39.939 -21.187 -37.274  0.00  0.00    +0.074 A 
ATOM     34  C   UNL A   1      39.894 -21.388 -38.646  0.00  0.00    -0.017 A 
ATOM     35  C   UNL A   1      41.032 -21.744 -39.363  0.00  0.00    +0.043 A 
ATOM     36 CL   UNL A   1      40.936 -21.987 -41.064  0.00  0.00    -0.083 Cl
ATOM     37  C   UNL A   1      42.246 -21.907 -38.713  0.00  0.00    -0.043 A 
ATOM     38  C   UNL A   1      42.310 -21.709 -37.335  0.00  0.00    -0.049 A 
ATOM     39  C   UNL A   1      41.160 -21.346 -36.587  0.00  0.00    +0.022 A 
ATOM     40  C   UNL A   1      37.464 -20.285 -34.730  0.00  0.00    -0.010 C 
ATOM     41  C   UNL A   1      37.574 -19.613 -33.368  0.00  0.00    -0.047 C 
ATOM     42  C   UNL A   1      38.490 -20.426 -32.466  0.00  0.00    -0.049 C 
ATOM     43  C   UNL A   1      39.900 -20.493 -33.052  0.00  0.00    -0.024 C 
ENDBRANCH  27  29
ENDBRANCH  26  27
ENDBRANCH  25  26
ENDBRANCH  24  25
ENDBRANCH  23  24
ENDBRANCH   1  23
TORSDOF 11
ENDMDL
MODEL 19
REMARK VINA RESULT:    -6.139     20.173     23.727
REMARK INTER + INTRA:         -14.274
REMARK INTER:                  -9.982
REMARK INTRA:                  -4.292
REMARK UNBOUND:                -4.187
REMARK  Name = cpd178.pdb
REMARK  13 active torsions:
REMARK  status: ('A' for Active; 'I' for Inactive)
REMARK    1  A    between atoms: C_1  and  C_2
REMARK    2  A    between atoms: C_6  and  N_7
REMARK    3  A    between atoms: N_7  and  C_8
REMARK    4  A    between atoms: C_13  and  C_14
REMARK    5  A    between atoms: N_16  and  C_17
REMARK    6  A    between atoms: C_17  and  C_18
REMARK    7  A    between atoms: C_18  and  C_19
REMARK    8  A    between atoms: C_19  and  C_20
REMARK    9  A    between atoms: C_20  and  C_21
REMARK   10  A    between atoms: C_21  and  C_22
REMARK   11  A    between atoms: C_22  and  N_23
REMARK   12  A    between atoms: N_23  and  C_24
REMARK   13  A    between atoms: C_39  and  C_40
REMARK                            x       y       z     vdW  Elec       q    Type
REMARK                         _______ _______ _______ _____ _____    ______ ____
ROOT
ATOM      1  C   UNL A   1      45.557 -13.647 -39.157  0.00  0.00    -0.037 C 
ENDROOT
BRANCH   1   2
ATOM      2  C   UNL A   1      46.757 -14.471 -38.702  0.00  0.00    +0.012 C 
BRANCH   2   5
ATOM      3  C   UNL A   1      47.100 -16.422 -37.254  0.00  0.00    +0.246 C 
ATOM      4  O   UNL A   1      48.164 -15.988 -36.824  0.00  0.00    -0.270 OA
ATOM      5  N   UNL A   1      46.351 -15.776 -38.220  0.00  0.00    -0.311 N 
ATOM      6  H   UNL A   1      45.540 -16.203 -38.581  0.00  0.00    +0.000 HD
BRANCH   3  12
ATOM      7  C   UNL A   1      46.467 -18.848 -37.492  0.00  0.00    +0.044 A 
ATOM      8  C   UNL A   1      45.978 -20.024 -36.898  0.00  0.00    -0.040 A 
ATOM      9  C   UNL A   1      45.475 -20.025 -35.594  0.00  0.00    -0.060 A 
ATOM     10  C   UNL A   1      45.472 -18.853 -34.847  0.00  0.00    -0.061 A 
ATOM     11  C   UNL A   1      45.996 -17.682 -35.392  0.00  0.00    -0.048 A 
ATOM     12  C   UNL A   1      46.521 -17.679 -36.697  0.00  0.00    +0.058 A 
BRANCH   7  13
ATOM     13  N   UNL A   1      47.035 -18.884 -38.796  0.00  0.00    -0.314 N 
ATOM     14  H   UNL A   1      47.751 -18.232 -38.977  0.00  0.00    +0.000 HD
BRANCH  13  20
ATOM     15  C   UNL A   1      44.358 -19.791 -42.921  0.00  0.00    -0.039 C 
ATOM     16  C   UNL A   1      45.330 -20.208 -41.851  0.00  0.00    -0.046 A 
ATOM     17  C   UNL A   1      45.804 -21.529 -41.849  0.00  0.00    -0.058 A 
ATOM     18  C   UNL A   1      46.680 -21.969 -40.863  0.00  0.00    -0.060 A 
ATOM     19  C   UNL A   1      47.104 -21.090 -39.870  0.00  0.00    -0.040 A 
ATOM     20  C   UNL A   1      46.691 -19.750 -39.870  0.00  0.00    +0.035 A 
ATOM     21  C   UNL A   1      45.786 -19.304 -40.862  0.00  0.00    -0.026 A 
ATOM     22  C   UNL A   1      45.274 -17.883 -40.824  0.00  0.00    -0.038 C 
ENDBRANCH  13  20
ENDBRANCH   7  13
ENDBRANCH   3  12
ENDBRANCH   2   5
ENDBRANCH   1   2
BRANCH   1  23
ATOM     23  C   UNL A   1      44.839 -14.243 -40.371  0.00  0.00    -0.052 C 
BRANCH  23  24
ATOM     24  C   UNL A   1      43.350 -14.497 -40.124  0.00  0.00    -0.052 C 
BRANCH  24  25
ATOM     25  C   UNL A   1      42.959 -14.552 -38.642  0.00  0.00    -0.037 C 
BRANCH  25  26
ATOM     26  C   UNL A   1      42.244 -15.835 -38.207  0.00  0.00    +0.009 C 
BRANCH  26  27
ATOM     27  N   UNL A   1      43.188 -16.762 -37.569  0.00  0.00    -0.343 N 
ATOM     28  H   UNL A   1      44.166 -16.646 -37.573  0.00  0.00    +0.000 HD
BRANCH  27  29
ATOM     29  C   UNL A   1      42.513 -17.853 -36.943  0.00  0.00    +0.041 A 
ATOM     30  C   UNL A   1      42.238 -17.776 -35.562  0.00  0.00    -0.005 A 
ATOM     31  C   UNL A   1      41.601 -18.865 -34.967  0.00  0.00    +0.047 A 
ATOM     32  N   UNL A   1      41.287 -19.997 -35.639  0.00  0.00    -0.251 NA
ATOM     33  C   UNL A   1      41.569 -20.081 -36.944  0.00  0.00    +0.074 A 
ATOM     34  C   UNL A   1      41.230 -21.257 -37.597  0.00  0.00    -0.017 A 
ATOM     35  C   UNL A   1      41.489 -21.432 -38.953  0.00  0.00    +0.043 A 
ATOM     36 CL   UNL A   1      41.056 -22.907 -39.727  0.00  0.00    -0.083 Cl
ATOM     37  C   UNL A   1      42.096 -20.423 -39.686  0.00  0.00    -0.043 A 
ATOM     38  C   UNL A   1      42.443 -19.234 -39.046  0.00  0.00    -0.049 A 
ATOM     39  C   UNL A   1      42.188 -19.038 -37.664  0.00  0.00    +0.022 A 
ATOM     40  C   UNL A   1      41.260 -18.877 -33.499  0.00  0.00    -0.010 C 
ATOM     41  C   UNL A   1      41.178 -17.484 -32.890  0.00  0.00    -0.047 C 
ATOM     42  C   UNL A   1      42.417 -16.686 -33.263  0.00  0.00    -0.049 C 
ATOM     43  C   UNL A   1      42.510 -16.513 -34.778  0.00  0.00    -0.024 C 
ENDBRANCH  27  29
ENDBRANCH  26  27
ENDBRANCH  25  26
ENDBRANCH  24  25
ENDBRANCH  23  24
ENDBRANCH   1  23
TORSDOF 11
ENDMDL
MODEL 20
REMARK VINA RESULT:    -6.055     17.881     21.912
REMARK INTER + INTRA:         -14.137
REMARK INTER:                 -11.050
REMARK INTRA:                  -3.086
REMARK UNBOUND:                -4.187
REMARK  Name = cpd178.pdb
REMARK  13 active torsions:
REMARK  status: ('A' for Active; 'I' for Inactive)
REMARK    1  A    between atoms: C_1  and  C_2
REMARK    2  A    between atoms: C_6  and  N_7
REMARK    3  A    between atoms: N_7  and  C_8
REMARK    4  A    between atoms: C_13  and  C_14
REMARK    5  A    between atoms: N_16  and  C_17
REMARK    6  A    between atoms: C_17  and  C_18
REMARK    7  A    between atoms: C_18  and  C_19
REMARK    8  A    between atoms: C_19  and  C_20
REMARK    9  A    between atoms: C_20  and  C_21
REMARK   10  A    between atoms: C_21  and  C_22
REMARK   11  A    between atoms: C_22  and  N_23
REMARK   12  A    between atoms: N_23  and  C_24
REMARK   13  A    between atoms: C_39  and  C_40
REMARK                            x       y       z     vdW  Elec       q    Type
REMARK                         _______ _______ _______ _____ _____    ______ ____
ROOT
ATOM      1  C   UNL A   1      39.791 -20.676 -37.892  0.00  0.00    -0.037 C 
ENDROOT
BRANCH   1   2
ATOM      2  C   UNL A   1      40.731 -20.734 -39.092  0.00  0.00    +0.012 C 
BRANCH   2   5
ATOM      3  C   UNL A   1      42.991 -19.937 -38.564  0.00  0.00    +0.246 C 
ATOM      4  O   UNL A   1      43.324 -21.018 -38.089  0.00  0.00    -0.270 OA
ATOM      5  N   UNL A   1      41.720 -19.675 -39.041  0.00  0.00    -0.311 N 
ATOM      6  H   UNL A   1      41.486 -18.769 -39.347  0.00  0.00    +0.000 HD
BRANCH   3  12
ATOM      7  C   UNL A   1      45.055 -18.961 -39.626  0.00  0.00    +0.044 A 
ATOM      8  C   UNL A   1      45.927 -17.868 -39.772  0.00  0.00    -0.040 A 
ATOM      9  C   UNL A   1      45.807 -16.731 -38.969  0.00  0.00    -0.060 A 
ATOM     10  C   UNL A   1      44.796 -16.651 -38.019  0.00  0.00    -0.061 A 
ATOM     11  C   UNL A   1      43.885 -17.698 -37.886  0.00  0.00    -0.048 A 
ATOM     12  C   UNL A   1      43.990 -18.837 -38.704  0.00  0.00    +0.058 A 
BRANCH   7  13
ATOM     13  N   UNL A   1      45.154 -20.080 -40.499  0.00  0.00    -0.314 N 
ATOM     14  H   UNL A   1      44.397 -20.222 -41.113  0.00  0.00    +0.000 HD
BRANCH  13  20
ATOM     15  C   UNL A   1      47.199 -24.088 -42.681  0.00  0.00    -0.039 C 
ATOM     16  C   UNL A   1      47.178 -23.018 -41.624  0.00  0.00    -0.046 A 
ATOM     17  C   UNL A   1      48.168 -23.036 -40.629  0.00  0.00    -0.058 A 
ATOM     18  C   UNL A   1      48.172 -22.086 -39.613  0.00  0.00    -0.060 A 
ATOM     19  C   UNL A   1      47.192 -21.097 -39.584  0.00  0.00    -0.040 A 
ATOM     20  C   UNL A   1      46.217 -21.020 -40.589  0.00  0.00    +0.035 A 
ATOM     21  C   UNL A   1      46.201 -21.995 -41.614  0.00  0.00    -0.026 A 
ATOM     22  C   UNL A   1      45.109 -21.965 -42.657  0.00  0.00    -0.038 C 
ENDBRANCH  13  20
ENDBRANCH   7  13
ENDBRANCH   3  12
ENDBRANCH   2   5
ENDBRANCH   1   2
BRANCH   1  23
ATOM     23  C   UNL A   1      39.474 -22.055 -37.305  0.00  0.00    -0.052 C 
BRANCH  23  24
ATOM     24  C   UNL A   1      39.249 -22.026 -35.791  0.00  0.00    -0.052 C 
BRANCH  24  25
ATOM     25  C   UNL A   1      40.363 -22.695 -34.976  0.00  0.00    -0.037 C 
BRANCH  25  26
ATOM     26  C   UNL A   1      41.303 -21.729 -34.250  0.00  0.00    +0.009 C 
BRANCH  26  27
ATOM     27  N   UNL A   1      41.900 -20.778 -35.198  0.00  0.00    -0.343 N 
ATOM     28  H   UNL A   1      42.046 -20.966 -36.153  0.00  0.00    +0.000 HD
BRANCH  27  29
ATOM     29  C   UNL A   1      42.243 -19.546 -34.561  0.00  0.00    +0.041 A 
ATOM     30  C   UNL A   1      43.599 -19.165 -34.510  0.00  0.00    -0.005 A 
ATOM     31  C   UNL A   1      43.912 -17.971 -33.860  0.00  0.00    +0.047 A 
ATOM     32  N   UNL A   1      42.988 -17.201 -33.240  0.00  0.00    -0.251 NA
ATOM     33  C   UNL A   1      41.703 -17.575 -33.267  0.00  0.00    +0.074 A 
ATOM     34  C   UNL A   1      40.786 -16.758 -32.621  0.00  0.00    -0.017 A 
ATOM     35  C   UNL A   1      39.430 -17.070 -32.596  0.00  0.00    +0.043 A 
ATOM     36 CL   UNL A   1      38.325 -16.034 -31.782  0.00  0.00    -0.083 Cl
ATOM     37  C   UNL A   1      38.965 -18.216 -33.224  0.00  0.00    -0.043 A 
ATOM     38  C   UNL A   1      39.872 -19.048 -33.878  0.00  0.00    -0.049 A 
ATOM     39  C   UNL A   1      41.258 -18.746 -33.913  0.00  0.00    +0.022 A 
ATOM     40  C   UNL A   1      45.331 -17.474 -33.757  0.00  0.00    -0.010 C 
ATOM     41  C   UNL A   1      46.252 -18.061 -34.819  0.00  0.00    -0.047 C 
ATOM     42  C   UNL A   1      46.093 -19.573 -34.859  0.00  0.00    -0.049 C 
ATOM     43  C   UNL A   1      44.663 -19.954 -35.239  0.00  0.00    -0.024 C 
ENDBRANCH  27  29
ENDBRANCH  26  27
ENDBRANCH  25  26
ENDBRANCH  24  25
ENDBRANCH  23  24
ENDBRANCH   1  23
TORSDOF 11
ENDMDL
