@<TRIPOS>MOLECULE
*****
 36 39 0 0 0
SMALL
GASTEIGER

@<TRIPOS>ATOM
      1 C          -9.5263   -1.5000    0.0000 C.3     1  UNL1        0.0728
      2 C          -9.5263   -2.5000    0.0000 C.2     1  UNL1        0.1597
      3 O         -10.3923   -3.0000    0.0000 O.2     1  UNL1       -0.2955
      4 C          -8.6603   -3.0000    0.0000 C.3     1  UNL1        0.1398
      5 C          -8.6603   -4.0000    0.0000 C.3     1  UNL1        0.0429
      6 C          -7.7942   -4.5000    0.0000 C.ar    1  UNL1       -0.0211
      7 C          -6.9282   -4.0000    0.0000 C.ar    1  UNL1       -0.0010
      8 C          -6.0622   -4.5000    0.0000 C.ar    1  UNL1        0.0417
      9 C          -6.0622   -5.5000    0.0000 C.ar    1  UNL1        0.1957
     10 O          -5.1962   -6.0000    0.0000 O.3     1  UNL1       -0.2866
     11 C          -6.9282   -6.0000    0.0000 C.ar    1  UNL1        0.0417
     12 C          -7.7942   -5.5000    0.0000 C.ar    1  UNL1       -0.0010
     13 C          -7.7942   -2.5000    0.0000 C.2     1  UNL1        0.2483
     14 O          -6.9282   -3.0000    0.0000 O.2     1  UNL1       -0.2729
     15 N          -7.7942   -1.5000    0.0000 N.am    1  UNL1       -0.2051
     16 C          -6.9282   -1.0000    0.0000 C.3     1  UNL1        0.1152
     17 C          -6.0622   -1.5000    0.0000 C.3     1  UNL1        0.0234
     18 C          -5.1962   -1.0000    0.0000 C.3     1  UNL1        0.0019
     19 C          -4.3301   -1.5000    0.0000 C.3     1  UNL1        0.0019
     20 C          -3.4641   -1.0000    0.0000 C.3     1  UNL1        0.0233
     21 C          -2.5981   -1.5000    0.0000 C.3     1  UNL1        0.1122
     22 N          -1.7321   -1.0000    0.0000 N.pl3   1  UNL1       -0.2378
     23 C          -0.8660   -1.5000    0.0000 C.ar    1  UNL1        0.0638
     24 C          -0.0000   -1.0000    0.0000 C.ar    1  UNL1        0.0062
     25 C           0.8660   -1.5000    0.0000 C.ar    1  UNL1        0.0562
     26 N           0.8660   -2.5000    0.0000 N.ar    1  UNL1       -0.2499
     27 C          -0.0000   -3.0000    0.0000 C.ar    1  UNL1        0.0821
     28 C          -0.0000   -4.0000    0.0000 C.ar    1  UNL1        0.0191
     29 C          -0.8660   -4.5000    0.0000 C.ar    1  UNL1        0.0015
     30 C          -1.7321   -4.0000    0.0000 C.ar    1  UNL1        0.0001
     31 C          -1.7321   -3.0000    0.0000 C.ar    1  UNL1        0.0028
     32 C          -0.8660   -2.5000    0.0000 C.ar    1  UNL1        0.0322
     33 C           1.7321   -1.0000    0.0000 C.3     1  UNL1        0.0455
     34 C           1.7321   -0.0000    0.0000 C.3     1  UNL1        0.0066
     35 C           0.8660    0.5000    0.0000 C.3     1  UNL1        0.0052
     36 C           0.0000   -0.0000    0.0000 C.3     1  UNL1        0.0289
@<TRIPOS>BOND
     1     1     2    1
     2     2     3    2
     3     2     4    1
     4     4     5    1
     5     5     6    1
     6     6     7   ar
     7     7     8   ar
     8     8     9   ar
     9     9    10    1
    10     9    11   ar
    11    11    12   ar
    12     6    12   ar
    13     4    13    1
    14    13    14    2
    15    13    15   am
    16    15    16    1
    17    16    17    1
    18    17    18    1
    19    18    19    1
    20    19    20    1
    21    20    21    1
    22    21    22    1
    23    22    23    1
    24    23    24   ar
    25    24    25   ar
    26    25    26   ar
    27    26    27   ar
    28    27    28   ar
    29    28    29   ar
    30    29    30   ar
    31    30    31   ar
    32    31    32   ar
    33    23    32   ar
    34    27    32   ar
    35    25    33    1
    36    33    34    1
    37    34    35    1
    38    35    36    1
    39    24    36    1
