REMARK  Name = cpd140.pdb
REMARK  14 active torsions:
REMARK  status: ('A' for Active; 'I' for Inactive)
REMARK    1  A    between atoms: C_1  and  C_2
REMARK    2  A    between atoms: C_2  and  C_4
REMARK    3  A    between atoms: C_4  and  C_5
REMARK    4  A    between atoms: C_4  and  C_13
REMARK    5  A    between atoms: C_5  and  C_6
REMARK    6  A    between atoms: C_9  and  O_10
REMARK    7  A    between atoms: N_15  and  C_16
REMARK    8  A    between atoms: C_16  and  C_17
REMARK    9  A    between atoms: C_17  and  C_18
REMARK   10  A    between atoms: C_18  and  C_19
REMARK   11  A    between atoms: C_19  and  C_20
REMARK   12  A    between atoms: C_20  and  C_21
REMARK   13  A    between atoms: C_21  and  N_22
REMARK   14  A    between atoms: N_22  and  C_23
REMARK                            x       y       z     vdW  Elec       q    Type
REMARK                         _______ _______ _______ _____ _____    ______ ____
ROOT
ATOM      1  C   UNL A   1      -5.692  -0.006   0.144  0.00  0.00    -0.052 C 
ENDROOT
BRANCH   1   2
ATOM      2  C   UNL A   1      -6.879  -0.805   0.676  0.00  0.00    -0.037 C 
BRANCH   2   3
ATOM      3  C   UNL A   1      -8.224  -0.209   0.273  0.00  0.00    +0.012 C 
BRANCH   3   6
ATOM      4  C   UNL A   1      -9.536  -2.113  -0.572  0.00  0.00    +0.224 C 
ATOM      5  O   UNL A   1      -9.033  -2.040  -1.690  0.00  0.00    -0.275 OA
ATOM      6  N   UNL A   1      -9.274  -1.199   0.428  0.00  0.00    -0.315 N 
ATOM      7  H   UNL A   1      -9.806  -1.219   1.256  0.00  0.00    +0.000 HD
BRANCH   4   8
ATOM      8  C   UNL A   1     -10.515  -3.215  -0.223  0.00  0.00    +0.097 C 
BRANCH   8  10
ATOM      9  C   UNL A   1     -12.631  -1.981  -1.027  0.00  0.00    -0.005 C 
ATOM     10  C   UNL A   1     -11.874  -2.628   0.106  0.00  0.00    +0.142 C 
ATOM     11  O   UNL A   1     -12.320  -2.612   1.255  0.00  0.00    -0.297 OA
ENDBRANCH   8  10
BRANCH   8  12
ATOM     12  C   UNL A   1     -10.006  -4.113   0.916  0.00  0.00    -0.010 C 
BRANCH  12  13
ATOM     13  C   UNL A   1      -8.737  -4.863   0.578  0.00  0.00    -0.046 A 
ATOM     14  C   UNL A   1      -7.523  -4.523   1.194  0.00  0.00    -0.055 A 
ATOM     15  C   UNL A   1      -6.343  -5.194   0.865  0.00  0.00    -0.020 A 
ATOM     16  C   UNL A   1      -6.377  -6.217  -0.076  0.00  0.00    +0.117 A 
ATOM     17  C   UNL A   1      -7.571  -6.579  -0.687  0.00  0.00    -0.020 A 
ATOM     18  C   UNL A   1      -8.750  -5.905  -0.361  0.00  0.00    -0.055 A 
BRANCH  16  19
ATOM     19  O   UNL A   1      -5.249  -6.897  -0.427  0.00  0.00    -0.507 OA
ATOM     20  H   UNL A   1      -4.428  -6.677  -0.033  0.00  0.00    +0.000 HD
ENDBRANCH  16  19
ENDBRANCH  12  13
ENDBRANCH   8  12
ENDBRANCH   4   8
ENDBRANCH   3   6
ENDBRANCH   2   3
ENDBRANCH   1   2
BRANCH   1  21
ATOM     21  C   UNL A   1      -4.379  -0.659   0.582  0.00  0.00    -0.052 C 
BRANCH  21  22
ATOM     22  C   UNL A   1      -3.218  -0.292  -0.340  0.00  0.00    -0.037 C 
BRANCH  22  23
ATOM     23  C   UNL A   1      -1.924  -0.967   0.118  0.00  0.00    +0.009 C 
BRANCH  23  24
ATOM     24  N   UNL A   1      -0.972  -0.996  -0.999  0.00  0.00    -0.343 N 
ATOM     25  H   UNL A   1      -1.154  -0.621  -1.891  0.00  0.00    +0.000 HD
BRANCH  24  26
ATOM     26  C   UNL A   1       0.250  -1.636  -0.632  0.00  0.00    +0.041 A 
ATOM     27  C   UNL A   1       1.356  -0.869  -0.212  0.00  0.00    -0.005 A 
ATOM     28  C   UNL A   1       2.499  -1.559   0.203  0.00  0.00    +0.047 A 
ATOM     29  N   UNL A   1       2.567  -2.909   0.276  0.00  0.00    -0.251 NA
ATOM     30  C   UNL A   1       1.512  -3.637  -0.115  0.00  0.00    +0.073 A 
ATOM     31  C   UNL A   1       1.607  -5.021  -0.049  0.00  0.00    -0.036 A 
ATOM     32  C   UNL A   1       0.565  -5.857  -0.459  0.00  0.00    -0.060 A 
ATOM     33  C   UNL A   1      -0.602  -5.300  -0.958  0.00  0.00    -0.061 A 
ATOM     34  C   UNL A   1      -0.721  -3.912  -1.027  0.00  0.00    -0.051 A 
ATOM     35  C   UNL A   1       0.322  -3.057  -0.592  0.00  0.00    +0.021 A 
ATOM     36  C   UNL A   1       3.738  -0.835   0.664  0.00  0.00    -0.010 C 
ATOM     37  C   UNL A   1       3.812   0.603   0.164  0.00  0.00    -0.047 C 
ATOM     38  C   UNL A   1       2.502   1.314   0.459  0.00  0.00    -0.049 C 
ATOM     39  C   UNL A   1       1.346   0.640  -0.278  0.00  0.00    -0.024 C 
ENDBRANCH  24  26
ENDBRANCH  23  24
ENDBRANCH  22  23
ENDBRANCH  21  22
ENDBRANCH   1  21
TORSDOF 13
