MODEL 1
REMARK VINA RESULT:    -9.248      0.000      0.000
REMARK INTER + INTRA:         -17.387
REMARK INTER:                 -16.006
REMARK INTRA:                  -1.381
REMARK UNBOUND:                -1.381
REMARK  Name = cpd140.pdb
REMARK  14 active torsions:
REMARK  status: ('A' for Active; 'I' for Inactive)
REMARK    1  A    between atoms: C_1  and  C_2
REMARK    2  A    between atoms: C_2  and  C_4
REMARK    3  A    between atoms: C_4  and  C_5
REMARK    4  A    between atoms: C_4  and  C_13
REMARK    5  A    between atoms: C_5  and  C_6
REMARK    6  A    between atoms: C_9  and  O_10
REMARK    7  A    between atoms: N_15  and  C_16
REMARK    8  A    between atoms: C_16  and  C_17
REMARK    9  A    between atoms: C_17  and  C_18
REMARK   10  A    between atoms: C_18  and  C_19
REMARK   11  A    between atoms: C_19  and  C_20
REMARK   12  A    between atoms: C_20  and  C_21
REMARK   13  A    between atoms: C_21  and  N_22
REMARK   14  A    between atoms: N_22  and  C_23
REMARK                            x       y       z     vdW  Elec       q    Type
REMARK                         _______ _______ _______ _____ _____    ______ ____
ROOT
ATOM      1  C   UNL A   1      40.351 -38.172 -29.306  0.00  0.00    -0.052 C 
ENDROOT
BRANCH   1   2
ATOM      2  C   UNL A   1      41.520 -37.711 -30.173  0.00  0.00    -0.037 C 
BRANCH   2   3
ATOM      3  C   UNL A   1      42.415 -38.861 -30.623  0.00  0.00    +0.012 C 
BRANCH   3   6
ATOM      4  C   UNL A   1      44.356 -40.131 -29.799  0.00  0.00    +0.224 C 
ATOM      5  O   UNL A   1      44.247 -40.982 -30.677  0.00  0.00    -0.275 OA
ATOM      6  N   UNL A   1      43.447 -39.107 -29.633  0.00  0.00    -0.315 N 
ATOM      7  H   UNL A   1      43.499 -38.536 -28.833  0.00  0.00    +0.000 HD
BRANCH   4   8
ATOM      8  C   UNL A   1      45.500 -40.170 -28.807  0.00  0.00    +0.097 C 
BRANCH   8  10
ATOM      9  C   UNL A   1      45.130 -41.933 -26.962  0.00  0.00    -0.005 C 
ATOM     10  C   UNL A   1      44.984 -40.503 -27.420  0.00  0.00    +0.142 C 
ATOM     11  O   UNL A   1      44.408 -39.670 -26.718  0.00  0.00    -0.297 OA
ENDBRANCH   8  10
BRANCH   8  12
ATOM     12  C   UNL A   1      46.314 -38.866 -28.799  0.00  0.00    -0.010 C 
BRANCH  12  13
ATOM     13  C   UNL A   1      47.678 -38.997 -29.440  0.00  0.00    -0.046 A 
ATOM     14  C   UNL A   1      48.699 -38.084 -29.136  0.00  0.00    -0.055 A 
ATOM     15  C   UNL A   1      49.951 -38.184 -29.746  0.00  0.00    -0.020 A 
ATOM     16  C   UNL A   1      50.189 -39.208 -30.656  0.00  0.00    +0.117 A 
ATOM     17  C   UNL A   1      49.196 -40.131 -30.961  0.00  0.00    -0.020 A 
ATOM     18  C   UNL A   1      47.943 -40.028 -30.354  0.00  0.00    -0.055 A 
BRANCH  16  19
ATOM     19  O   UNL A   1      51.396 -39.342 -31.275  0.00  0.00    -0.507 OA
ATOM     20  H   UNL A   1      52.167 -39.501 -30.768  0.00  0.00    +0.000 HD
ENDBRANCH  16  19
ENDBRANCH  12  13
ENDBRANCH   8  12
ENDBRANCH   4   8
ENDBRANCH   3   6
ENDBRANCH   2   3
ENDBRANCH   1   2
BRANCH   1  21
ATOM     21  C   UNL A   1      39.150 -37.245 -29.505  0.00  0.00    -0.052 C 
BRANCH  21  22
ATOM     22  C   UNL A   1      39.306 -36.358 -30.739  0.00  0.00    -0.037 C 
BRANCH  22  23
ATOM     23  C   UNL A   1      37.978 -35.691 -31.102  0.00  0.00    +0.009 C 
BRANCH  23  24
ATOM     24  N   UNL A   1      36.932 -36.165 -30.187  0.00  0.00    -0.343 N 
ATOM     25  H   UNL A   1      37.045 -36.245 -29.212  0.00  0.00    +0.000 HD
BRANCH  24  26
ATOM     26  C   UNL A   1      35.732 -36.496 -30.886  0.00  0.00    +0.041 A 
ATOM     27  C   UNL A   1      34.863 -35.478 -31.327  0.00  0.00    -0.005 A 
ATOM     28  C   UNL A   1      33.742 -35.863 -32.069  0.00  0.00    +0.047 A 
ATOM     29  N   UNL A   1      33.493 -37.145 -32.427  0.00  0.00    -0.251 NA
ATOM     30  C   UNL A   1      34.325 -38.111 -32.015  0.00  0.00    +0.073 A 
ATOM     31  C   UNL A   1      34.043 -39.421 -32.378  0.00  0.00    -0.036 A 
ATOM     32  C   UNL A   1      34.842 -40.493 -31.971  0.00  0.00    -0.060 A 
ATOM     33  C   UNL A   1      35.949 -40.255 -31.172  0.00  0.00    -0.061 A 
ATOM     34  C   UNL A   1      36.254 -38.945 -30.801  0.00  0.00    -0.051 A 
ATOM     35  C   UNL A   1      35.462 -37.851 -31.228  0.00  0.00    +0.021 A 
ATOM     36  C   UNL A   1      32.746 -34.855 -32.582  0.00  0.00    -0.010 C 
ATOM     37  C   UNL A   1      32.782 -33.536 -31.819  0.00  0.00    -0.047 C 
ATOM     38  C   UNL A   1      34.215 -33.039 -31.728  0.00  0.00    -0.049 C 
ATOM     39  C   UNL A   1      35.081 -34.031 -30.953  0.00  0.00    -0.024 C 
ENDBRANCH  24  26
ENDBRANCH  23  24
ENDBRANCH  22  23
ENDBRANCH  21  22
ENDBRANCH   1  21
TORSDOF 13
ENDMDL
MODEL 2
REMARK VINA RESULT:    -8.964      0.888      3.291
REMARK INTER + INTRA:         -16.896
REMARK INTER:                 -15.690
REMARK INTRA:                  -1.206
REMARK UNBOUND:                -1.381
REMARK  Name = cpd140.pdb
REMARK  14 active torsions:
REMARK  status: ('A' for Active; 'I' for Inactive)
REMARK    1  A    between atoms: C_1  and  C_2
REMARK    2  A    between atoms: C_2  and  C_4
REMARK    3  A    between atoms: C_4  and  C_5
REMARK    4  A    between atoms: C_4  and  C_13
REMARK    5  A    between atoms: C_5  and  C_6
REMARK    6  A    between atoms: C_9  and  O_10
REMARK    7  A    between atoms: N_15  and  C_16
REMARK    8  A    between atoms: C_16  and  C_17
REMARK    9  A    between atoms: C_17  and  C_18
REMARK   10  A    between atoms: C_18  and  C_19
REMARK   11  A    between atoms: C_19  and  C_20
REMARK   12  A    between atoms: C_20  and  C_21
REMARK   13  A    between atoms: C_21  and  N_22
REMARK   14  A    between atoms: N_22  and  C_23
REMARK                            x       y       z     vdW  Elec       q    Type
REMARK                         _______ _______ _______ _____ _____    ______ ____
ROOT
ATOM      1  C   UNL A   1      41.239 -38.463 -28.638  0.00  0.00    -0.052 C 
ENDROOT
BRANCH   1   2
ATOM      2  C   UNL A   1      41.247 -38.129 -30.127  0.00  0.00    -0.037 C 
BRANCH   2   3
ATOM      3  C   UNL A   1      42.602 -38.374 -30.783  0.00  0.00    +0.012 C 
BRANCH   3   6
ATOM      4  C   UNL A   1      44.318 -39.895 -29.886  0.00  0.00    +0.224 C 
ATOM      5  O   UNL A   1      44.072 -40.761 -30.721  0.00  0.00    -0.275 OA
ATOM      6  N   UNL A   1      43.585 -38.731 -29.776  0.00  0.00    -0.315 N 
ATOM      7  H   UNL A   1      43.731 -38.136 -29.006  0.00  0.00    +0.000 HD
BRANCH   4   8
ATOM      8  C   UNL A   1      45.445 -40.066 -28.888  0.00  0.00    +0.097 C 
BRANCH   8  10
ATOM      9  C   UNL A   1      45.167 -41.937 -27.136  0.00  0.00    -0.005 C 
ATOM     10  C   UNL A   1      44.897 -40.511 -27.546  0.00  0.00    +0.142 C 
ATOM     11  O   UNL A   1      44.202 -39.772 -26.845  0.00  0.00    -0.297 OA
ENDBRANCH   8  10
BRANCH   8  12
ATOM     12  C   UNL A   1      46.301 -38.797 -28.747  0.00  0.00    -0.010 C 
BRANCH  12  13
ATOM     13  C   UNL A   1      47.634 -38.882 -29.456  0.00  0.00    -0.046 A 
ATOM     14  C   UNL A   1      47.952 -39.998 -30.245  0.00  0.00    -0.055 A 
ATOM     15  C   UNL A   1      49.192 -40.094 -30.880  0.00  0.00    -0.020 A 
ATOM     16  C   UNL A   1      50.117 -39.066 -30.734  0.00  0.00    +0.117 A 
ATOM     17  C   UNL A   1      49.817 -37.946 -29.968  0.00  0.00    -0.020 A 
ATOM     18  C   UNL A   1      48.578 -37.852 -29.331  0.00  0.00    -0.055 A 
BRANCH  16  19
ATOM     19  O   UNL A   1      51.339 -39.119 -31.335  0.00  0.00    -0.507 OA
ATOM     20  H   UNL A   1      51.625 -38.412 -31.879  0.00  0.00    +0.000 HD
ENDBRANCH  16  19
ENDBRANCH  12  13
ENDBRANCH   8  12
ENDBRANCH   4   8
ENDBRANCH   3   6
ENDBRANCH   2   3
ENDBRANCH   1   2
BRANCH   1  21
ATOM     21  C   UNL A   1      39.934 -37.984 -27.998  0.00  0.00    -0.052 C 
BRANCH  21  22
ATOM     22  C   UNL A   1      38.708 -38.402 -28.808  0.00  0.00    -0.037 C 
BRANCH  22  23
ATOM     23  C   UNL A   1      37.899 -37.178 -29.242  0.00  0.00    +0.009 C 
BRANCH  23  24
ATOM     24  N   UNL A   1      36.491 -37.374 -28.875  0.00  0.00    -0.343 N 
ATOM     25  H   UNL A   1      36.172 -37.496 -27.952  0.00  0.00    +0.000 HD
BRANCH  24  26
ATOM     26  C   UNL A   1      35.643 -37.367 -30.023  0.00  0.00    +0.041 A 
ATOM     27  C   UNL A   1      35.325 -38.574 -30.680  0.00  0.00    -0.005 A 
ATOM     28  C   UNL A   1      34.432 -38.508 -31.754  0.00  0.00    +0.047 A 
ATOM     29  N   UNL A   1      33.822 -37.364 -32.144  0.00  0.00    -0.251 NA
ATOM     30  C   UNL A   1      34.118 -36.219 -31.513  0.00  0.00    +0.073 A 
ATOM     31  C   UNL A   1      33.494 -35.054 -31.939  0.00  0.00    -0.036 A 
ATOM     32  C   UNL A   1      33.762 -33.813 -31.355  0.00  0.00    -0.060 A 
ATOM     33  C   UNL A   1      34.683 -33.728 -30.323  0.00  0.00    -0.061 A 
ATOM     34  C   UNL A   1      35.316 -34.887 -29.875  0.00  0.00    -0.051 A 
ATOM     35  C   UNL A   1      35.033 -36.153 -30.447  0.00  0.00    +0.021 A 
ATOM     36  C   UNL A   1      34.032 -39.737 -32.528  0.00  0.00    -0.010 C 
ATOM     37  C   UNL A   1      35.027 -40.883 -32.387  0.00  0.00    -0.047 C 
ATOM     38  C   UNL A   1      35.331 -41.118 -30.917  0.00  0.00    -0.049 C 
ATOM     39  C   UNL A   1      35.979 -39.881 -30.298  0.00  0.00    -0.024 C 
ENDBRANCH  24  26
ENDBRANCH  23  24
ENDBRANCH  22  23
ENDBRANCH  21  22
ENDBRANCH   1  21
TORSDOF 13
ENDMDL
MODEL 3
REMARK VINA RESULT:    -8.665      1.875      2.353
REMARK INTER + INTRA:         -16.378
REMARK INTER:                 -15.283
REMARK INTRA:                  -1.095
REMARK UNBOUND:                -1.381
REMARK  Name = cpd140.pdb
REMARK  14 active torsions:
REMARK  status: ('A' for Active; 'I' for Inactive)
REMARK    1  A    between atoms: C_1  and  C_2
REMARK    2  A    between atoms: C_2  and  C_4
REMARK    3  A    between atoms: C_4  and  C_5
REMARK    4  A    between atoms: C_4  and  C_13
REMARK    5  A    between atoms: C_5  and  C_6
REMARK    6  A    between atoms: C_9  and  O_10
REMARK    7  A    between atoms: N_15  and  C_16
REMARK    8  A    between atoms: C_16  and  C_17
REMARK    9  A    between atoms: C_17  and  C_18
REMARK   10  A    between atoms: C_18  and  C_19
REMARK   11  A    between atoms: C_19  and  C_20
REMARK   12  A    between atoms: C_20  and  C_21
REMARK   13  A    between atoms: C_21  and  N_22
REMARK   14  A    between atoms: N_22  and  C_23
REMARK                            x       y       z     vdW  Elec       q    Type
REMARK                         _______ _______ _______ _____ _____    ______ ____
ROOT
ATOM      1  C   UNL A   1      41.137 -38.692 -28.881  0.00  0.00    -0.052 C 
ENDROOT
BRANCH   1   2
ATOM      2  C   UNL A   1      41.420 -38.103 -30.261  0.00  0.00    -0.037 C 
BRANCH   2   3
ATOM      3  C   UNL A   1      42.659 -38.700 -30.919  0.00  0.00    +0.012 C 
BRANCH   3   6
ATOM      4  C   UNL A   1      44.455 -40.130 -30.029  0.00  0.00    +0.224 C 
ATOM      5  O   UNL A   1      44.262 -41.000 -30.874  0.00  0.00    -0.275 OA
ATOM      6  N   UNL A   1      43.657 -39.011 -29.911  0.00  0.00    -0.315 N 
ATOM      7  H   UNL A   1      43.766 -38.416 -29.134  0.00  0.00    +0.000 HD
BRANCH   4   8
ATOM      8  C   UNL A   1      45.586 -40.247 -29.028  0.00  0.00    +0.097 C 
BRANCH   8  10
ATOM      9  C   UNL A   1      45.041 -42.309 -27.579  0.00  0.00    -0.005 C 
ATOM     10  C   UNL A   1      45.072 -40.807 -27.716  0.00  0.00    +0.142 C 
ATOM     11  O   UNL A   1      44.632 -40.081 -26.821  0.00  0.00    -0.297 OA
ENDBRANCH   8  10
BRANCH   8  12
ATOM     12  C   UNL A   1      46.321 -38.914 -28.815  0.00  0.00    -0.010 C 
BRANCH  12  13
ATOM     13  C   UNL A   1      47.671 -38.849 -29.492  0.00  0.00    -0.046 A 
ATOM     14  C   UNL A   1      48.178 -39.963 -30.178  0.00  0.00    -0.055 A 
ATOM     15  C   UNL A   1      49.437 -39.918 -30.782  0.00  0.00    -0.020 A 
ATOM     16  C   UNL A   1      50.189 -38.750 -30.710  0.00  0.00    +0.117 A 
ATOM     17  C   UNL A   1      49.699 -37.631 -30.048  0.00  0.00    -0.020 A 
ATOM     18  C   UNL A   1      48.442 -37.678 -29.441  0.00  0.00    -0.055 A 
BRANCH  16  19
ATOM     19  O   UNL A   1      51.422 -38.663 -31.284  0.00  0.00    -0.507 OA
ATOM     20  H   UNL A   1      51.578 -39.057 -32.120  0.00  0.00    +0.000 HD
ENDBRANCH  16  19
ENDBRANCH  12  13
ENDBRANCH   8  12
ENDBRANCH   4   8
ENDBRANCH   3   6
ENDBRANCH   2   3
ENDBRANCH   1   2
BRANCH   1  21
ATOM     21  C   UNL A   1      39.826 -38.130 -28.327  0.00  0.00    -0.052 C 
BRANCH  21  22
ATOM     22  C   UNL A   1      38.734 -39.194 -28.241  0.00  0.00    -0.037 C 
BRANCH  22  23
ATOM     23  C   UNL A   1      37.462 -38.729 -28.952  0.00  0.00    +0.009 C 
BRANCH  23  24
ATOM     24  N   UNL A   1      36.319 -38.871 -28.041  0.00  0.00    -0.343 N 
ATOM     25  H   UNL A   1      36.400 -39.018 -27.071  0.00  0.00    +0.000 HD
BRANCH  24  26
ATOM     26  C   UNL A   1      35.077 -38.769 -28.737  0.00  0.00    +0.041 A 
ATOM     27  C   UNL A   1      34.572 -37.507 -29.110  0.00  0.00    -0.005 A 
ATOM     28  C   UNL A   1      33.387 -37.480 -29.852  0.00  0.00    +0.047 A 
ATOM     29  N   UNL A   1      32.749 -38.596 -30.274  0.00  0.00    -0.251 NA
ATOM     30  C   UNL A   1      33.234 -39.796 -29.926  0.00  0.00    +0.073 A 
ATOM     31  C   UNL A   1      32.555 -40.929 -30.354  0.00  0.00    -0.036 A 
ATOM     32  C   UNL A   1      32.978 -42.218 -30.018  0.00  0.00    -0.060 A 
ATOM     33  C   UNL A   1      34.102 -42.384 -29.225  0.00  0.00    -0.061 A 
ATOM     34  C   UNL A   1      34.803 -41.259 -28.790  0.00  0.00    -0.051 A 
ATOM     35  C   UNL A   1      34.395 -39.950 -29.146  0.00  0.00    +0.021 A 
ATOM     36  C   UNL A   1      32.759 -36.183 -30.295  0.00  0.00    -0.010 C 
ATOM     37  C   UNL A   1      33.207 -34.986 -29.464  0.00  0.00    -0.047 C 
ATOM     38  C   UNL A   1      34.724 -34.969 -29.370  0.00  0.00    -0.049 C 
ATOM     39  C   UNL A   1      35.233 -36.224 -28.663  0.00  0.00    -0.024 C 
ENDBRANCH  24  26
ENDBRANCH  23  24
ENDBRANCH  22  23
ENDBRANCH  21  22
ENDBRANCH   1  21
TORSDOF 13
ENDMDL
MODEL 4
REMARK VINA RESULT:    -7.983     18.232     20.578
REMARK INTER + INTRA:         -15.198
REMARK INTER:                 -12.731
REMARK INTRA:                  -2.468
REMARK UNBOUND:                -1.381
REMARK  Name = cpd140.pdb
REMARK  14 active torsions:
REMARK  status: ('A' for Active; 'I' for Inactive)
REMARK    1  A    between atoms: C_1  and  C_2
REMARK    2  A    between atoms: C_2  and  C_4
REMARK    3  A    between atoms: C_4  and  C_5
REMARK    4  A    between atoms: C_4  and  C_13
REMARK    5  A    between atoms: C_5  and  C_6
REMARK    6  A    between atoms: C_9  and  O_10
REMARK    7  A    between atoms: N_15  and  C_16
REMARK    8  A    between atoms: C_16  and  C_17
REMARK    9  A    between atoms: C_17  and  C_18
REMARK   10  A    between atoms: C_18  and  C_19
REMARK   11  A    between atoms: C_19  and  C_20
REMARK   12  A    between atoms: C_20  and  C_21
REMARK   13  A    between atoms: C_21  and  N_22
REMARK   14  A    between atoms: N_22  and  C_23
REMARK                            x       y       z     vdW  Elec       q    Type
REMARK                         _______ _______ _______ _____ _____    ______ ____
ROOT
ATOM      1  C   UNL A   1      46.173 -17.011 -35.289  0.00  0.00    -0.052 C 
ENDROOT
BRANCH   1   2
ATOM      2  C   UNL A   1      45.954 -16.333 -36.640  0.00  0.00    -0.037 C 
BRANCH   2   3
ATOM      3  C   UNL A   1      46.958 -16.780 -37.697  0.00  0.00    +0.012 C 
BRANCH   3   6
ATOM      4  C   UNL A   1      46.657 -17.738 -39.945  0.00  0.00    +0.224 C 
ATOM      5  O   UNL A   1      47.329 -16.857 -40.475  0.00  0.00    -0.275 OA
ATOM      6  N   UNL A   1      46.339 -17.731 -38.602  0.00  0.00    -0.315 N 
ATOM      7  H   UNL A   1      45.684 -18.378 -38.255  0.00  0.00    +0.000 HD
BRANCH   4   8
ATOM      8  C   UNL A   1      46.100 -18.893 -40.752  0.00  0.00    +0.097 C 
BRANCH   8  10
ATOM      9  C   UNL A   1      44.341 -19.155 -42.618  0.00  0.00    -0.005 C 
ATOM     10  C   UNL A   1      44.728 -18.543 -41.295  0.00  0.00    +0.142 C 
ATOM     11  O   UNL A   1      43.982 -17.744 -40.725  0.00  0.00    -0.297 OA
ENDBRANCH   8  10
BRANCH   8  12
ATOM     12  C   UNL A   1      46.065 -20.204 -39.951  0.00  0.00    -0.010 C 
BRANCH  12  13
ATOM     13  C   UNL A   1      46.681 -21.378 -40.680  0.00  0.00    -0.046 A 
ATOM     14  C   UNL A   1      46.018 -21.972 -41.763  0.00  0.00    -0.055 A 
ATOM     15  C   UNL A   1      46.570 -23.073 -42.422  0.00  0.00    -0.020 A 
ATOM     16  C   UNL A   1      47.796 -23.577 -42.003  0.00  0.00    +0.117 A 
ATOM     17  C   UNL A   1      48.477 -22.994 -40.941  0.00  0.00    -0.020 A 
ATOM     18  C   UNL A   1      47.922 -21.896 -40.280  0.00  0.00    -0.055 A 
BRANCH  16  19
ATOM     19  O   UNL A   1      48.370 -24.650 -42.616  0.00  0.00    -0.507 OA
ATOM     20  H   UNL A   1      47.853 -25.211 -43.160  0.00  0.00    +0.000 HD
ENDBRANCH  16  19
ENDBRANCH  12  13
ENDBRANCH   8  12
ENDBRANCH   4   8
ENDBRANCH   3   6
ENDBRANCH   2   3
ENDBRANCH   1   2
BRANCH   1  21
ATOM     21  C   UNL A   1      44.832 -17.444 -34.694  0.00  0.00    -0.052 C 
BRANCH  21  22
ATOM     22  C   UNL A   1      44.746 -18.958 -34.508  0.00  0.00    -0.037 C 
BRANCH  22  23
ATOM     23  C   UNL A   1      44.309 -19.641 -35.805  0.00  0.00    +0.009 C 
BRANCH  23  24
ATOM     24  N   UNL A   1      42.903 -19.314 -36.074  0.00  0.00    -0.343 N 
ATOM     25  H   UNL A   1      42.548 -18.397 -36.119  0.00  0.00    +0.000 HD
BRANCH  24  26
ATOM     26  C   UNL A   1      42.116 -20.490 -36.262  0.00  0.00    +0.041 A 
ATOM     27  C   UNL A   1      41.974 -21.051 -37.548  0.00  0.00    -0.005 A 
ATOM     28  C   UNL A   1      41.250 -22.243 -37.654  0.00  0.00    +0.047 A 
ATOM     29  N   UNL A   1      40.742 -22.902 -36.586  0.00  0.00    -0.251 NA
ATOM     30  C   UNL A   1      40.885 -22.371 -35.364  0.00  0.00    +0.073 A 
ATOM     31  C   UNL A   1      40.342 -23.053 -34.283  0.00  0.00    -0.036 A 
ATOM     32  C   UNL A   1      40.424 -22.561 -32.977  0.00  0.00    -0.060 A 
ATOM     33  C   UNL A   1      41.056 -21.351 -32.742  0.00  0.00    -0.061 A 
ATOM     34  C   UNL A   1      41.615 -20.652 -33.813  0.00  0.00    -0.051 A 
ATOM     35  C   UNL A   1      41.556 -21.156 -35.136  0.00  0.00    +0.021 A 
ATOM     36  C   UNL A   1      41.033 -22.923 -38.981  0.00  0.00    -0.010 C 
ATOM     37  C   UNL A   1      41.200 -21.982 -40.170  0.00  0.00    -0.047 C 
ATOM     38  C   UNL A   1      42.510 -21.224 -40.040  0.00  0.00    -0.049 C 
ATOM     39  C   UNL A   1      42.510 -20.361 -38.779  0.00  0.00    -0.024 C 
ENDBRANCH  24  26
ENDBRANCH  23  24
ENDBRANCH  22  23
ENDBRANCH  21  22
ENDBRANCH   1  21
TORSDOF 13
ENDMDL
MODEL 5
REMARK VINA RESULT:    -7.971     18.789     21.412
REMARK INTER + INTRA:         -15.177
REMARK INTER:                 -11.414
REMARK INTRA:                  -3.764
REMARK UNBOUND:                -1.381
REMARK  Name = cpd140.pdb
REMARK  14 active torsions:
REMARK  status: ('A' for Active; 'I' for Inactive)
REMARK    1  A    between atoms: C_1  and  C_2
REMARK    2  A    between atoms: C_2  and  C_4
REMARK    3  A    between atoms: C_4  and  C_5
REMARK    4  A    between atoms: C_4  and  C_13
REMARK    5  A    between atoms: C_5  and  C_6
REMARK    6  A    between atoms: C_9  and  O_10
REMARK    7  A    between atoms: N_15  and  C_16
REMARK    8  A    between atoms: C_16  and  C_17
REMARK    9  A    between atoms: C_17  and  C_18
REMARK   10  A    between atoms: C_18  and  C_19
REMARK   11  A    between atoms: C_19  and  C_20
REMARK   12  A    between atoms: C_20  and  C_21
REMARK   13  A    between atoms: C_21  and  N_22
REMARK   14  A    between atoms: N_22  and  C_23
REMARK                            x       y       z     vdW  Elec       q    Type
REMARK                         _______ _______ _______ _____ _____    ______ ____
ROOT
ATOM      1  C   UNL A   1      46.365 -16.677 -37.020  0.00  0.00    -0.052 C 
ENDROOT
BRANCH   1   2
ATOM      2  C   UNL A   1      47.075 -17.474 -35.928  0.00  0.00    -0.037 C 
BRANCH   2   3
ATOM      3  C   UNL A   1      47.444 -18.886 -36.369  0.00  0.00    +0.012 C 
BRANCH   3   6
ATOM      4  C   UNL A   1      46.659 -20.008 -38.415  0.00  0.00    +0.224 C 
ATOM      5  O   UNL A   1      46.198 -20.958 -37.788  0.00  0.00    -0.275 OA
ATOM      6  N   UNL A   1      47.373 -18.991 -37.815  0.00  0.00    -0.315 N 
ATOM      7  H   UNL A   1      47.840 -18.330 -38.374  0.00  0.00    +0.000 HD
BRANCH   4   8
ATOM      8  C   UNL A   1      46.494 -19.905 -39.917  0.00  0.00    +0.097 C 
BRANCH   8  10
ATOM      9  C   UNL A   1      46.437 -21.676 -41.789  0.00  0.00    -0.005 C 
ATOM     10  C   UNL A   1      47.155 -21.085 -40.602  0.00  0.00    +0.142 C 
ATOM     11  O   UNL A   1      48.195 -21.592 -40.176  0.00  0.00    -0.297 OA
ENDBRANCH   8  10
BRANCH   8  12
ATOM     12  C   UNL A   1      47.019 -18.572 -40.475  0.00  0.00    -0.010 C 
BRANCH  12  13
ATOM     13  C   UNL A   1      45.925 -17.599 -40.853  0.00  0.00    -0.046 A 
ATOM     14  C   UNL A   1      44.669 -18.065 -41.271  0.00  0.00    -0.055 A 
ATOM     15  C   UNL A   1      43.665 -17.170 -41.648  0.00  0.00    -0.020 A 
ATOM     16  C   UNL A   1      43.911 -15.803 -41.595  0.00  0.00    +0.117 A 
ATOM     17  C   UNL A   1      45.142 -15.320 -41.170  0.00  0.00    -0.020 A 
ATOM     18  C   UNL A   1      46.148 -16.215 -40.798  0.00  0.00    -0.055 A 
BRANCH  16  19
ATOM     19  O   UNL A   1      42.959 -14.896 -41.954  0.00  0.00    -0.507 OA
ATOM     20  H   UNL A   1      42.282 -15.140 -42.554  0.00  0.00    +0.000 HD
ENDBRANCH  16  19
ENDBRANCH  12  13
ENDBRANCH   8  12
ENDBRANCH   4   8
ENDBRANCH   3   6
ENDBRANCH   2   3
ENDBRANCH   1   2
BRANCH   1  21
ATOM     21  C   UNL A   1      44.883 -16.514 -36.674  0.00  0.00    -0.052 C 
BRANCH  21  22
ATOM     22  C   UNL A   1      44.002 -17.501 -37.436  0.00  0.00    -0.037 C 
BRANCH  22  23
ATOM     23  C   UNL A   1      43.190 -18.366 -36.470  0.00  0.00    +0.009 C 
BRANCH  23  24
ATOM     24  N   UNL A   1      43.692 -19.744 -36.516  0.00  0.00    -0.343 N 
ATOM     25  H   UNL A   1      44.640 -19.992 -36.411  0.00  0.00    +0.000 HD
BRANCH  24  26
ATOM     26  C   UNL A   1      42.638 -20.681 -36.733  0.00  0.00    +0.041 A 
ATOM     27  C   UNL A   1      42.374 -21.167 -38.030  0.00  0.00    -0.005 A 
ATOM     28  C   UNL A   1      41.376 -22.137 -38.165  0.00  0.00    +0.047 A 
ATOM     29  N   UNL A   1      40.706 -22.665 -37.114  0.00  0.00    -0.251 NA
ATOM     30  C   UNL A   1      40.963 -22.209 -35.881  0.00  0.00    +0.073 A 
ATOM     31  C   UNL A   1      40.253 -22.751 -34.817  0.00  0.00    -0.036 A 
ATOM     32  C   UNL A   1      40.440 -22.318 -33.502  0.00  0.00    -0.060 A 
ATOM     33  C   UNL A   1      41.353 -21.309 -33.238  0.00  0.00    -0.061 A 
ATOM     34  C   UNL A   1      42.082 -20.755 -34.291  0.00  0.00    -0.051 A 
ATOM     35  C   UNL A   1      41.915 -21.205 -35.624  0.00  0.00    +0.021 A 
ATOM     36  C   UNL A   1      41.011 -22.717 -39.507  0.00  0.00    -0.010 C 
ATOM     37  C   UNL A   1      41.423 -21.828 -40.675  0.00  0.00    -0.047 C 
ATOM     38  C   UNL A   1      42.880 -21.426 -40.521  0.00  0.00    -0.049 C 
ATOM     39  C   UNL A   1      43.081 -20.612 -39.244  0.00  0.00    -0.024 C 
ENDBRANCH  24  26
ENDBRANCH  23  24
ENDBRANCH  22  23
ENDBRANCH  21  22
ENDBRANCH   1  21
TORSDOF 13
ENDMDL
MODEL 6
REMARK VINA RESULT:    -7.921      5.602      7.831
REMARK INTER + INTRA:         -15.091
REMARK INTER:                 -11.688
REMARK INTRA:                  -3.403
REMARK UNBOUND:                -1.381
REMARK  Name = cpd140.pdb
REMARK  14 active torsions:
REMARK  status: ('A' for Active; 'I' for Inactive)
REMARK    1  A    between atoms: C_1  and  C_2
REMARK    2  A    between atoms: C_2  and  C_4
REMARK    3  A    between atoms: C_4  and  C_5
REMARK    4  A    between atoms: C_4  and  C_13
REMARK    5  A    between atoms: C_5  and  C_6
REMARK    6  A    between atoms: C_9  and  O_10
REMARK    7  A    between atoms: N_15  and  C_16
REMARK    8  A    between atoms: C_16  and  C_17
REMARK    9  A    between atoms: C_17  and  C_18
REMARK   10  A    between atoms: C_18  and  C_19
REMARK   11  A    between atoms: C_19  and  C_20
REMARK   12  A    between atoms: C_20  and  C_21
REMARK   13  A    between atoms: C_21  and  N_22
REMARK   14  A    between atoms: N_22  and  C_23
REMARK                            x       y       z     vdW  Elec       q    Type
REMARK                         _______ _______ _______ _____ _____    ______ ____
ROOT
ATOM      1  C   UNL A   1      34.394 -34.222 -31.785  0.00  0.00    -0.052 C 
ENDROOT
BRANCH   1   2
ATOM      2  C   UNL A   1      33.321 -35.103 -32.418  0.00  0.00    -0.037 C 
BRANCH   2   3
ATOM      3  C   UNL A   1      33.393 -36.554 -31.953  0.00  0.00    +0.012 C 
BRANCH   3   6
ATOM      4  C   UNL A   1      35.130 -37.905 -30.850  0.00  0.00    +0.224 C 
ATOM      5  O   UNL A   1      34.778 -38.933 -31.423  0.00  0.00    -0.275 OA
ATOM      6  N   UNL A   1      34.451 -36.710 -30.972  0.00  0.00    -0.315 N 
ATOM      7  H   UNL A   1      34.688 -35.955 -30.386  0.00  0.00    +0.000 HD
BRANCH   4   8
ATOM      8  C   UNL A   1      36.337 -37.892 -29.934  0.00  0.00    +0.097 C 
BRANCH   8  10
ATOM      9  C   UNL A   1      36.438 -37.726 -27.364  0.00  0.00    -0.005 C 
ATOM     10  C   UNL A   1      35.981 -38.485 -28.585  0.00  0.00    +0.142 C 
ATOM     11  O   UNL A   1      35.408 -39.571 -28.477  0.00  0.00    -0.297 OA
ENDBRANCH   8  10
BRANCH   8  12
ATOM     12  C   UNL A   1      36.942 -36.487 -29.783  0.00  0.00    -0.010 C 
BRANCH  12  13
ATOM     13  C   UNL A   1      38.102 -36.221 -30.716  0.00  0.00    -0.046 A 
ATOM     14  C   UNL A   1      39.334 -36.865 -30.524  0.00  0.00    -0.055 A 
ATOM     15  C   UNL A   1      40.416 -36.602 -31.366  0.00  0.00    -0.020 A 
ATOM     16  C   UNL A   1      40.265 -35.699 -32.413  0.00  0.00    +0.117 A 
ATOM     17  C   UNL A   1      39.050 -35.062 -32.630  0.00  0.00    -0.020 A 
ATOM     18  C   UNL A   1      37.969 -35.322 -31.785  0.00  0.00    -0.055 A 
BRANCH  16  19
ATOM     19  O   UNL A   1      41.295 -35.413 -33.258  0.00  0.00    -0.507 OA
ATOM     20  H   UNL A   1      41.196 -34.747 -33.910  0.00  0.00    +0.000 HD
ENDBRANCH  16  19
ENDBRANCH  12  13
ENDBRANCH   8  12
ENDBRANCH   4   8
ENDBRANCH   3   6
ENDBRANCH   2   3
ENDBRANCH   1   2
BRANCH   1  21
ATOM     21  C   UNL A   1      33.964 -32.754 -31.830  0.00  0.00    -0.052 C 
BRANCH  21  22
ATOM     22  C   UNL A   1      34.112 -32.069 -30.473  0.00  0.00    -0.037 C 
BRANCH  22  23
ATOM     23  C   UNL A   1      33.993 -33.083 -29.334  0.00  0.00    +0.009 C 
BRANCH  23  24
ATOM     24  N   UNL A   1      32.671 -32.956 -28.709  0.00  0.00    -0.343 N 
ATOM     25  H   UNL A   1      32.435 -32.263 -28.050  0.00  0.00    +0.000 HD
BRANCH  24  26
ATOM     26  C   UNL A   1      31.770 -33.961 -29.173  0.00  0.00    +0.041 A 
ATOM     27  C   UNL A   1      30.807 -33.654 -30.155  0.00  0.00    -0.005 A 
ATOM     28  C   UNL A   1      30.004 -34.700 -30.620  0.00  0.00    +0.047 A 
ATOM     29  N   UNL A   1      30.149 -35.984 -30.218  0.00  0.00    -0.251 NA
ATOM     30  C   UNL A   1      31.071 -36.277 -29.291  0.00  0.00    +0.073 A 
ATOM     31  C   UNL A   1      31.195 -37.597 -28.879  0.00  0.00    -0.036 A 
ATOM     32  C   UNL A   1      32.112 -37.987 -27.900  0.00  0.00    -0.060 A 
ATOM     33  C   UNL A   1      32.924 -37.034 -27.306  0.00  0.00    -0.061 A 
ATOM     34  C   UNL A   1      32.822 -35.703 -27.709  0.00  0.00    -0.051 A 
ATOM     35  C   UNL A   1      31.910 -35.303 -28.718  0.00  0.00    +0.021 A 
ATOM     36  C   UNL A   1      28.939 -34.478 -31.663  0.00  0.00    -0.010 C 
ATOM     37  C   UNL A   1      28.492 -33.024 -31.763  0.00  0.00    -0.047 C 
ATOM     38  C   UNL A   1      29.710 -32.123 -31.882  0.00  0.00    -0.049 C 
ATOM     39  C   UNL A   1      30.589 -32.240 -30.638  0.00  0.00    -0.024 C 
ENDBRANCH  24  26
ENDBRANCH  23  24
ENDBRANCH  22  23
ENDBRANCH  21  22
ENDBRANCH   1  21
TORSDOF 13
ENDMDL
MODEL 7
REMARK VINA RESULT:    -7.787      5.592      8.365
REMARK INTER + INTRA:         -14.859
REMARK INTER:                 -11.608
REMARK INTRA:                  -3.251
REMARK UNBOUND:                -1.381
REMARK  Name = cpd140.pdb
REMARK  14 active torsions:
REMARK  status: ('A' for Active; 'I' for Inactive)
REMARK    1  A    between atoms: C_1  and  C_2
REMARK    2  A    between atoms: C_2  and  C_4
REMARK    3  A    between atoms: C_4  and  C_5
REMARK    4  A    between atoms: C_4  and  C_13
REMARK    5  A    between atoms: C_5  and  C_6
REMARK    6  A    between atoms: C_9  and  O_10
REMARK    7  A    between atoms: N_15  and  C_16
REMARK    8  A    between atoms: C_16  and  C_17
REMARK    9  A    between atoms: C_17  and  C_18
REMARK   10  A    between atoms: C_18  and  C_19
REMARK   11  A    between atoms: C_19  and  C_20
REMARK   12  A    between atoms: C_20  and  C_21
REMARK   13  A    between atoms: C_21  and  N_22
REMARK   14  A    between atoms: N_22  and  C_23
REMARK                            x       y       z     vdW  Elec       q    Type
REMARK                         _______ _______ _______ _____ _____    ______ ____
ROOT
ATOM      1  C   UNL A   1      34.382 -34.020 -31.700  0.00  0.00    -0.052 C 
ENDROOT
BRANCH   1   2
ATOM      2  C   UNL A   1      33.285 -34.854 -32.357  0.00  0.00    -0.037 C 
BRANCH   2   3
ATOM      3  C   UNL A   1      33.386 -36.339 -32.022  0.00  0.00    +0.012 C 
BRANCH   3   6
ATOM      4  C   UNL A   1      35.007 -37.831 -30.923  0.00  0.00    +0.224 C 
ATOM      5  O   UNL A   1      34.484 -38.840 -31.390  0.00  0.00    -0.275 OA
ATOM      6  N   UNL A   1      34.482 -36.567 -31.098  0.00  0.00    -0.315 N 
ATOM      7  H   UNL A   1      34.856 -35.811 -30.590  0.00  0.00    +0.000 HD
BRANCH   4   8
ATOM      8  C   UNL A   1      36.267 -37.916 -30.087  0.00  0.00    +0.097 C 
BRANCH   8  10
ATOM      9  C   UNL A   1      36.102 -37.891 -27.514  0.00  0.00    -0.005 C 
ATOM     10  C   UNL A   1      35.996 -38.672 -28.800  0.00  0.00    +0.142 C 
ATOM     11  O   UNL A   1      35.767 -39.883 -28.788  0.00  0.00    -0.297 OA
ENDBRANCH   8  10
BRANCH   8  12
ATOM     12  C   UNL A   1      36.876 -36.534 -29.802  0.00  0.00    -0.010 C 
BRANCH  12  13
ATOM     13  C   UNL A   1      38.072 -36.206 -30.669  0.00  0.00    -0.046 A 
ATOM     14  C   UNL A   1      37.944 -35.330 -31.757  0.00  0.00    -0.055 A 
ATOM     15  C   UNL A   1      39.038 -35.046 -32.577  0.00  0.00    -0.020 A 
ATOM     16  C   UNL A   1      40.269 -35.631 -32.303  0.00  0.00    +0.117 A 
ATOM     17  C   UNL A   1      40.420 -36.491 -31.223  0.00  0.00    -0.020 A 
ATOM     18  C   UNL A   1      39.325 -36.778 -30.405  0.00  0.00    -0.055 A 
BRANCH  16  19
ATOM     19  O   UNL A   1      41.362 -35.382 -33.079  0.00  0.00    -0.507 OA
ATOM     20  H   UNL A   1      41.816 -36.092 -33.489  0.00  0.00    +0.000 HD
ENDBRANCH  16  19
ENDBRANCH  12  13
ENDBRANCH   8  12
ENDBRANCH   4   8
ENDBRANCH   3   6
ENDBRANCH   2   3
ENDBRANCH   1   2
BRANCH   1  21
ATOM     21  C   UNL A   1      34.052 -32.531 -31.816  0.00  0.00    -0.052 C 
BRANCH  21  22
ATOM     22  C   UNL A   1      34.085 -31.827 -30.461  0.00  0.00    -0.037 C 
BRANCH  22  23
ATOM     23  C   UNL A   1      33.925 -32.833 -29.320  0.00  0.00    +0.009 C 
BRANCH  23  24
ATOM     24  N   UNL A   1      32.564 -32.738 -28.778  0.00  0.00    -0.343 N 
ATOM     25  H   UNL A   1      32.283 -32.082 -28.100  0.00  0.00    +0.000 HD
BRANCH  24  26
ATOM     26  C   UNL A   1      31.699 -33.715 -29.355  0.00  0.00    +0.041 A 
ATOM     27  C   UNL A   1      31.765 -35.060 -28.936  0.00  0.00    -0.005 A 
ATOM     28  C   UNL A   1      30.841 -35.953 -29.487  0.00  0.00    +0.047 A 
ATOM     29  N   UNL A   1      29.864 -35.578 -30.345  0.00  0.00    -0.251 NA
ATOM     30  C   UNL A   1      29.796 -34.298 -30.736  0.00  0.00    +0.073 A 
ATOM     31  C   UNL A   1      28.797 -33.935 -31.630  0.00  0.00    -0.036 A 
ATOM     32  C   UNL A   1      28.668 -32.629 -32.109  0.00  0.00    -0.060 A 
ATOM     33  C   UNL A   1      29.565 -31.657 -31.694  0.00  0.00    -0.061 A 
ATOM     34  C   UNL A   1      30.573 -31.998 -30.792  0.00  0.00    -0.051 A 
ATOM     35  C   UNL A   1      30.696 -33.315 -30.284  0.00  0.00    +0.021 A 
ATOM     36  C   UNL A   1      30.831 -37.413 -29.112  0.00  0.00    -0.010 C 
ATOM     37  C   UNL A   1      32.157 -37.893 -28.533  0.00  0.00    -0.047 C 
ATOM     38  C   UNL A   1      32.604 -36.947 -27.432  0.00  0.00    -0.049 C 
ATOM     39  C   UNL A   1      32.837 -35.543 -27.988  0.00  0.00    -0.024 C 
ENDBRANCH  24  26
ENDBRANCH  23  24
ENDBRANCH  22  23
ENDBRANCH  21  22
ENDBRANCH   1  21
TORSDOF 13
ENDMDL
MODEL 8
REMARK VINA RESULT:    -7.782     18.396     20.710
REMARK INTER + INTRA:         -14.850
REMARK INTER:                 -12.774
REMARK INTRA:                  -2.076
REMARK UNBOUND:                -1.381
REMARK  Name = cpd140.pdb
REMARK  14 active torsions:
REMARK  status: ('A' for Active; 'I' for Inactive)
REMARK    1  A    between atoms: C_1  and  C_2
REMARK    2  A    between atoms: C_2  and  C_4
REMARK    3  A    between atoms: C_4  and  C_5
REMARK    4  A    between atoms: C_4  and  C_13
REMARK    5  A    between atoms: C_5  and  C_6
REMARK    6  A    between atoms: C_9  and  O_10
REMARK    7  A    between atoms: N_15  and  C_16
REMARK    8  A    between atoms: C_16  and  C_17
REMARK    9  A    between atoms: C_17  and  C_18
REMARK   10  A    between atoms: C_18  and  C_19
REMARK   11  A    between atoms: C_19  and  C_20
REMARK   12  A    between atoms: C_20  and  C_21
REMARK   13  A    between atoms: C_21  and  N_22
REMARK   14  A    between atoms: N_22  and  C_23
REMARK                            x       y       z     vdW  Elec       q    Type
REMARK                         _______ _______ _______ _____ _____    ______ ____
ROOT
ATOM      1  C   UNL A   1      46.726 -17.886 -34.968  0.00  0.00    -0.052 C 
ENDROOT
BRANCH   1   2
ATOM      2  C   UNL A   1      47.171 -17.635 -36.406  0.00  0.00    -0.037 C 
BRANCH   2   3
ATOM      3  C   UNL A   1      47.385 -18.924 -37.194  0.00  0.00    +0.012 C 
BRANCH   3   6
ATOM      4  C   UNL A   1      46.018 -18.464 -39.189  0.00  0.00    +0.224 C 
ATOM      5  O   UNL A   1      44.966 -18.657 -38.586  0.00  0.00    -0.275 OA
ATOM      6  N   UNL A   1      47.257 -18.665 -38.617  0.00  0.00    -0.315 N 
ATOM      7  H   UNL A   1      48.064 -18.632 -39.180  0.00  0.00    +0.000 HD
BRANCH   4   8
ATOM      8  C   UNL A   1      46.021 -18.011 -40.635  0.00  0.00    +0.097 C 
BRANCH   8  10
ATOM      9  C   UNL A   1      45.898 -15.504 -40.050  0.00  0.00    -0.005 C 
ATOM     10  C   UNL A   1      45.300 -16.684 -40.774  0.00  0.00    +0.142 C 
ATOM     11  O   UNL A   1      44.237 -16.577 -41.388  0.00  0.00    -0.297 OA
ENDBRANCH   8  10
BRANCH   8  12
ATOM     12  C   UNL A   1      45.430 -19.068 -41.582  0.00  0.00    -0.010 C 
BRANCH  12  13
ATOM     13  C   UNL A   1      46.302 -20.292 -41.748  0.00  0.00    -0.046 A 
ATOM     14  C   UNL A   1      47.688 -20.160 -41.926  0.00  0.00    -0.055 A 
ATOM     15  C   UNL A   1      48.494 -21.286 -42.108  0.00  0.00    -0.020 A 
ATOM     16  C   UNL A   1      47.916 -22.551 -42.101  0.00  0.00    +0.117 A 
ATOM     17  C   UNL A   1      46.548 -22.704 -41.912  0.00  0.00    -0.020 A 
ATOM     18  C   UNL A   1      45.741 -21.578 -41.735  0.00  0.00    -0.055 A 
BRANCH  16  19
ATOM     19  O   UNL A   1      48.666 -23.676 -42.276  0.00  0.00    -0.507 OA
ATOM     20  H   UNL A   1      49.599 -23.614 -42.320  0.00  0.00    +0.000 HD
ENDBRANCH  16  19
ENDBRANCH  12  13
ENDBRANCH   8  12
ENDBRANCH   4   8
ENDBRANCH   3   6
ENDBRANCH   2   3
ENDBRANCH   1   2
BRANCH   1  21
ATOM     21  C   UNL A   1      45.198 -17.905 -34.885  0.00  0.00    -0.052 C 
BRANCH  21  22
ATOM     22  C   UNL A   1      44.662 -19.268 -34.453  0.00  0.00    -0.037 C 
BRANCH  22  23
ATOM     23  C   UNL A   1      44.275 -20.112 -35.669  0.00  0.00    +0.009 C 
BRANCH  23  24
ATOM     24  N   UNL A   1      42.956 -19.687 -36.152  0.00  0.00    -0.343 N 
ATOM     25  H   UNL A   1      42.681 -18.747 -36.257  0.00  0.00    +0.000 HD
BRANCH  24  26
ATOM     26  C   UNL A   1      42.121 -20.805 -36.452  0.00  0.00    +0.041 A 
ATOM     27  C   UNL A   1      41.381 -21.434 -35.430  0.00  0.00    -0.005 A 
ATOM     28  C   UNL A   1      40.526 -22.476 -35.801  0.00  0.00    +0.047 A 
ATOM     29  N   UNL A   1      40.335 -22.860 -37.084  0.00  0.00    -0.251 NA
ATOM     30  C   UNL A   1      41.032 -22.256 -38.056  0.00  0.00    +0.073 A 
ATOM     31  C   UNL A   1      40.836 -22.676 -39.366  0.00  0.00    -0.036 A 
ATOM     32  C   UNL A   1      41.538 -22.118 -40.437  0.00  0.00    -0.060 A 
ATOM     33  C   UNL A   1      42.469 -21.120 -40.199  0.00  0.00    -0.061 A 
ATOM     34  C   UNL A   1      42.678 -20.679 -38.892  0.00  0.00    -0.051 A 
ATOM     35  C   UNL A   1      41.954 -21.223 -37.802  0.00  0.00    +0.021 A 
ATOM     36  C   UNL A   1      39.696 -23.220 -34.785  0.00  0.00    -0.010 C 
ATOM     37  C   UNL A   1      40.237 -23.098 -33.366  0.00  0.00    -0.047 C 
ATOM     38  C   UNL A   1      40.497 -21.637 -33.041  0.00  0.00    -0.049 C 
ATOM     39  C   UNL A   1      41.555 -21.057 -33.978  0.00  0.00    -0.024 C 
ENDBRANCH  24  26
ENDBRANCH  23  24
ENDBRANCH  22  23
ENDBRANCH  21  22
ENDBRANCH   1  21
TORSDOF 13
ENDMDL
MODEL 9
REMARK VINA RESULT:    -7.514     17.755     20.197
REMARK INTER + INTRA:         -14.386
REMARK INTER:                 -11.048
REMARK INTRA:                  -3.337
REMARK UNBOUND:                -1.381
REMARK  Name = cpd140.pdb
REMARK  14 active torsions:
REMARK  status: ('A' for Active; 'I' for Inactive)
REMARK    1  A    between atoms: C_1  and  C_2
REMARK    2  A    between atoms: C_2  and  C_4
REMARK    3  A    between atoms: C_4  and  C_5
REMARK    4  A    between atoms: C_4  and  C_13
REMARK    5  A    between atoms: C_5  and  C_6
REMARK    6  A    between atoms: C_9  and  O_10
REMARK    7  A    between atoms: N_15  and  C_16
REMARK    8  A    between atoms: C_16  and  C_17
REMARK    9  A    between atoms: C_17  and  C_18
REMARK   10  A    between atoms: C_18  and  C_19
REMARK   11  A    between atoms: C_19  and  C_20
REMARK   12  A    between atoms: C_20  and  C_21
REMARK   13  A    between atoms: C_21  and  N_22
REMARK   14  A    between atoms: N_22  and  C_23
REMARK                            x       y       z     vdW  Elec       q    Type
REMARK                         _______ _______ _______ _____ _____    ______ ____
ROOT
ATOM      1  C   UNL A   1      43.369 -16.497 -34.117  0.00  0.00    -0.052 C 
ENDROOT
BRANCH   1   2
ATOM      2  C   UNL A   1      44.433 -15.492 -34.548  0.00  0.00    -0.037 C 
BRANCH   2   3
ATOM      3  C   UNL A   1      44.906 -15.707 -35.982  0.00  0.00    +0.012 C 
BRANCH   3   6
ATOM      4  C   UNL A   1      45.242 -17.883 -37.084  0.00  0.00    +0.224 C 
ATOM      5  O   UNL A   1      44.253 -17.741 -37.798  0.00  0.00    -0.275 OA
ATOM      6  N   UNL A   1      45.588 -16.984 -36.096  0.00  0.00    -0.315 N 
ATOM      7  H   UNL A   1      46.304 -17.211 -35.460  0.00  0.00    +0.000 HD
BRANCH   4   8
ATOM      8  C   UNL A   1      46.146 -19.090 -37.226  0.00  0.00    +0.097 C 
BRANCH   8  10
ATOM      9  C   UNL A   1      46.599 -20.317 -35.004  0.00  0.00    -0.005 C 
ATOM     10  C   UNL A   1      47.009 -19.252 -35.990  0.00  0.00    +0.142 C 
ATOM     11  O   UNL A   1      47.964 -18.507 -35.756  0.00  0.00    -0.297 OA
ENDBRANCH   8  10
BRANCH   8  12
ATOM     12  C   UNL A   1      47.004 -19.034 -38.501  0.00  0.00    -0.010 C 
BRANCH  12  13
ATOM     13  C   UNL A   1      46.572 -20.014 -39.568  0.00  0.00    -0.046 A 
ATOM     14  C   UNL A   1      46.819 -21.387 -39.416  0.00  0.00    -0.055 A 
ATOM     15  C   UNL A   1      46.448 -22.294 -40.411  0.00  0.00    -0.020 A 
ATOM     16  C   UNL A   1      45.816 -21.829 -41.560  0.00  0.00    +0.117 A 
ATOM     17  C   UNL A   1      45.549 -20.475 -41.723  0.00  0.00    -0.020 A 
ATOM     18  C   UNL A   1      45.925 -19.568 -40.730  0.00  0.00    -0.055 A 
BRANCH  16  19
ATOM     19  O   UNL A   1      45.438 -22.679 -42.556  0.00  0.00    -0.507 OA
ATOM     20  H   UNL A   1      45.969 -22.768 -43.322  0.00  0.00    +0.000 HD
ENDBRANCH  16  19
ENDBRANCH  12  13
ENDBRANCH   8  12
ENDBRANCH   4   8
ENDBRANCH   3   6
ENDBRANCH   2   3
ENDBRANCH   1   2
BRANCH   1  21
ATOM     21  C   UNL A   1      43.814 -17.222 -32.844  0.00  0.00    -0.052 C 
BRANCH  21  22
ATOM     22  C   UNL A   1      43.681 -18.739 -32.970  0.00  0.00    -0.037 C 
BRANCH  22  23
ATOM     23  C   UNL A   1      43.100 -19.124 -34.331  0.00  0.00    +0.009 C 
BRANCH  23  24
ATOM     24  N   UNL A   1      43.030 -20.587 -34.431  0.00  0.00    -0.343 N 
ATOM     25  H   UNL A   1      43.700 -21.200 -34.051  0.00  0.00    +0.000 HD
BRANCH  24  26
ATOM     26  C   UNL A   1      41.869 -21.010 -35.146  0.00  0.00    +0.041 A 
ATOM     27  C   UNL A   1      40.648 -21.203 -34.469  0.00  0.00    -0.005 A 
ATOM     28  C   UNL A   1      39.532 -21.548 -35.237  0.00  0.00    +0.047 A 
ATOM     29  N   UNL A   1      39.559 -21.642 -36.588  0.00  0.00    -0.251 NA
ATOM     30  C   UNL A   1      40.719 -21.450 -37.231  0.00  0.00    +0.073 A 
ATOM     31  C   UNL A   1      40.731 -21.568 -38.615  0.00  0.00    -0.036 A 
ATOM     32  C   UNL A   1      41.900 -21.408 -39.363  0.00  0.00    -0.060 A 
ATOM     33  C   UNL A   1      43.094 -21.131 -38.716  0.00  0.00    -0.061 A 
ATOM     34  C   UNL A   1      43.103 -21.002 -37.327  0.00  0.00    -0.051 A 
ATOM     35  C   UNL A   1      41.918 -21.140 -36.563  0.00  0.00    +0.021 A 
ATOM     36  C   UNL A   1      38.181 -21.784 -34.612  0.00  0.00    -0.010 C 
ATOM     37  C   UNL A   1      38.259 -22.115 -33.126  0.00  0.00    -0.047 C 
ATOM     38  C   UNL A   1      39.126 -21.087 -32.419  0.00  0.00    -0.049 C 
ATOM     39  C   UNL A   1      40.553 -21.121 -32.964  0.00  0.00    -0.024 C 
ENDBRANCH  24  26
ENDBRANCH  23  24
ENDBRANCH  22  23
ENDBRANCH  21  22
ENDBRANCH   1  21
TORSDOF 13
ENDMDL
MODEL 10
REMARK VINA RESULT:    -7.475     19.948     22.909
REMARK INTER + INTRA:         -14.319
REMARK INTER:                  -9.770
REMARK INTRA:                  -4.549
REMARK UNBOUND:                -1.381
REMARK  Name = cpd140.pdb
REMARK  14 active torsions:
REMARK  status: ('A' for Active; 'I' for Inactive)
REMARK    1  A    between atoms: C_1  and  C_2
REMARK    2  A    between atoms: C_2  and  C_4
REMARK    3  A    between atoms: C_4  and  C_5
REMARK    4  A    between atoms: C_4  and  C_13
REMARK    5  A    between atoms: C_5  and  C_6
REMARK    6  A    between atoms: C_9  and  O_10
REMARK    7  A    between atoms: N_15  and  C_16
REMARK    8  A    between atoms: C_16  and  C_17
REMARK    9  A    between atoms: C_17  and  C_18
REMARK   10  A    between atoms: C_18  and  C_19
REMARK   11  A    between atoms: C_19  and  C_20
REMARK   12  A    between atoms: C_20  and  C_21
REMARK   13  A    between atoms: C_21  and  N_22
REMARK   14  A    between atoms: N_22  and  C_23
REMARK                            x       y       z     vdW  Elec       q    Type
REMARK                         _______ _______ _______ _____ _____    ______ ____
ROOT
ATOM      1  C   UNL A   1      43.665 -19.954 -34.235  0.00  0.00    -0.052 C 
ENDROOT
BRANCH   1   2
ATOM      2  C   UNL A   1      42.264 -19.932 -33.628  0.00  0.00    -0.037 C 
BRANCH   2   3
ATOM      3  C   UNL A   1      41.172 -20.249 -34.644  0.00  0.00    +0.012 C 
BRANCH   3   6
ATOM      4  C   UNL A   1      41.646 -20.635 -37.029  0.00  0.00    +0.224 C 
ATOM      5  O   UNL A   1      41.572 -21.855 -36.907  0.00  0.00    -0.275 OA
ATOM      6  N   UNL A   1      41.560 -19.769 -35.958  0.00  0.00    -0.315 N 
ATOM      7  H   UNL A   1      41.764 -18.815 -36.087  0.00  0.00    +0.000 HD
BRANCH   4   8
ATOM      8  C   UNL A   1      41.868 -19.994 -38.383  0.00  0.00    +0.097 C 
BRANCH   8  10
ATOM      9  C   UNL A   1      42.552 -21.598 -40.283  0.00  0.00    -0.005 C 
ATOM     10  C   UNL A   1      41.449 -20.943 -39.490  0.00  0.00    +0.142 C 
ATOM     11  O   UNL A   1      40.265 -21.125 -39.784  0.00  0.00    -0.297 OA
ENDBRANCH   8  10
BRANCH   8  12
ATOM     12  C   UNL A   1      43.317 -19.519 -38.577  0.00  0.00    -0.010 C 
BRANCH  12  13
ATOM     13  C   UNL A   1      43.431 -18.064 -38.975  0.00  0.00    -0.046 A 
ATOM     14  C   UNL A   1      43.543 -17.064 -37.997  0.00  0.00    -0.055 A 
ATOM     15  C   UNL A   1      43.620 -15.718 -38.359  0.00  0.00    -0.020 A 
ATOM     16  C   UNL A   1      43.597 -15.368 -39.704  0.00  0.00    +0.117 A 
ATOM     17  C   UNL A   1      43.502 -16.343 -40.689  0.00  0.00    -0.020 A 
ATOM     18  C   UNL A   1      43.420 -17.689 -40.327  0.00  0.00    -0.055 A 
BRANCH  16  19
ATOM     19  O   UNL A   1      43.670 -14.066 -40.101  0.00  0.00    -0.507 OA
ATOM     20  H   UNL A   1      43.798 -13.858 -41.005  0.00  0.00    +0.000 HD
ENDBRANCH  16  19
ENDBRANCH  12  13
ENDBRANCH   8  12
ENDBRANCH   4   8
ENDBRANCH   3   6
ENDBRANCH   2   3
ENDBRANCH   1   2
BRANCH   1  21
ATOM     21  C   UNL A   1      44.307 -18.570 -34.125  0.00  0.00    -0.052 C 
BRANCH  21  22
ATOM     22  C   UNL A   1      45.713 -18.539 -34.722  0.00  0.00    -0.037 C 
BRANCH  22  23
ATOM     23  C   UNL A   1      45.778 -19.367 -36.007  0.00  0.00    +0.009 C 
BRANCH  23  24
ATOM     24  N   UNL A   1      47.097 -19.195 -36.627  0.00  0.00    -0.343 N 
ATOM     25  H   UNL A   1      47.950 -19.378 -36.172  0.00  0.00    +0.000 HD
BRANCH  24  26
ATOM     26  C   UNL A   1      46.989 -18.728 -37.972  0.00  0.00    +0.041 A 
ATOM     27  C   UNL A   1      47.177 -17.363 -38.268  0.00  0.00    -0.005 A 
ATOM     28  C   UNL A   1      47.130 -16.982 -39.612  0.00  0.00    +0.047 A 
ATOM     29  N   UNL A   1      46.975 -17.861 -40.630  0.00  0.00    -0.251 NA
ATOM     30  C   UNL A   1      46.805 -19.160 -40.348  0.00  0.00    +0.073 A 
ATOM     31  C   UNL A   1      46.630 -20.045 -41.404  0.00  0.00    -0.036 A 
ATOM     32  C   UNL A   1      46.421 -21.412 -41.200  0.00  0.00    -0.060 A 
ATOM     33  C   UNL A   1      46.376 -21.911 -39.908  0.00  0.00    -0.061 A 
ATOM     34  C   UNL A   1      46.556 -21.041 -38.833  0.00  0.00    -0.051 A 
ATOM     35  C   UNL A   1      46.790 -19.658 -39.032  0.00  0.00    +0.021 A 
ATOM     36  C   UNL A   1      47.312 -15.547 -40.036  0.00  0.00    -0.010 C 
ATOM     37  C   UNL A   1      47.036 -14.552 -38.915  0.00  0.00    -0.047 C 
ATOM     38  C   UNL A   1      47.806 -14.959 -37.670  0.00  0.00    -0.049 C 
ATOM     39  C   UNL A   1      47.346 -16.331 -37.178  0.00  0.00    -0.024 C 
ENDBRANCH  24  26
ENDBRANCH  23  24
ENDBRANCH  22  23
ENDBRANCH  21  22
ENDBRANCH   1  21
TORSDOF 13
ENDMDL
MODEL 11
REMARK VINA RESULT:    -7.414      5.484      8.884
REMARK INTER + INTRA:         -14.212
REMARK INTER:                 -11.762
REMARK INTRA:                  -2.450
REMARK UNBOUND:                -1.381
REMARK  Name = cpd140.pdb
REMARK  14 active torsions:
REMARK  status: ('A' for Active; 'I' for Inactive)
REMARK    1  A    between atoms: C_1  and  C_2
REMARK    2  A    between atoms: C_2  and  C_4
REMARK    3  A    between atoms: C_4  and  C_5
REMARK    4  A    between atoms: C_4  and  C_13
REMARK    5  A    between atoms: C_5  and  C_6
REMARK    6  A    between atoms: C_9  and  O_10
REMARK    7  A    between atoms: N_15  and  C_16
REMARK    8  A    between atoms: C_16  and  C_17
REMARK    9  A    between atoms: C_17  and  C_18
REMARK   10  A    between atoms: C_18  and  C_19
REMARK   11  A    between atoms: C_19  and  C_20
REMARK   12  A    between atoms: C_20  and  C_21
REMARK   13  A    between atoms: C_21  and  N_22
REMARK   14  A    between atoms: N_22  and  C_23
REMARK                            x       y       z     vdW  Elec       q    Type
REMARK                         _______ _______ _______ _____ _____    ______ ____
ROOT
ATOM      1  C   UNL A   1      30.688 -37.732 -30.704  0.00  0.00    -0.052 C 
ENDROOT
BRANCH   1   2
ATOM      2  C   UNL A   1      31.517 -36.919 -29.713  0.00  0.00    -0.037 C 
BRANCH   2   3
ATOM      3  C   UNL A   1      32.540 -37.764 -28.961  0.00  0.00    +0.012 C 
BRANCH   3   6
ATOM      4  C   UNL A   1      34.971 -37.561 -29.294  0.00  0.00    +0.224 C 
ATOM      5  O   UNL A   1      35.119 -36.916 -28.259  0.00  0.00    -0.275 OA
ATOM      6  N   UNL A   1      33.733 -37.938 -29.771  0.00  0.00    -0.315 N 
ATOM      7  H   UNL A   1      33.657 -38.330 -30.671  0.00  0.00    +0.000 HD
BRANCH   4   8
ATOM      8  C   UNL A   1      36.160 -37.967 -30.141  0.00  0.00    +0.097 C 
BRANCH   8  10
ATOM      9  C   UNL A   1      36.586 -40.415 -29.452  0.00  0.00    -0.005 C 
ATOM     10  C   UNL A   1      36.080 -39.442 -30.487  0.00  0.00    +0.142 C 
ATOM     11  O   UNL A   1      35.688 -39.836 -31.587  0.00  0.00    -0.297 OA
ENDBRANCH   8  10
BRANCH   8  12
ATOM     12  C   UNL A   1      37.501 -37.624 -29.473  0.00  0.00    -0.010 C 
BRANCH  12  13
ATOM     13  C   UNL A   1      38.487 -36.951 -30.401  0.00  0.00    -0.046 A 
ATOM     14  C   UNL A   1      38.037 -36.118 -31.437  0.00  0.00    -0.055 A 
ATOM     15  C   UNL A   1      38.943 -35.517 -32.314  0.00  0.00    -0.020 A 
ATOM     16  C   UNL A   1      40.305 -35.740 -32.150  0.00  0.00    +0.117 A 
ATOM     17  C   UNL A   1      40.773 -36.550 -31.123  0.00  0.00    -0.020 A 
ATOM     18  C   UNL A   1      39.867 -37.155 -30.249  0.00  0.00    -0.055 A 
BRANCH  16  19
ATOM     19  O   UNL A   1      41.223 -35.174 -32.984  0.00  0.00    -0.507 OA
ATOM     20  H   UNL A   1      40.938 -34.681 -33.728  0.00  0.00    +0.000 HD
ENDBRANCH  16  19
ENDBRANCH  12  13
ENDBRANCH   8  12
ENDBRANCH   4   8
ENDBRANCH   3   6
ENDBRANCH   2   3
ENDBRANCH   1   2
BRANCH   1  21
ATOM     21  C   UNL A   1      30.989 -37.283 -32.135  0.00  0.00    -0.052 C 
BRANCH  21  22
ATOM     22  C   UNL A   1      29.853 -36.452 -32.729  0.00  0.00    -0.037 C 
BRANCH  22  23
ATOM     23  C   UNL A   1      29.775 -35.079 -32.060  0.00  0.00    +0.009 C 
BRANCH  23  24
ATOM     24  N   UNL A   1      30.629 -34.135 -32.792  0.00  0.00    -0.343 N 
ATOM     25  H   UNL A   1      30.804 -34.183 -33.759  0.00  0.00    +0.000 HD
BRANCH  24  26
ATOM     26  C   UNL A   1      31.174 -33.139 -31.927  0.00  0.00    +0.041 A 
ATOM     27  C   UNL A   1      32.468 -33.294 -31.390  0.00  0.00    -0.005 A 
ATOM     28  C   UNL A   1      32.972 -32.250 -30.609  0.00  0.00    +0.047 A 
ATOM     29  N   UNL A   1      32.307 -31.090 -30.400  0.00  0.00    -0.251 NA
ATOM     30  C   UNL A   1      31.080 -30.940 -30.918  0.00  0.00    +0.073 A 
ATOM     31  C   UNL A   1      30.406 -29.749 -30.678  0.00  0.00    -0.036 A 
ATOM     32  C   UNL A   1      29.115 -29.517 -31.158  0.00  0.00    -0.060 A 
ATOM     33  C   UNL A   1      28.471 -30.502 -31.891  0.00  0.00    -0.061 A 
ATOM     34  C   UNL A   1      29.132 -31.703 -32.149  0.00  0.00    -0.051 A 
ATOM     35  C   UNL A   1      30.450 -31.937 -31.685  0.00  0.00    +0.021 A 
ATOM     36  C   UNL A   1      34.342 -32.319 -29.983  0.00  0.00    -0.010 C 
ATOM     37  C   UNL A   1      34.866 -33.743 -29.845  0.00  0.00    -0.047 C 
ATOM     38  C   UNL A   1      34.727 -34.469 -31.172  0.00  0.00    -0.049 C 
ATOM     39  C   UNL A   1      33.258 -34.568 -31.580  0.00  0.00    -0.024 C 
ENDBRANCH  24  26
ENDBRANCH  23  24
ENDBRANCH  22  23
ENDBRANCH  21  22
ENDBRANCH   1  21
TORSDOF 13
ENDMDL
MODEL 12
REMARK VINA RESULT:    -7.384     18.471     21.232
REMARK INTER + INTRA:         -14.161
REMARK INTER:                 -11.459
REMARK INTRA:                  -2.702
REMARK UNBOUND:                -1.381
REMARK  Name = cpd140.pdb
REMARK  14 active torsions:
REMARK  status: ('A' for Active; 'I' for Inactive)
REMARK    1  A    between atoms: C_1  and  C_2
REMARK    2  A    between atoms: C_2  and  C_4
REMARK    3  A    between atoms: C_4  and  C_5
REMARK    4  A    between atoms: C_4  and  C_13
REMARK    5  A    between atoms: C_5  and  C_6
REMARK    6  A    between atoms: C_9  and  O_10
REMARK    7  A    between atoms: N_15  and  C_16
REMARK    8  A    between atoms: C_16  and  C_17
REMARK    9  A    between atoms: C_17  and  C_18
REMARK   10  A    between atoms: C_18  and  C_19
REMARK   11  A    between atoms: C_19  and  C_20
REMARK   12  A    between atoms: C_20  and  C_21
REMARK   13  A    between atoms: C_21  and  N_22
REMARK   14  A    between atoms: N_22  and  C_23
REMARK                            x       y       z     vdW  Elec       q    Type
REMARK                         _______ _______ _______ _____ _____    ______ ____
ROOT
ATOM      1  C   UNL A   1      47.168 -18.161 -35.331  0.00  0.00    -0.052 C 
ENDROOT
BRANCH   1   2
ATOM      2  C   UNL A   1      47.260 -18.161 -36.855  0.00  0.00    -0.037 C 
BRANCH   2   3
ATOM      3  C   UNL A   1      47.059 -16.776 -37.462  0.00  0.00    +0.012 C 
BRANCH   3   6
ATOM      4  C   UNL A   1      46.130 -16.791 -39.741  0.00  0.00    +0.224 C 
ATOM      5  O   UNL A   1      47.230 -16.608 -40.255  0.00  0.00    -0.275 OA
ATOM      6  N   UNL A   1      45.932 -16.791 -38.376  0.00  0.00    -0.315 N 
ATOM      7  H   UNL A   1      45.015 -16.802 -38.018  0.00  0.00    +0.000 HD
BRANCH   4   8
ATOM      8  C   UNL A   1      44.893 -17.004 -40.590  0.00  0.00    +0.097 C 
BRANCH   8  10
ATOM      9  C   UNL A   1      43.531 -15.136 -41.731  0.00  0.00    -0.005 C 
ATOM     10  C   UNL A   1      43.952 -15.823 -40.456  0.00  0.00    +0.142 C 
ATOM     11  O   UNL A   1      43.594 -15.392 -39.358  0.00  0.00    -0.297 OA
ENDBRANCH   8  10
BRANCH   8  12
ATOM     12  C   UNL A   1      44.179 -18.326 -40.265  0.00  0.00    -0.010 C 
BRANCH  12  13
ATOM     13  C   UNL A   1      44.771 -19.526 -40.969  0.00  0.00    -0.046 A 
ATOM     14  C   UNL A   1      44.324 -19.896 -42.246  0.00  0.00    -0.055 A 
ATOM     15  C   UNL A   1      44.848 -21.020 -42.889  0.00  0.00    -0.020 A 
ATOM     16  C   UNL A   1      45.831 -21.773 -42.257  0.00  0.00    +0.117 A 
ATOM     17  C   UNL A   1      46.299 -21.416 -40.998  0.00  0.00    -0.020 A 
ATOM     18  C   UNL A   1      45.772 -20.294 -40.354  0.00  0.00    -0.055 A 
BRANCH  16  19
ATOM     19  O   UNL A   1      46.369 -22.877 -42.848  0.00  0.00    -0.507 OA
ATOM     20  H   UNL A   1      46.846 -22.794 -43.650  0.00  0.00    +0.000 HD
ENDBRANCH  16  19
ENDBRANCH  12  13
ENDBRANCH   8  12
ENDBRANCH   4   8
ENDBRANCH   3   6
ENDBRANCH   2   3
ENDBRANCH   1   2
BRANCH   1  21
ATOM     21  C   UNL A   1      45.703 -18.218 -34.892  0.00  0.00    -0.052 C 
BRANCH  21  22
ATOM     22  C   UNL A   1      44.943 -19.358 -35.568  0.00  0.00    -0.037 C 
BRANCH  22  23
ATOM     23  C   UNL A   1      43.574 -19.561 -34.918  0.00  0.00    +0.009 C 
BRANCH  23  24
ATOM     24  N   UNL A   1      43.169 -20.964 -35.071  0.00  0.00    -0.343 N 
ATOM     25  H   UNL A   1      43.742 -21.732 -34.847  0.00  0.00    +0.000 HD
BRANCH  24  26
ATOM     26  C   UNL A   1      41.843 -21.075 -35.586  0.00  0.00    +0.041 A 
ATOM     27  C   UNL A   1      41.630 -21.264 -36.967  0.00  0.00    -0.005 A 
ATOM     28  C   UNL A   1      40.311 -21.439 -37.398  0.00  0.00    +0.047 A 
ATOM     29  N   UNL A   1      39.254 -21.494 -36.555  0.00  0.00    -0.251 NA
ATOM     30  C   UNL A   1      39.458 -21.322 -35.241  0.00  0.00    +0.073 A 
ATOM     31  C   UNL A   1      38.359 -21.365 -34.394  0.00  0.00    -0.036 A 
ATOM     32  C   UNL A   1      38.478 -21.172 -33.015  0.00  0.00    -0.060 A 
ATOM     33  C   UNL A   1      39.724 -20.920 -32.464  0.00  0.00    -0.061 A 
ATOM     34  C   UNL A   1      40.843 -20.880 -33.297  0.00  0.00    -0.051 A 
ATOM     35  C   UNL A   1      40.735 -21.097 -34.693  0.00  0.00    +0.021 A 
ATOM     36  C   UNL A   1      39.974 -21.641 -38.853  0.00  0.00    -0.010 C 
ATOM     37  C   UNL A   1      41.062 -21.140 -39.796  0.00  0.00    -0.047 C 
ATOM     38  C   UNL A   1      42.408 -21.695 -39.362  0.00  0.00    -0.049 C 
ATOM     39  C   UNL A   1      42.766 -21.205 -37.960  0.00  0.00    -0.024 C 
ENDBRANCH  24  26
ENDBRANCH  23  24
ENDBRANCH  22  23
ENDBRANCH  21  22
ENDBRANCH   1  21
TORSDOF 13
ENDMDL
MODEL 13
REMARK VINA RESULT:    -7.366     17.698     20.203
REMARK INTER + INTRA:         -14.130
REMARK INTER:                 -10.799
REMARK INTRA:                  -3.331
REMARK UNBOUND:                -1.381
REMARK  Name = cpd140.pdb
REMARK  14 active torsions:
REMARK  status: ('A' for Active; 'I' for Inactive)
REMARK    1  A    between atoms: C_1  and  C_2
REMARK    2  A    between atoms: C_2  and  C_4
REMARK    3  A    between atoms: C_4  and  C_5
REMARK    4  A    between atoms: C_4  and  C_13
REMARK    5  A    between atoms: C_5  and  C_6
REMARK    6  A    between atoms: C_9  and  O_10
REMARK    7  A    between atoms: N_15  and  C_16
REMARK    8  A    between atoms: C_16  and  C_17
REMARK    9  A    between atoms: C_17  and  C_18
REMARK   10  A    between atoms: C_18  and  C_19
REMARK   11  A    between atoms: C_19  and  C_20
REMARK   12  A    between atoms: C_20  and  C_21
REMARK   13  A    between atoms: C_21  and  N_22
REMARK   14  A    between atoms: N_22  and  C_23
REMARK                            x       y       z     vdW  Elec       q    Type
REMARK                         _______ _______ _______ _____ _____    ______ ____
ROOT
ATOM      1  C   UNL A   1      43.420 -16.333 -34.728  0.00  0.00    -0.052 C 
ENDROOT
BRANCH   1   2
ATOM      2  C   UNL A   1      43.753 -16.863 -33.336  0.00  0.00    -0.037 C 
BRANCH   2   3
ATOM      3  C   UNL A   1      44.517 -18.183 -33.370  0.00  0.00    +0.012 C 
BRANCH   3   6
ATOM      4  C   UNL A   1      45.579 -19.050 -35.414  0.00  0.00    +0.224 C 
ATOM      5  O   UNL A   1      44.854 -20.041 -35.442  0.00  0.00    -0.275 OA
ATOM      6  N   UNL A   1      45.553 -18.132 -34.384  0.00  0.00    -0.315 N 
ATOM      7  H   UNL A   1      46.247 -17.435 -34.337  0.00  0.00    +0.000 HD
BRANCH   4   8
ATOM      8  C   UNL A   1      46.585 -18.783 -36.515  0.00  0.00    +0.097 C 
BRANCH   8  10
ATOM      9  C   UNL A   1      47.488 -16.389 -36.831  0.00  0.00    -0.005 C 
ATOM     10  C   UNL A   1      47.558 -17.701 -36.089  0.00  0.00    +0.142 C 
ATOM     11  O   UNL A   1      48.416 -17.894 -35.226  0.00  0.00    -0.297 OA
ENDBRANCH   8  10
BRANCH   8  12
ATOM     12  C   UNL A   1      45.912 -18.432 -37.852  0.00  0.00    -0.010 C 
BRANCH  12  13
ATOM     13  C   UNL A   1      46.185 -19.435 -38.951  0.00  0.00    -0.046 A 
ATOM     14  C   UNL A   1      46.130 -19.047 -40.298  0.00  0.00    -0.055 A 
ATOM     15  C   UNL A   1      46.354 -19.975 -41.318  0.00  0.00    -0.020 A 
ATOM     16  C   UNL A   1      46.644 -21.294 -40.991  0.00  0.00    +0.117 A 
ATOM     17  C   UNL A   1      46.717 -21.696 -39.663  0.00  0.00    -0.020 A 
ATOM     18  C   UNL A   1      46.489 -20.769 -38.643  0.00  0.00    -0.055 A 
BRANCH  16  19
ATOM     19  O   UNL A   1      46.868 -22.232 -41.954  0.00  0.00    -0.507 OA
ATOM     20  H   UNL A   1      47.008 -21.968 -42.842  0.00  0.00    +0.000 HD
ENDBRANCH  16  19
ENDBRANCH  12  13
ENDBRANCH   8  12
ENDBRANCH   4   8
ENDBRANCH   3   6
ENDBRANCH   2   3
ENDBRANCH   1   2
BRANCH   1  21
ATOM     21  C   UNL A   1      41.911 -16.113 -34.861  0.00  0.00    -0.052 C 
BRANCH  21  22
ATOM     22  C   UNL A   1      41.133 -17.427 -34.837  0.00  0.00    -0.037 C 
BRANCH  22  23
ATOM     23  C   UNL A   1      41.393 -18.238 -36.107  0.00  0.00    +0.009 C 
BRANCH  23  24
ATOM     24  N   UNL A   1      42.034 -19.508 -35.747  0.00  0.00    -0.343 N 
ATOM     25  H   UNL A   1      42.844 -19.582 -35.192  0.00  0.00    +0.000 HD
BRANCH  24  26
ATOM     26  C   UNL A   1      41.338 -20.624 -36.302  0.00  0.00    +0.041 A 
ATOM     27  C   UNL A   1      41.626 -21.063 -37.611  0.00  0.00    -0.005 A 
ATOM     28  C   UNL A   1      40.963 -22.205 -38.069  0.00  0.00    +0.047 A 
ATOM     29  N   UNL A   1      40.116 -22.930 -37.302  0.00  0.00    -0.251 NA
ATOM     30  C   UNL A   1      39.849 -22.518 -36.055  0.00  0.00    +0.073 A 
ATOM     31  C   UNL A   1      38.964 -23.266 -35.290  0.00  0.00    -0.036 A 
ATOM     32  C   UNL A   1      38.611 -22.896 -33.990  0.00  0.00    -0.060 A 
ATOM     33  C   UNL A   1      39.146 -21.742 -33.438  0.00  0.00    -0.061 A 
ATOM     34  C   UNL A   1      40.041 -20.979 -34.187  0.00  0.00    -0.051 A 
ATOM     35  C   UNL A   1      40.423 -21.360 -35.498  0.00  0.00    +0.021 A 
ATOM     36  C   UNL A   1      41.193 -22.753 -39.454  0.00  0.00    -0.010 C 
ATOM     37  C   UNL A   1      41.763 -21.720 -40.419  0.00  0.00    -0.047 C 
ATOM     38  C   UNL A   1      42.965 -21.039 -39.787  0.00  0.00    -0.049 C 
ATOM     39  C   UNL A   1      42.555 -20.292 -38.519  0.00  0.00    -0.024 C 
ENDBRANCH  24  26
ENDBRANCH  23  24
ENDBRANCH  22  23
ENDBRANCH  21  22
ENDBRANCH   1  21
TORSDOF 13
ENDMDL
MODEL 14
REMARK VINA RESULT:    -7.321     18.983     21.793
REMARK INTER + INTRA:         -14.053
REMARK INTER:                 -10.538
REMARK INTRA:                  -3.515
REMARK UNBOUND:                -1.381
REMARK  Name = cpd140.pdb
REMARK  14 active torsions:
REMARK  status: ('A' for Active; 'I' for Inactive)
REMARK    1  A    between atoms: C_1  and  C_2
REMARK    2  A    between atoms: C_2  and  C_4
REMARK    3  A    between atoms: C_4  and  C_5
REMARK    4  A    between atoms: C_4  and  C_13
REMARK    5  A    between atoms: C_5  and  C_6
REMARK    6  A    between atoms: C_9  and  O_10
REMARK    7  A    between atoms: N_15  and  C_16
REMARK    8  A    between atoms: C_16  and  C_17
REMARK    9  A    between atoms: C_17  and  C_18
REMARK   10  A    between atoms: C_18  and  C_19
REMARK   11  A    between atoms: C_19  and  C_20
REMARK   12  A    between atoms: C_20  and  C_21
REMARK   13  A    between atoms: C_21  and  N_22
REMARK   14  A    between atoms: N_22  and  C_23
REMARK                            x       y       z     vdW  Elec       q    Type
REMARK                         _______ _______ _______ _____ _____    ______ ____
ROOT
ATOM      1  C   UNL A   1      39.882 -18.340 -37.188  0.00  0.00    -0.052 C 
ENDROOT
BRANCH   1   2
ATOM      2  C   UNL A   1      40.755 -17.742 -38.289  0.00  0.00    -0.037 C 
BRANCH   2   3
ATOM      3  C   UNL A   1      42.229 -17.666 -37.903  0.00  0.00    +0.012 C 
BRANCH   3   6
ATOM      4  C   UNL A   1      44.327 -17.158 -39.085  0.00  0.00    +0.224 C 
ATOM      5  O   UNL A   1      44.758 -16.482 -38.154  0.00  0.00    -0.275 OA
ATOM      6  N   UNL A   1      43.058 -17.699 -39.093  0.00  0.00    -0.315 N 
ATOM      7  H   UNL A   1      42.711 -18.112 -39.917  0.00  0.00    +0.000 HD
BRANCH   4   8
ATOM      8  C   UNL A   1      45.169 -17.423 -40.316  0.00  0.00    +0.097 C 
BRANCH   8  10
ATOM      9  C   UNL A   1      47.336 -16.084 -40.712  0.00  0.00    -0.005 C 
ATOM     10  C   UNL A   1      45.831 -16.142 -40.787  0.00  0.00    +0.142 C 
ATOM     11  O   UNL A   1      45.177 -15.162 -41.151  0.00  0.00    -0.297 OA
ENDBRANCH   8  10
BRANCH   8  12
ATOM     12  C   UNL A   1      44.362 -18.081 -41.447  0.00  0.00    -0.010 C 
BRANCH  12  13
ATOM     13  C   UNL A   1      44.866 -19.454 -41.834  0.00  0.00    -0.046 A 
ATOM     14  C   UNL A   1      46.128 -19.896 -41.407  0.00  0.00    -0.055 A 
ATOM     15  C   UNL A   1      46.609 -21.152 -41.784  0.00  0.00    -0.020 A 
ATOM     16  C   UNL A   1      45.822 -21.975 -42.582  0.00  0.00    +0.117 A 
ATOM     17  C   UNL A   1      44.564 -21.563 -43.003  0.00  0.00    -0.020 A 
ATOM     18  C   UNL A   1      44.085 -20.305 -42.629  0.00  0.00    -0.055 A 
BRANCH  16  19
ATOM     19  O   UNL A   1      46.253 -23.207 -42.973  0.00  0.00    -0.507 OA
ATOM     20  H   UNL A   1      46.172 -23.938 -42.392  0.00  0.00    +0.000 HD
ENDBRANCH  16  19
ENDBRANCH  12  13
ENDBRANCH   8  12
ENDBRANCH   4   8
ENDBRANCH   3   6
ENDBRANCH   2   3
ENDBRANCH   1   2
BRANCH   1  21
ATOM     21  C   UNL A   1      40.515 -18.084 -35.818  0.00  0.00    -0.052 C 
BRANCH  21  22
ATOM     22  C   UNL A   1      40.442 -19.312 -34.912  0.00  0.00    -0.037 C 
BRANCH  22  23
ATOM     23  C   UNL A   1      41.832 -19.700 -34.407  0.00  0.00    +0.009 C 
BRANCH  23  24
ATOM     24  N   UNL A   1      42.226 -20.980 -35.009  0.00  0.00    -0.343 N 
ATOM     25  H   UNL A   1      42.054 -21.859 -34.600  0.00  0.00    +0.000 HD
BRANCH  24  26
ATOM     26  C   UNL A   1      42.887 -20.792 -36.259  0.00  0.00    +0.041 A 
ATOM     27  C   UNL A   1      44.211 -20.308 -36.297  0.00  0.00    -0.005 A 
ATOM     28  C   UNL A   1      44.828 -20.215 -37.549  0.00  0.00    +0.047 A 
ATOM     29  N   UNL A   1      44.241 -20.620 -38.699  0.00  0.00    -0.251 NA
ATOM     30  C   UNL A   1      42.986 -21.088 -38.661  0.00  0.00    +0.073 A 
ATOM     31  C   UNL A   1      42.394 -21.483 -39.854  0.00  0.00    -0.036 A 
ATOM     32  C   UNL A   1      41.082 -21.960 -39.909  0.00  0.00    -0.060 A 
ATOM     33  C   UNL A   1      40.333 -22.037 -38.746  0.00  0.00    -0.061 A 
ATOM     34  C   UNL A   1      40.910 -21.652 -37.536  0.00  0.00    -0.051 A 
ATOM     35  C   UNL A   1      42.248 -21.189 -37.467  0.00  0.00    +0.021 A 
ATOM     36  C   UNL A   1      46.238 -19.704 -37.701  0.00  0.00    -0.010 C 
ATOM     37  C   UNL A   1      46.699 -18.859 -36.519  0.00  0.00    -0.047 C 
ATOM     38  C   UNL A   1      46.418 -19.598 -35.222  0.00  0.00    -0.049 C 
ATOM     39  C   UNL A   1      44.918 -19.832 -35.050  0.00  0.00    -0.024 C 
ENDBRANCH  24  26
ENDBRANCH  23  24
ENDBRANCH  22  23
ENDBRANCH  21  22
ENDBRANCH   1  21
TORSDOF 13
ENDMDL
MODEL 15
REMARK VINA RESULT:    -7.303      5.512      8.522
REMARK INTER + INTRA:         -14.021
REMARK INTER:                 -11.317
REMARK INTRA:                  -2.705
REMARK UNBOUND:                -1.381
REMARK  Name = cpd140.pdb
REMARK  14 active torsions:
REMARK  status: ('A' for Active; 'I' for Inactive)
REMARK    1  A    between atoms: C_1  and  C_2
REMARK    2  A    between atoms: C_2  and  C_4
REMARK    3  A    between atoms: C_4  and  C_5
REMARK    4  A    between atoms: C_4  and  C_13
REMARK    5  A    between atoms: C_5  and  C_6
REMARK    6  A    between atoms: C_9  and  O_10
REMARK    7  A    between atoms: N_15  and  C_16
REMARK    8  A    between atoms: C_16  and  C_17
REMARK    9  A    between atoms: C_17  and  C_18
REMARK   10  A    between atoms: C_18  and  C_19
REMARK   11  A    between atoms: C_19  and  C_20
REMARK   12  A    between atoms: C_20  and  C_21
REMARK   13  A    between atoms: C_21  and  N_22
REMARK   14  A    between atoms: N_22  and  C_23
REMARK                            x       y       z     vdW  Elec       q    Type
REMARK                         _______ _______ _______ _____ _____    ______ ____
ROOT
ATOM      1  C   UNL A   1      30.637 -37.568 -30.784  0.00  0.00    -0.052 C 
ENDROOT
BRANCH   1   2
ATOM      2  C   UNL A   1      31.414 -36.762 -29.745  0.00  0.00    -0.037 C 
BRANCH   2   3
ATOM      3  C   UNL A   1      32.442 -37.600 -28.992  0.00  0.00    +0.012 C 
BRANCH   3   6
ATOM      4  C   UNL A   1      34.875 -37.488 -29.354  0.00  0.00    +0.224 C 
ATOM      5  O   UNL A   1      35.061 -36.863 -28.313  0.00  0.00    -0.275 OA
ATOM      6  N   UNL A   1      33.616 -37.809 -29.820  0.00  0.00    -0.315 N 
ATOM      7  H   UNL A   1      33.514 -38.184 -30.724  0.00  0.00    +0.000 HD
BRANCH   4   8
ATOM      8  C   UNL A   1      36.035 -37.928 -30.222  0.00  0.00    +0.097 C 
BRANCH   8  10
ATOM      9  C   UNL A   1      36.386 -40.429 -29.705  0.00  0.00    -0.005 C 
ATOM     10  C   UNL A   1      35.859 -39.374 -30.645  0.00  0.00    +0.142 C 
ATOM     11  O   UNL A   1      35.372 -39.683 -31.734  0.00  0.00    -0.297 OA
ENDBRANCH   8  10
BRANCH   8  12
ATOM     12  C   UNL A   1      37.395 -37.709 -29.540  0.00  0.00    -0.010 C 
BRANCH  12  13
ATOM     13  C   UNL A   1      38.397 -36.974 -30.401  0.00  0.00    -0.046 A 
ATOM     14  C   UNL A   1      37.964 -36.057 -31.372  0.00  0.00    -0.055 A 
ATOM     15  C   UNL A   1      38.884 -35.396 -32.190  0.00  0.00    -0.020 A 
ATOM     16  C   UNL A   1      40.243 -35.643 -32.029  0.00  0.00    +0.117 A 
ATOM     17  C   UNL A   1      40.693 -36.535 -31.064  0.00  0.00    -0.020 A 
ATOM     18  C   UNL A   1      39.773 -37.199 -30.250  0.00  0.00    -0.055 A 
BRANCH  16  19
ATOM     19  O   UNL A   1      41.174 -35.020 -32.806  0.00  0.00    -0.507 OA
ATOM     20  H   UNL A   1      41.286 -35.277 -33.700  0.00  0.00    +0.000 HD
ENDBRANCH  16  19
ENDBRANCH  12  13
ENDBRANCH   8  12
ENDBRANCH   4   8
ENDBRANCH   3   6
ENDBRANCH   2   3
ENDBRANCH   1   2
BRANCH   1  21
ATOM     21  C   UNL A   1      30.945 -37.049 -32.190  0.00  0.00    -0.052 C 
BRANCH  21  22
ATOM     22  C   UNL A   1      29.793 -36.228 -32.766  0.00  0.00    -0.037 C 
BRANCH  22  23
ATOM     23  C   UNL A   1      29.657 -34.891 -32.034  0.00  0.00    +0.009 C 
BRANCH  23  24
ATOM     24  N   UNL A   1      30.532 -33.900 -32.672  0.00  0.00    -0.343 N 
ATOM     25  H   UNL A   1      30.636 -33.798 -33.646  0.00  0.00    +0.000 HD
BRANCH  24  26
ATOM     26  C   UNL A   1      31.215 -33.102 -31.705  0.00  0.00    +0.041 A 
ATOM     27  C   UNL A   1      30.533 -32.073 -31.023  0.00  0.00    -0.005 A 
ATOM     28  C   UNL A   1      31.237 -31.376 -30.037  0.00  0.00    +0.047 A 
ATOM     29  N   UNL A   1      32.505 -31.681 -29.673  0.00  0.00    -0.251 NA
ATOM     30  C   UNL A   1      33.149 -32.665 -30.315  0.00  0.00    +0.073 A 
ATOM     31  C   UNL A   1      34.454 -32.952 -29.938  0.00  0.00    -0.036 A 
ATOM     32  C   UNL A   1      35.208 -33.944 -30.571  0.00  0.00    -0.060 A 
ATOM     33  C   UNL A   1      34.650 -34.666 -31.614  0.00  0.00    -0.061 A 
ATOM     34  C   UNL A   1      33.338 -34.398 -32.005  0.00  0.00    -0.051 A 
ATOM     35  C   UNL A   1      32.559 -33.409 -31.354  0.00  0.00    +0.021 A 
ATOM     36  C   UNL A   1      30.604 -30.254 -29.255  0.00  0.00    -0.010 C 
ATOM     37  C   UNL A   1      29.397 -29.642 -29.956  0.00  0.00    -0.047 C 
ATOM     38  C   UNL A   1      28.445 -30.744 -30.388  0.00  0.00    -0.049 C 
ATOM     39  C   UNL A   1      29.122 -31.678 -31.390  0.00  0.00    -0.024 C 
ENDBRANCH  24  26
ENDBRANCH  23  24
ENDBRANCH  22  23
ENDBRANCH  21  22
ENDBRANCH   1  21
TORSDOF 13
ENDMDL
MODEL 16
REMARK VINA RESULT:    -7.293     17.171     20.723
REMARK INTER + INTRA:         -14.003
REMARK INTER:                  -9.052
REMARK INTRA:                  -4.952
REMARK UNBOUND:                -1.381
REMARK  Name = cpd140.pdb
REMARK  14 active torsions:
REMARK  status: ('A' for Active; 'I' for Inactive)
REMARK    1  A    between atoms: C_1  and  C_2
REMARK    2  A    between atoms: C_2  and  C_4
REMARK    3  A    between atoms: C_4  and  C_5
REMARK    4  A    between atoms: C_4  and  C_13
REMARK    5  A    between atoms: C_5  and  C_6
REMARK    6  A    between atoms: C_9  and  O_10
REMARK    7  A    between atoms: N_15  and  C_16
REMARK    8  A    between atoms: C_16  and  C_17
REMARK    9  A    between atoms: C_17  and  C_18
REMARK   10  A    between atoms: C_18  and  C_19
REMARK   11  A    between atoms: C_19  and  C_20
REMARK   12  A    between atoms: C_20  and  C_21
REMARK   13  A    between atoms: C_21  and  N_22
REMARK   14  A    between atoms: N_22  and  C_23
REMARK                            x       y       z     vdW  Elec       q    Type
REMARK                         _______ _______ _______ _____ _____    ______ ____
ROOT
ATOM      1  C   UNL A   1      45.827 -17.354 -34.696  0.00  0.00    -0.052 C 
ENDROOT
BRANCH   1   2
ATOM      2  C   UNL A   1      46.809 -17.979 -35.684  0.00  0.00    -0.037 C 
BRANCH   2   3
ATOM      3  C   UNL A   1      46.461 -17.677 -37.138  0.00  0.00    +0.012 C 
BRANCH   3   6
ATOM      4  C   UNL A   1      44.335 -18.606 -37.961  0.00  0.00    +0.224 C 
ATOM      5  O   UNL A   1      43.694 -17.627 -37.587  0.00  0.00    -0.275 OA
ATOM      6  N   UNL A   1      45.680 -18.764 -37.699  0.00  0.00    -0.315 N 
ATOM      7  H   UNL A   1      46.115 -19.625 -37.896  0.00  0.00    +0.000 HD
BRANCH   4   8
ATOM      8  C   UNL A   1      43.670 -19.734 -38.722  0.00  0.00    +0.097 C 
BRANCH   8  10
ATOM      9  C   UNL A   1      43.819 -21.043 -40.938  0.00  0.00    -0.005 C 
ATOM     10  C   UNL A   1      44.322 -19.909 -40.080  0.00  0.00    +0.142 C 
ATOM     11  O   UNL A   1      45.267 -19.208 -40.449  0.00  0.00    -0.297 OA
ENDBRANCH   8  10
BRANCH   8  12
ATOM     12  C   UNL A   1      42.151 -19.538 -38.855  0.00  0.00    -0.010 C 
BRANCH  12  13
ATOM     13  C   UNL A   1      41.338 -20.659 -38.248  0.00  0.00    -0.046 A 
ATOM     14  C   UNL A   1      39.951 -20.722 -38.450  0.00  0.00    -0.055 A 
ATOM     15  C   UNL A   1      39.191 -21.740 -37.868  0.00  0.00    -0.020 A 
ATOM     16  C   UNL A   1      39.821 -22.706 -37.091  0.00  0.00    +0.117 A 
ATOM     17  C   UNL A   1      41.195 -22.669 -36.892  0.00  0.00    -0.020 A 
ATOM     18  C   UNL A   1      41.954 -21.649 -37.469  0.00  0.00    -0.055 A 
BRANCH  16  19
ATOM     19  O   UNL A   1      39.117 -23.715 -36.505  0.00  0.00    -0.507 OA
ATOM     20  H   UNL A   1      39.554 -24.503 -36.248  0.00  0.00    +0.000 HD
ENDBRANCH  16  19
ENDBRANCH  12  13
ENDBRANCH   8  12
ENDBRANCH   4   8
ENDBRANCH   3   6
ENDBRANCH   2   3
ENDBRANCH   1   2
BRANCH   1  21
ATOM     21  C   UNL A   1      44.975 -18.443 -34.040  0.00  0.00    -0.052 C 
BRANCH  21  22
ATOM     22  C   UNL A   1      43.876 -17.859 -33.155  0.00  0.00    -0.037 C 
BRANCH  22  23
ATOM     23  C   UNL A   1      42.633 -17.524 -33.980  0.00  0.00    +0.009 C 
BRANCH  23  24
ATOM     24  N   UNL A   1      42.437 -18.560 -35.002  0.00  0.00    -0.343 N 
ATOM     25  H   UNL A   1      43.141 -18.873 -35.614  0.00  0.00    +0.000 HD
BRANCH  24  26
ATOM     26  C   UNL A   1      41.098 -19.055 -34.998  0.00  0.00    +0.041 A 
ATOM     27  C   UNL A   1      40.756 -20.175 -34.213  0.00  0.00    -0.005 A 
ATOM     28  C   UNL A   1      39.414 -20.566 -34.197  0.00  0.00    +0.047 A 
ATOM     29  N   UNL A   1      38.435 -19.890 -34.843  0.00  0.00    -0.251 NA
ATOM     30  C   UNL A   1      38.759 -18.820 -35.582  0.00  0.00    +0.073 A 
ATOM     31  C   UNL A   1      37.743 -18.150 -36.250  0.00  0.00    -0.036 A 
ATOM     32  C   UNL A   1      37.995 -17.040 -37.062  0.00  0.00    -0.060 A 
ATOM     33  C   UNL A   1      39.296 -16.590 -37.220  0.00  0.00    -0.061 A 
ATOM     34  C   UNL A   1      40.331 -17.245 -36.552  0.00  0.00    -0.051 A 
ATOM     35  C   UNL A   1      40.082 -18.356 -35.709  0.00  0.00    +0.021 A 
ATOM     36  C   UNL A   1      38.944 -21.754 -33.397  0.00  0.00    -0.010 C 
ATOM     37  C   UNL A   1      40.064 -22.733 -33.065  0.00  0.00    -0.047 C 
ATOM     38  C   UNL A   1      41.242 -21.979 -32.470  0.00  0.00    -0.049 C 
ATOM     39  C   UNL A   1      41.803 -20.977 -33.477  0.00  0.00    -0.024 C 
ENDBRANCH  24  26
ENDBRANCH  23  24
ENDBRANCH  22  23
ENDBRANCH  21  22
ENDBRANCH   1  21
TORSDOF 13
ENDMDL
MODEL 17
REMARK VINA RESULT:    -7.240     20.160     23.251
REMARK INTER + INTRA:         -13.912
REMARK INTER:                  -9.393
REMARK INTRA:                  -4.520
REMARK UNBOUND:                -1.381
REMARK  Name = cpd140.pdb
REMARK  14 active torsions:
REMARK  status: ('A' for Active; 'I' for Inactive)
REMARK    1  A    between atoms: C_1  and  C_2
REMARK    2  A    between atoms: C_2  and  C_4
REMARK    3  A    between atoms: C_4  and  C_5
REMARK    4  A    between atoms: C_4  and  C_13
REMARK    5  A    between atoms: C_5  and  C_6
REMARK    6  A    between atoms: C_9  and  O_10
REMARK    7  A    between atoms: N_15  and  C_16
REMARK    8  A    between atoms: C_16  and  C_17
REMARK    9  A    between atoms: C_17  and  C_18
REMARK   10  A    between atoms: C_18  and  C_19
REMARK   11  A    between atoms: C_19  and  C_20
REMARK   12  A    between atoms: C_20  and  C_21
REMARK   13  A    between atoms: C_21  and  N_22
REMARK   14  A    between atoms: N_22  and  C_23
REMARK                            x       y       z     vdW  Elec       q    Type
REMARK                         _______ _______ _______ _____ _____    ______ ____
ROOT
ATOM      1  C   UNL A   1      40.784 -21.676 -38.433  0.00  0.00    -0.052 C 
ENDROOT
BRANCH   1   2
ATOM      2  C   UNL A   1      41.057 -21.047 -39.797  0.00  0.00    -0.037 C 
BRANCH   2   3
ATOM      3  C   UNL A   1      42.081 -21.827 -40.616  0.00  0.00    +0.012 C 
BRANCH   3   6
ATOM      4  C   UNL A   1      44.215 -20.605 -40.492  0.00  0.00    +0.224 C 
ATOM      5  O   UNL A   1      44.398 -20.925 -39.321  0.00  0.00    -0.275 OA
ATOM      6  N   UNL A   1      43.062 -20.919 -41.182  0.00  0.00    -0.315 N 
ATOM      7  H   UNL A   1      42.903 -20.522 -42.069  0.00  0.00    +0.000 HD
BRANCH   4   8
ATOM      8  C   UNL A   1      45.250 -19.808 -41.259  0.00  0.00    +0.097 C 
BRANCH   8  10
ATOM      9  C   UNL A   1      47.732 -20.048 -41.913  0.00  0.00    -0.005 C 
ATOM     10  C   UNL A   1      46.393 -20.706 -41.691  0.00  0.00    +0.142 C 
ATOM     11  O   UNL A   1      46.232 -21.906 -41.921  0.00  0.00    -0.297 OA
ENDBRANCH   8  10
BRANCH   8  12
ATOM     12  C   UNL A   1      45.764 -18.596 -40.464  0.00  0.00    -0.010 C 
BRANCH  12  13
ATOM     13  C   UNL A   1      45.140 -17.284 -40.885  0.00  0.00    -0.046 A 
ATOM     14  C   UNL A   1      45.889 -16.098 -40.854  0.00  0.00    -0.055 A 
ATOM     15  C   UNL A   1      45.310 -14.879 -41.216  0.00  0.00    -0.020 A 
ATOM     16  C   UNL A   1      43.980 -14.846 -41.620  0.00  0.00    +0.117 A 
ATOM     17  C   UNL A   1      43.226 -16.012 -41.672  0.00  0.00    -0.020 A 
ATOM     18  C   UNL A   1      43.804 -17.230 -41.306  0.00  0.00    -0.055 A 
BRANCH  16  19
ATOM     19  O   UNL A   1      43.376 -13.679 -41.981  0.00  0.00    -0.507 OA
ATOM     20  H   UNL A   1      43.647 -13.232 -42.758  0.00  0.00    +0.000 HD
ENDBRANCH  16  19
ENDBRANCH  12  13
ENDBRANCH   8  12
ENDBRANCH   4   8
ENDBRANCH   3   6
ENDBRANCH   2   3
ENDBRANCH   1   2
BRANCH   1  21
ATOM     21  C   UNL A   1      40.639 -20.585 -37.370  0.00  0.00    -0.052 C 
BRANCH  21  22
ATOM     22  C   UNL A   1      41.518 -20.850 -36.149  0.00  0.00    -0.037 C 
BRANCH  22  23
ATOM     23  C   UNL A   1      42.524 -19.716 -35.944  0.00  0.00    +0.009 C 
BRANCH  23  24
ATOM     24  N   UNL A   1      43.154 -19.391 -37.230  0.00  0.00    -0.343 N 
ATOM     25  H   UNL A   1      43.095 -19.956 -38.033  0.00  0.00    +0.000 HD
BRANCH  24  26
ATOM     26  C   UNL A   1      43.862 -18.153 -37.169  0.00  0.00    +0.041 A 
ATOM     27  C   UNL A   1      45.215 -18.127 -36.772  0.00  0.00    -0.005 A 
ATOM     28  C   UNL A   1      45.873 -16.894 -36.804  0.00  0.00    +0.047 A 
ATOM     29  N   UNL A   1      45.294 -15.754 -37.250  0.00  0.00    -0.251 NA
ATOM     30  C   UNL A   1      44.011 -15.782 -37.635  0.00  0.00    +0.073 A 
ATOM     31  C   UNL A   1      43.430 -14.599 -38.073  0.00  0.00    -0.036 A 
ATOM     32  C   UNL A   1      42.092 -14.531 -38.470  0.00  0.00    -0.060 A 
ATOM     33  C   UNL A   1      41.307 -15.672 -38.421  0.00  0.00    -0.061 A 
ATOM     34  C   UNL A   1      41.872 -16.872 -37.990  0.00  0.00    -0.051 A 
ATOM     35  C   UNL A   1      43.234 -16.954 -37.608  0.00  0.00    +0.021 A 
ATOM     36  C   UNL A   1      47.316 -16.755 -36.393  0.00  0.00    -0.010 C 
ATOM     37  C   UNL A   1      47.797 -17.892 -35.499  0.00  0.00    -0.047 C 
ATOM     38  C   UNL A   1      47.431 -19.226 -36.129  0.00  0.00    -0.049 C 
ATOM     39  C   UNL A   1      45.914 -19.363 -36.256  0.00  0.00    -0.024 C 
ENDBRANCH  24  26
ENDBRANCH  23  24
ENDBRANCH  22  23
ENDBRANCH  21  22
ENDBRANCH   1  21
TORSDOF 13
ENDMDL
MODEL 18
REMARK VINA RESULT:    -7.238     18.878     21.937
REMARK INTER + INTRA:         -13.908
REMARK INTER:                  -9.802
REMARK INTRA:                  -4.106
REMARK UNBOUND:                -1.381
REMARK  Name = cpd140.pdb
REMARK  14 active torsions:
REMARK  status: ('A' for Active; 'I' for Inactive)
REMARK    1  A    between atoms: C_1  and  C_2
REMARK    2  A    between atoms: C_2  and  C_4
REMARK    3  A    between atoms: C_4  and  C_5
REMARK    4  A    between atoms: C_4  and  C_13
REMARK    5  A    between atoms: C_5  and  C_6
REMARK    6  A    between atoms: C_9  and  O_10
REMARK    7  A    between atoms: N_15  and  C_16
REMARK    8  A    between atoms: C_16  and  C_17
REMARK    9  A    between atoms: C_17  and  C_18
REMARK   10  A    between atoms: C_18  and  C_19
REMARK   11  A    between atoms: C_19  and  C_20
REMARK   12  A    between atoms: C_20  and  C_21
REMARK   13  A    between atoms: C_21  and  N_22
REMARK   14  A    between atoms: N_22  and  C_23
REMARK                            x       y       z     vdW  Elec       q    Type
REMARK                         _______ _______ _______ _____ _____    ______ ____
ROOT
ATOM      1  C   UNL A   1      40.356 -19.490 -37.549  0.00  0.00    -0.052 C 
ENDROOT
BRANCH   1   2
ATOM      2  C   UNL A   1      40.309 -18.090 -36.940  0.00  0.00    -0.037 C 
BRANCH   2   3
ATOM      3  C   UNL A   1      41.464 -17.205 -37.399  0.00  0.00    +0.012 C 
BRANCH   3   6
ATOM      4  C   UNL A   1      43.486 -17.394 -38.791  0.00  0.00    +0.224 C 
ATOM      5  O   UNL A   1      43.855 -16.255 -38.514  0.00  0.00    -0.275 OA
ATOM      6  N   UNL A   1      42.279 -17.913 -38.370  0.00  0.00    -0.315 N 
ATOM      7  H   UNL A   1      41.967 -18.773 -38.732  0.00  0.00    +0.000 HD
BRANCH   4   8
ATOM      8  C   UNL A   1      44.336 -18.305 -39.652  0.00  0.00    +0.097 C 
BRANCH   8  10
ATOM      9  C   UNL A   1      46.401 -17.317 -40.837  0.00  0.00    -0.005 C 
ATOM     10  C   UNL A   1      44.909 -17.538 -40.827  0.00  0.00    +0.142 C 
ATOM     11  O   UNL A   1      44.192 -17.051 -41.704  0.00  0.00    -0.297 OA
ENDBRANCH   8  10
BRANCH   8  12
ATOM     12  C   UNL A   1      43.568 -19.552 -40.122  0.00  0.00    -0.010 C 
BRANCH  12  13
ATOM     13  C   UNL A   1      44.431 -20.559 -40.847  0.00  0.00    -0.046 A 
ATOM     14  C   UNL A   1      45.455 -21.239 -40.170  0.00  0.00    -0.055 A 
ATOM     15  C   UNL A   1      46.273 -22.150 -40.842  0.00  0.00    -0.020 A 
ATOM     16  C   UNL A   1      46.061 -22.392 -42.194  0.00  0.00    +0.117 A 
ATOM     17  C   UNL A   1      45.044 -21.741 -42.880  0.00  0.00    -0.020 A 
ATOM     18  C   UNL A   1      44.229 -20.827 -42.209  0.00  0.00    -0.055 A 
BRANCH  16  19
ATOM     19  O   UNL A   1      46.836 -23.273 -42.889  0.00  0.00    -0.507 OA
ATOM     20  H   UNL A   1      47.497 -22.956 -43.472  0.00  0.00    +0.000 HD
ENDBRANCH  16  19
ENDBRANCH  12  13
ENDBRANCH   8  12
ENDBRANCH   4   8
ENDBRANCH   3   6
ENDBRANCH   2   3
ENDBRANCH   1   2
BRANCH   1  21
ATOM     21  C   UNL A   1      39.934 -20.530 -36.509  0.00  0.00    -0.052 C 
BRANCH  21  22
ATOM     22  C   UNL A   1      41.000 -21.604 -36.303  0.00  0.00    -0.037 C 
BRANCH  22  23
ATOM     23  C   UNL A   1      42.390 -21.064 -36.646  0.00  0.00    +0.009 C 
BRANCH  23  24
ATOM     24  N   UNL A   1      43.199 -20.998 -35.422  0.00  0.00    -0.343 N 
ATOM     25  H   UNL A   1      43.404 -21.774 -34.852  0.00  0.00    +0.000 HD
BRANCH  24  26
ATOM     26  C   UNL A   1      43.650 -19.669 -35.161  0.00  0.00    +0.041 A 
ATOM     27  C   UNL A   1      44.830 -19.188 -35.764  0.00  0.00    -0.005 A 
ATOM     28  C   UNL A   1      45.179 -17.855 -35.525  0.00  0.00    +0.047 A 
ATOM     29  N   UNL A   1      44.413 -17.004 -34.803  0.00  0.00    -0.251 NA
ATOM     30  C   UNL A   1      43.287 -17.461 -34.237  0.00  0.00    +0.073 A 
ATOM     31  C   UNL A   1      42.524 -16.577 -33.485  0.00  0.00    -0.036 A 
ATOM     32  C   UNL A   1      41.349 -16.973 -32.841  0.00  0.00    -0.060 A 
ATOM     33  C   UNL A   1      40.926 -18.290 -32.940  0.00  0.00    -0.061 A 
ATOM     34  C   UNL A   1      41.674 -19.192 -33.695  0.00  0.00    -0.051 A 
ATOM     35  C   UNL A   1      42.854 -18.793 -34.371  0.00  0.00    +0.021 A 
ATOM     36  C   UNL A   1      46.423 -17.244 -36.116  0.00  0.00    -0.010 C 
ATOM     37  C   UNL A   1      47.464 -18.280 -36.523  0.00  0.00    -0.047 C 
ATOM     38  C   UNL A   1      46.809 -19.356 -37.372  0.00  0.00    -0.049 C 
ATOM     39  C   UNL A   1      45.732 -20.089 -36.574  0.00  0.00    -0.024 C 
ENDBRANCH  24  26
ENDBRANCH  23  24
ENDBRANCH  22  23
ENDBRANCH  21  22
ENDBRANCH   1  21
TORSDOF 13
ENDMDL
MODEL 19
REMARK VINA RESULT:    -7.163     18.401     21.258
REMARK INTER + INTRA:         -13.779
REMARK INTER:                 -10.209
REMARK INTRA:                  -3.570
REMARK UNBOUND:                -1.381
REMARK  Name = cpd140.pdb
REMARK  14 active torsions:
REMARK  status: ('A' for Active; 'I' for Inactive)
REMARK    1  A    between atoms: C_1  and  C_2
REMARK    2  A    between atoms: C_2  and  C_4
REMARK    3  A    between atoms: C_4  and  C_5
REMARK    4  A    between atoms: C_4  and  C_13
REMARK    5  A    between atoms: C_5  and  C_6
REMARK    6  A    between atoms: C_9  and  O_10
REMARK    7  A    between atoms: N_15  and  C_16
REMARK    8  A    between atoms: C_16  and  C_17
REMARK    9  A    between atoms: C_17  and  C_18
REMARK   10  A    between atoms: C_18  and  C_19
REMARK   11  A    between atoms: C_19  and  C_20
REMARK   12  A    between atoms: C_20  and  C_21
REMARK   13  A    between atoms: C_21  and  N_22
REMARK   14  A    between atoms: N_22  and  C_23
REMARK                            x       y       z     vdW  Elec       q    Type
REMARK                         _______ _______ _______ _____ _____    ______ ____
ROOT
ATOM      1  C   UNL A   1      44.713 -17.319 -40.780  0.00  0.00    -0.052 C 
ENDROOT
BRANCH   1   2
ATOM      2  C   UNL A   1      46.059 -16.729 -40.368  0.00  0.00    -0.037 C 
BRANCH   2   3
ATOM      3  C   UNL A   1      47.239 -17.615 -40.757  0.00  0.00    +0.012 C 
BRANCH   3   6
ATOM      4  C   UNL A   1      46.698 -19.978 -40.329  0.00  0.00    +0.224 C 
ATOM      5  O   UNL A   1      47.185 -19.948 -39.203  0.00  0.00    -0.275 OA
ATOM      6  N   UNL A   1      46.763 -18.911 -41.202  0.00  0.00    -0.315 N 
ATOM      7  H   UNL A   1      46.483 -19.032 -42.138  0.00  0.00    +0.000 HD
BRANCH   4   8
ATOM      8  C   UNL A   1      46.006 -21.221 -40.851  0.00  0.00    +0.097 C 
BRANCH   8  10
ATOM      9  C   UNL A   1      46.265 -22.977 -42.720  0.00  0.00    -0.005 C 
ATOM     10  C   UNL A   1      46.916 -21.968 -41.806  0.00  0.00    +0.142 C 
ATOM     11  O   UNL A   1      48.139 -21.819 -41.799  0.00  0.00    -0.297 OA
ENDBRANCH   8  10
BRANCH   8  12
ATOM     12  C   UNL A   1      44.650 -20.907 -41.504  0.00  0.00    -0.010 C 
BRANCH  12  13
ATOM     13  C   UNL A   1      43.462 -21.262 -40.638  0.00  0.00    -0.046 A 
ATOM     14  C   UNL A   1      43.559 -21.212 -39.240  0.00  0.00    -0.055 A 
ATOM     15  C   UNL A   1      42.474 -21.566 -38.435  0.00  0.00    -0.020 A 
ATOM     16  C   UNL A   1      41.281 -21.960 -39.031  0.00  0.00    +0.117 A 
ATOM     17  C   UNL A   1      41.159 -22.002 -40.414  0.00  0.00    -0.020 A 
ATOM     18  C   UNL A   1      42.246 -21.653 -41.218  0.00  0.00    -0.055 A 
BRANCH  16  19
ATOM     19  O   UNL A   1      40.197 -22.314 -38.283  0.00  0.00    -0.507 OA
ATOM     20  H   UNL A   1      40.013 -21.864 -37.483  0.00  0.00    +0.000 HD
ENDBRANCH  16  19
ENDBRANCH  12  13
ENDBRANCH   8  12
ENDBRANCH   4   8
ENDBRANCH   3   6
ENDBRANCH   2   3
ENDBRANCH   1   2
BRANCH   1  21
ATOM     21  C   UNL A   1      43.893 -17.680 -39.539  0.00  0.00    -0.052 C 
BRANCH  21  22
ATOM     22  C   UNL A   1      42.457 -17.170 -39.629  0.00  0.00    -0.037 C 
BRANCH  22  23
ATOM     23  C   UNL A   1      41.521 -18.023 -38.771  0.00  0.00    +0.009 C 
BRANCH  23  24
ATOM     24  N   UNL A   1      41.526 -17.513 -37.395  0.00  0.00    -0.343 N 
ATOM     25  H   UNL A   1      41.397 -16.566 -37.155  0.00  0.00    +0.000 HD
BRANCH  24  26
ATOM     26  C   UNL A   1      41.743 -18.558 -36.447  0.00  0.00    +0.041 A 
ATOM     27  C   UNL A   1      40.675 -19.387 -36.046  0.00  0.00    -0.005 A 
ATOM     28  C   UNL A   1      40.967 -20.437 -35.171  0.00  0.00    +0.047 A 
ATOM     29  N   UNL A   1      42.220 -20.725 -34.748  0.00  0.00    -0.251 NA
ATOM     30  C   UNL A   1      43.236 -19.942 -35.136  0.00  0.00    +0.073 A 
ATOM     31  C   UNL A   1      44.512 -20.243 -34.678  0.00  0.00    -0.036 A 
ATOM     32  C   UNL A   1      45.624 -19.466 -35.013  0.00  0.00    -0.060 A 
ATOM     33  C   UNL A   1      45.460 -18.352 -35.820  0.00  0.00    -0.061 A 
ATOM     34  C   UNL A   1      44.189 -18.035 -36.297  0.00  0.00    -0.051 A 
ATOM     35  C   UNL A   1      43.059 -18.830 -35.981  0.00  0.00    +0.021 A 
ATOM     36  C   UNL A   1      39.898 -21.377 -34.676  0.00  0.00    -0.010 C 
ATOM     37  C   UNL A   1      38.493 -20.795 -34.782  0.00  0.00    -0.047 C 
ATOM     38  C   UNL A   1      38.272 -20.246 -36.182  0.00  0.00    -0.049 C 
ATOM     39  C   UNL A   1      39.253 -19.113 -36.477  0.00  0.00    -0.024 C 
ENDBRANCH  24  26
ENDBRANCH  23  24
ENDBRANCH  22  23
ENDBRANCH  21  22
ENDBRANCH   1  21
TORSDOF 13
ENDMDL
MODEL 20
REMARK VINA RESULT:    -7.097     19.905     22.645
REMARK INTER + INTRA:         -13.665
REMARK INTER:                  -8.889
REMARK INTRA:                  -4.776
REMARK UNBOUND:                -1.381
REMARK  Name = cpd140.pdb
REMARK  14 active torsions:
REMARK  status: ('A' for Active; 'I' for Inactive)
REMARK    1  A    between atoms: C_1  and  C_2
REMARK    2  A    between atoms: C_2  and  C_4
REMARK    3  A    between atoms: C_4  and  C_5
REMARK    4  A    between atoms: C_4  and  C_13
REMARK    5  A    between atoms: C_5  and  C_6
REMARK    6  A    between atoms: C_9  and  O_10
REMARK    7  A    between atoms: N_15  and  C_16
REMARK    8  A    between atoms: C_16  and  C_17
REMARK    9  A    between atoms: C_17  and  C_18
REMARK   10  A    between atoms: C_18  and  C_19
REMARK   11  A    between atoms: C_19  and  C_20
REMARK   12  A    between atoms: C_20  and  C_21
REMARK   13  A    between atoms: C_21  and  N_22
REMARK   14  A    between atoms: N_22  and  C_23
REMARK                            x       y       z     vdW  Elec       q    Type
REMARK                         _______ _______ _______ _____ _____    ______ ____
ROOT
ATOM      1  C   UNL A   1      40.767 -21.769 -38.547  0.00  0.00    -0.052 C 
ENDROOT
BRANCH   1   2
ATOM      2  C   UNL A   1      41.117 -21.030 -39.836  0.00  0.00    -0.037 C 
BRANCH   2   3
ATOM      3  C   UNL A   1      41.994 -21.854 -40.773  0.00  0.00    +0.012 C 
BRANCH   3   6
ATOM      4  C   UNL A   1      44.282 -21.002 -40.451  0.00  0.00    +0.224 C 
ATOM      5  O   UNL A   1      44.351 -21.449 -39.310  0.00  0.00    -0.275 OA
ATOM      6  N   UNL A   1      43.132 -21.066 -41.212  0.00  0.00    -0.315 N 
ATOM      7  H   UNL A   1      43.083 -20.571 -42.061  0.00  0.00    +0.000 HD
BRANCH   4   8
ATOM      8  C   UNL A   1      45.466 -20.313 -41.097  0.00  0.00    +0.097 C 
BRANCH   8  10
ATOM      9  C   UNL A   1      47.794 -20.926 -42.020  0.00  0.00    -0.005 C 
ATOM     10  C   UNL A   1      46.362 -21.331 -41.776  0.00  0.00    +0.142 C 
ATOM     11  O   UNL A   1      45.934 -22.416 -42.177  0.00  0.00    -0.297 OA
ENDBRANCH   8  10
BRANCH   8  12
ATOM     12  C   UNL A   1      46.258 -19.451 -40.101  0.00  0.00    -0.010 C 
BRANCH  12  13
ATOM     13  C   UNL A   1      46.108 -17.964 -40.331  0.00  0.00    -0.046 A 
ATOM     14  C   UNL A   1      47.113 -17.074 -39.922  0.00  0.00    -0.055 A 
ATOM     15  C   UNL A   1      46.967 -15.698 -40.106  0.00  0.00    -0.020 A 
ATOM     16  C   UNL A   1      45.816 -15.207 -40.712  0.00  0.00    +0.117 A 
ATOM     17  C   UNL A   1      44.815 -16.071 -41.138  0.00  0.00    -0.020 A 
ATOM     18  C   UNL A   1      44.960 -17.447 -40.949  0.00  0.00    -0.055 A 
BRANCH  16  19
ATOM     19  O   UNL A   1      45.632 -13.871 -40.911  0.00  0.00    -0.507 OA
ATOM     20  H   UNL A   1      46.176 -13.409 -41.518  0.00  0.00    +0.000 HD
ENDBRANCH  16  19
ENDBRANCH  12  13
ENDBRANCH   8  12
ENDBRANCH   4   8
ENDBRANCH   3   6
ENDBRANCH   2   3
ENDBRANCH   1   2
BRANCH   1  21
ATOM     21  C   UNL A   1      40.617 -20.774 -37.394  0.00  0.00    -0.052 C 
BRANCH  21  22
ATOM     22  C   UNL A   1      41.495 -21.140 -36.199  0.00  0.00    -0.037 C 
BRANCH  22  23
ATOM     23  C   UNL A   1      42.589 -20.093 -35.987  0.00  0.00    +0.009 C 
BRANCH  23  24
ATOM     24  N   UNL A   1      43.238 -19.803 -37.271  0.00  0.00    -0.343 N 
ATOM     25  H   UNL A   1      43.208 -20.401 -38.053  0.00  0.00    +0.000 HD
BRANCH  24  26
ATOM     26  C   UNL A   1      43.919 -18.549 -37.246  0.00  0.00    +0.041 A 
ATOM     27  C   UNL A   1      43.249 -17.368 -37.627  0.00  0.00    -0.005 A 
ATOM     28  C   UNL A   1      43.949 -16.164 -37.511  0.00  0.00    +0.047 A 
ATOM     29  N   UNL A   1      45.199 -16.076 -36.999  0.00  0.00    -0.251 NA
ATOM     30  C   UNL A   1      45.831 -17.198 -36.628  0.00  0.00    +0.073 A 
ATOM     31  C   UNL A   1      47.120 -17.089 -36.121  0.00  0.00    -0.036 A 
ATOM     32  C   UNL A   1      47.862 -18.208 -35.734  0.00  0.00    -0.060 A 
ATOM     33  C   UNL A   1      47.309 -19.473 -35.863  0.00  0.00    -0.061 A 
ATOM     34  C   UNL A   1      46.014 -19.604 -36.364  0.00  0.00    -0.051 A 
ATOM     35  C   UNL A   1      45.247 -18.473 -36.738  0.00  0.00    +0.021 A 
ATOM     36  C   UNL A   1      43.327 -14.846 -37.898  0.00  0.00    -0.010 C 
ATOM     37  C   UNL A   1      42.153 -14.997 -38.858  0.00  0.00    -0.047 C 
ATOM     38  C   UNL A   1      41.182 -16.034 -38.317  0.00  0.00    -0.049 C 
ATOM     39  C   UNL A   1      41.858 -17.400 -38.214  0.00  0.00    -0.024 C 
ENDBRANCH  24  26
ENDBRANCH  23  24
ENDBRANCH  22  23
ENDBRANCH  21  22
ENDBRANCH   1  21
TORSDOF 13
ENDMDL
