MODEL 1
REMARK VINA RESULT:    -6.942      0.000      0.000
REMARK INTER + INTRA:         -15.171
REMARK INTER:                 -11.204
REMARK INTRA:                  -3.967
REMARK UNBOUND:                -3.967
REMARK  Name = cpd105.pdb
REMARK  12 active torsions:
REMARK  status: ('A' for Active; 'I' for Inactive)
REMARK    1  A    between atoms: C_1  and  O_2
REMARK    2  A    between atoms: O_2  and  C_3
REMARK    3  A    between atoms: C_12  and  O_13
REMARK    4  A    between atoms: N_19  and  C_20
REMARK    5  A    between atoms: C_20  and  C_21
REMARK    6  A    between atoms: C_21  and  C_22
REMARK    7  A    between atoms: C_22  and  C_23
REMARK    8  A    between atoms: C_23  and  C_24
REMARK    9  A    between atoms: C_24  and  C_25
REMARK   10  A    between atoms: C_25  and  C_26
REMARK   11  A    between atoms: C_26  and  C_27
REMARK   12  A    between atoms: C_27  and  N_28
REMARK                            x       y       z     vdW  Elec       q    Type
REMARK                         _______ _______ _______ _____ _____    ______ ____
ROOT
ATOM      1  C   UNL A   1      44.133 -16.845 -40.003  0.00  0.00    +0.162 A 
ATOM      2  C   UNL A   1      43.573 -16.646 -38.734  0.00  0.00    -0.016 A 
ATOM      3  C   UNL A   1      43.163 -17.739 -37.947  0.00  0.00    -0.049 A 
ATOM      4  C   UNL A   1      43.338 -19.038 -38.425  0.00  0.00    -0.001 A 
ATOM      5  C   UNL A   1      43.996 -19.241 -39.626  0.00  0.00    +0.020 A 
ATOM      6  C   UNL A   1      44.328 -18.156 -40.419  0.00  0.00    +0.167 A 
ATOM      7  O   UNL A   1      44.783 -18.524 -41.662  0.00  0.00    -0.484 OA
ATOM      8  C   UNL A   1      45.109 -19.934 -41.540  0.00  0.00    +0.116 C 
ATOM      9  C   UNL A   1      46.637 -20.008 -41.425  0.00  0.00    +0.015 C 
ATOM     10  C   UNL A   1      47.119 -21.397 -41.043  0.00  0.00    +0.077 C 
ATOM     11  C   UNL A   1      46.382 -21.902 -39.846  0.00  0.00    -0.059 C 
ATOM     12  C   UNL A   1      45.158 -21.482 -39.490  0.00  0.00    -0.071 C 
ATOM     13  C   UNL A   1      44.319 -20.525 -40.318  0.00  0.00    +0.057 C 
ATOM     14  C   UNL A   1      43.003 -21.229 -40.743  0.00  0.00    -0.019 C 
ATOM     15  C   UNL A   1      41.772 -21.038 -39.842  0.00  0.00    +0.019 C 
ATOM     16  N   UNL A   1      42.070 -21.115 -38.362  0.00  0.00    -0.376 N 
ATOM     17  C   UNL A   1      42.705 -20.171 -37.738  0.00  0.00    +0.008 C 
ENDROOT
BRANCH   1  19
ATOM     18  C   UNL A   1      44.173 -14.527 -40.544  0.00  0.00    +0.079 C 
ATOM     19  O   UNL A   1      44.502 -15.869 -40.879  0.00  0.00    -0.491 OA
ENDBRANCH   1  19
BRANCH  10  20
ATOM     20  O   UNL A   1      48.491 -21.338 -40.687  0.00  0.00    -0.388 OA
ATOM     21  H   UNL A   1      48.743 -20.416 -40.523  0.00  0.00    +0.000 HD
ENDBRANCH  10  20
BRANCH  16  22
ATOM     22  C   UNL A   1      41.417 -22.226 -37.589  0.00  0.00    +0.018 C 
BRANCH  22  23
ATOM     23  C   UNL A   1      41.563 -21.986 -36.089  0.00  0.00    -0.035 C 
BRANCH  23  24
ATOM     24  C   UNL A   1      40.210 -21.630 -35.468  0.00  0.00    -0.051 C 
BRANCH  24  25
ATOM     25  C   UNL A   1      40.281 -21.584 -33.941  0.00  0.00    -0.053 C 
BRANCH  25  26
ATOM     26  C   UNL A   1      40.627 -20.177 -33.448  0.00  0.00    -0.053 C 
BRANCH  26  27
ATOM     27  C   UNL A   1      42.079 -20.089 -32.975  0.00  0.00    -0.052 C 
BRANCH  27  28
ATOM     28  C   UNL A   1      42.596 -18.649 -33.024  0.00  0.00    -0.037 C 
BRANCH  28  29
ATOM     29  C   UNL A   1      44.090 -18.587 -32.701  0.00  0.00    +0.023 C 
BRANCH  29  30
ATOM     30  N   UNL A   1      44.912 -18.467 -33.889  0.00  0.00    -0.234 N 
ATOM     31  C   UNL A   1      45.222 -17.275 -34.488  0.00  0.00    +0.254 C 
ATOM     32  O   UNL A   1      44.941 -16.145 -34.139  0.00  0.00    -0.270 OA
ATOM     33  C   UNL A   1      45.971 -17.600 -35.701  0.00  0.00    +0.049 A 
ATOM     34  C   UNL A   1      46.512 -16.776 -36.668  0.00  0.00    -0.049 A 
ATOM     35  C   UNL A   1      47.172 -17.392 -37.736  0.00  0.00    -0.061 A 
ATOM     36  C   UNL A   1      47.275 -18.797 -37.810  0.00  0.00    -0.061 A 
ATOM     37  C   UNL A   1      46.713 -19.610 -36.821  0.00  0.00    -0.049 A 
ATOM     38  C   UNL A   1      46.063 -18.978 -35.779  0.00  0.00    +0.049 A 
ATOM     39  C   UNL A   1      45.360 -19.533 -34.624  0.00  0.00    +0.254 C 
ATOM     40  O   UNL A   1      45.215 -20.722 -34.417  0.00  0.00    -0.270 OA
ENDBRANCH  29  30
ENDBRANCH  28  29
ENDBRANCH  27  28
ENDBRANCH  26  27
ENDBRANCH  25  26
ENDBRANCH  24  25
ENDBRANCH  23  24
ENDBRANCH  22  23
ENDBRANCH  16  22
TORSDOF 11
ENDMDL
MODEL 2
REMARK VINA RESULT:    -6.350      2.353      6.977
REMARK INTER + INTRA:         -14.214
REMARK INTER:                 -12.288
REMARK INTRA:                  -1.927
REMARK UNBOUND:                -3.967
REMARK  Name = cpd105.pdb
REMARK  12 active torsions:
REMARK  status: ('A' for Active; 'I' for Inactive)
REMARK    1  A    between atoms: C_1  and  O_2
REMARK    2  A    between atoms: O_2  and  C_3
REMARK    3  A    between atoms: C_12  and  O_13
REMARK    4  A    between atoms: N_19  and  C_20
REMARK    5  A    between atoms: C_20  and  C_21
REMARK    6  A    between atoms: C_21  and  C_22
REMARK    7  A    between atoms: C_22  and  C_23
REMARK    8  A    between atoms: C_23  and  C_24
REMARK    9  A    between atoms: C_24  and  C_25
REMARK   10  A    between atoms: C_25  and  C_26
REMARK   11  A    between atoms: C_26  and  C_27
REMARK   12  A    between atoms: C_27  and  N_28
REMARK                            x       y       z     vdW  Elec       q    Type
REMARK                         _______ _______ _______ _____ _____    ______ ____
ROOT
ATOM      1  C   UNL A   1      39.287 -22.732 -33.996  0.00  0.00    +0.162 A 
ATOM      2  C   UNL A   1      38.884 -21.934 -32.917  0.00  0.00    -0.016 A 
ATOM      3  C   UNL A   1      39.455 -20.664 -32.707  0.00  0.00    -0.049 A 
ATOM      4  C   UNL A   1      40.415 -20.183 -33.597  0.00  0.00    -0.001 A 
ATOM      5  C   UNL A   1      40.729 -20.919 -34.727  0.00  0.00    +0.020 A 
ATOM      6  C   UNL A   1      40.213 -22.194 -34.881  0.00  0.00    +0.167 A 
ATOM      7  O   UNL A   1      40.774 -22.872 -35.936  0.00  0.00    -0.484 OA
ATOM      8  C   UNL A   1      41.428 -21.850 -36.734  0.00  0.00    +0.116 C 
ATOM      9  C   UNL A   1      40.508 -21.597 -37.935  0.00  0.00    +0.015 C 
ATOM     10  C   UNL A   1      40.931 -20.378 -38.737  0.00  0.00    +0.077 C 
ATOM     11  C   UNL A   1      41.122 -19.197 -37.842  0.00  0.00    -0.059 C 
ATOM     12  C   UNL A   1      41.411 -19.289 -36.535  0.00  0.00    -0.071 C 
ATOM     13  C   UNL A   1      41.694 -20.600 -35.822  0.00  0.00    +0.057 C 
ATOM     14  C   UNL A   1      43.136 -20.575 -35.250  0.00  0.00    -0.019 C 
ATOM     15  C   UNL A   1      43.316 -20.104 -33.797  0.00  0.00    +0.019 C 
ATOM     16  N   UNL A   1      42.479 -18.902 -33.427  0.00  0.00    -0.376 N 
ATOM     17  C   UNL A   1      41.193 -18.981 -33.269  0.00  0.00    +0.008 C 
ENDROOT
BRANCH   1  19
ATOM     18  C   UNL A   1      37.631 -24.413 -33.673  0.00  0.00    +0.079 C 
ATOM     19  O   UNL A   1      38.858 -23.998 -34.261  0.00  0.00    -0.491 OA
ENDBRANCH   1  19
BRANCH  10  20
ATOM     20  O   UNL A   1      39.903 -20.037 -39.654  0.00  0.00    -0.388 OA
ATOM     21  H   UNL A   1      39.455 -19.232 -39.352  0.00  0.00    +0.000 HD
ENDBRANCH  10  20
BRANCH  16  22
ATOM     22  C   UNL A   1      43.213 -17.650 -33.038  0.00  0.00    +0.018 C 
BRANCH  22  23
ATOM     23  C   UNL A   1      44.665 -17.721 -33.501  0.00  0.00    -0.035 C 
BRANCH  23  24
ATOM     24  C   UNL A   1      44.806 -17.150 -34.914  0.00  0.00    -0.051 C 
BRANCH  24  25
ATOM     25  C   UNL A   1      46.262 -17.155 -35.385  0.00  0.00    -0.053 C 
BRANCH  25  26
ATOM     26  C   UNL A   1      47.039 -18.316 -34.760  0.00  0.00    -0.053 C 
BRANCH  26  27
ATOM     27  C   UNL A   1      48.022 -18.934 -35.755  0.00  0.00    -0.052 C 
BRANCH  27  28
ATOM     28  C   UNL A   1      47.447 -18.948 -37.173  0.00  0.00    -0.037 C 
BRANCH  28  29
ATOM     29  C   UNL A   1      46.415 -20.066 -37.341  0.00  0.00    +0.023 C 
BRANCH  29  30
ATOM     30  N   UNL A   1      46.054 -20.286 -38.728  0.00  0.00    -0.234 N 
ATOM     31  C   UNL A   1      45.056 -19.608 -39.375  0.00  0.00    +0.254 C 
ATOM     32  O   UNL A   1      44.355 -18.703 -38.969  0.00  0.00    -0.270 OA
ATOM     33  C   UNL A   1      44.949 -20.199 -40.708  0.00  0.00    +0.049 A 
ATOM     34  C   UNL A   1      44.102 -19.897 -41.757  0.00  0.00    -0.049 A 
ATOM     35  C   UNL A   1      44.232 -20.659 -42.923  0.00  0.00    -0.061 A 
ATOM     36  C   UNL A   1      45.190 -21.690 -43.011  0.00  0.00    -0.061 A 
ATOM     37  C   UNL A   1      46.032 -21.981 -41.933  0.00  0.00    -0.049 A 
ATOM     38  C   UNL A   1      45.882 -21.216 -40.792  0.00  0.00    +0.049 A 
ATOM     39  C   UNL A   1      46.576 -21.285 -39.507  0.00  0.00    +0.254 C 
ATOM     40  O   UNL A   1      47.429 -22.107 -39.232  0.00  0.00    -0.270 OA
ENDBRANCH  29  30
ENDBRANCH  28  29
ENDBRANCH  27  28
ENDBRANCH  26  27
ENDBRANCH  25  26
ENDBRANCH  24  25
ENDBRANCH  23  24
ENDBRANCH  22  23
ENDBRANCH  16  22
TORSDOF 11
ENDMDL
MODEL 3
REMARK VINA RESULT:    -6.290     18.860     22.287
REMARK INTER + INTRA:         -14.118
REMARK INTER:                 -11.692
REMARK INTRA:                  -2.425
REMARK UNBOUND:                -3.967
REMARK  Name = cpd105.pdb
REMARK  12 active torsions:
REMARK  status: ('A' for Active; 'I' for Inactive)
REMARK    1  A    between atoms: C_1  and  O_2
REMARK    2  A    between atoms: O_2  and  C_3
REMARK    3  A    between atoms: C_12  and  O_13
REMARK    4  A    between atoms: N_19  and  C_20
REMARK    5  A    between atoms: C_20  and  C_21
REMARK    6  A    between atoms: C_21  and  C_22
REMARK    7  A    between atoms: C_22  and  C_23
REMARK    8  A    between atoms: C_23  and  C_24
REMARK    9  A    between atoms: C_24  and  C_25
REMARK   10  A    between atoms: C_25  and  C_26
REMARK   11  A    between atoms: C_26  and  C_27
REMARK   12  A    between atoms: C_27  and  N_28
REMARK                            x       y       z     vdW  Elec       q    Type
REMARK                         _______ _______ _______ _____ _____    ______ ____
ROOT
ATOM      1  C   UNL A   1      35.922 -40.866 -28.826  0.00  0.00    +0.162 A 
ATOM      2  C   UNL A   1      35.021 -41.101 -29.873  0.00  0.00    -0.016 A 
ATOM      3  C   UNL A   1      34.745 -40.100 -30.825  0.00  0.00    -0.049 A 
ATOM      4  C   UNL A   1      35.395 -38.869 -30.740  0.00  0.00    -0.001 A 
ATOM      5  C   UNL A   1      36.371 -38.676 -29.776  0.00  0.00    +0.020 A 
ATOM      6  C   UNL A   1      36.578 -39.642 -28.807  0.00  0.00    +0.167 A 
ATOM      7  O   UNL A   1      37.423 -39.222 -27.808  0.00  0.00    -0.484 OA
ATOM      8  C   UNL A   1      38.089 -38.050 -28.349  0.00  0.00    +0.116 C 
ATOM      9  C   UNL A   1      39.492 -38.512 -28.762  0.00  0.00    +0.015 C 
ATOM     10  C   UNL A   1      40.230 -37.459 -29.572  0.00  0.00    +0.077 C 
ATOM     11  C   UNL A   1      39.381 -36.970 -30.699  0.00  0.00    -0.059 C 
ATOM     12  C   UNL A   1      38.039 -37.017 -30.701  0.00  0.00    -0.071 C 
ATOM     13  C   UNL A   1      37.208 -37.468 -29.511  0.00  0.00    +0.057 C 
ATOM     14  C   UNL A   1      36.300 -36.300 -29.045  0.00  0.00    -0.019 C 
ATOM     15  C   UNL A   1      34.876 -36.235 -29.620  0.00  0.00    +0.019 C 
ATOM     16  N   UNL A   1      34.790 -36.538 -31.098  0.00  0.00    -0.376 N 
ATOM     17  C   UNL A   1      34.951 -37.738 -31.565  0.00  0.00    +0.008 C 
ENDROOT
BRANCH   1  19
ATOM     18  C   UNL A   1      35.218 -42.672 -27.443  0.00  0.00    +0.079 C 
ATOM     19  O   UNL A   1      36.216 -41.729 -27.813  0.00  0.00    -0.491 OA
ENDBRANCH   1  19
BRANCH  10  20
ATOM     20  O   UNL A   1      41.389 -38.036 -30.150  0.00  0.00    -0.388 OA
ATOM     21  H   UNL A   1      41.142 -38.837 -30.640  0.00  0.00    +0.000 HD
ENDBRANCH  10  20
BRANCH  16  22
ATOM     22  C   UNL A   1      34.299 -35.437 -31.995  0.00  0.00    +0.018 C 
BRANCH  22  23
ATOM     23  C   UNL A   1      34.668 -34.075 -31.415  0.00  0.00    -0.035 C 
BRANCH  23  24
ATOM     24  C   UNL A   1      33.421 -33.204 -31.253  0.00  0.00    -0.051 C 
BRANCH  24  25
ATOM     25  C   UNL A   1      33.690 -31.986 -30.367  0.00  0.00    -0.053 C 
BRANCH  25  26
ATOM     26  C   UNL A   1      32.468 -31.066 -30.307  0.00  0.00    -0.053 C 
BRANCH  26  27
ATOM     27  C   UNL A   1      31.398 -31.614 -29.361  0.00  0.00    -0.052 C 
BRANCH  27  28
ATOM     28  C   UNL A   1      29.996 -31.464 -29.955  0.00  0.00    -0.037 C 
BRANCH  28  29
ATOM     29  C   UNL A   1      29.183 -32.749 -29.786  0.00  0.00    +0.023 C 
BRANCH  29  30
ATOM     30  N   UNL A   1      29.775 -33.877 -30.479  0.00  0.00    -0.234 N 
ATOM     31  C   UNL A   1      29.850 -33.983 -31.843  0.00  0.00    +0.254 C 
ATOM     32  O   UNL A   1      29.514 -33.183 -32.695  0.00  0.00    -0.270 OA
ATOM     33  C   UNL A   1      30.414 -35.302 -32.127  0.00  0.00    +0.049 A 
ATOM     34  C   UNL A   1      30.693 -35.916 -33.333  0.00  0.00    -0.049 A 
ATOM     35  C   UNL A   1      31.226 -37.208 -33.282  0.00  0.00    -0.061 A 
ATOM     36  C   UNL A   1      31.463 -37.846 -32.047  0.00  0.00    -0.061 A 
ATOM     37  C   UNL A   1      31.166 -37.205 -30.840  0.00  0.00    -0.049 A 
ATOM     38  C   UNL A   1      30.638 -35.931 -30.916  0.00  0.00    +0.049 A 
ATOM     39  C   UNL A   1      30.203 -35.020 -29.859  0.00  0.00    +0.254 C 
ATOM     40  O   UNL A   1      30.222 -35.289 -28.673  0.00  0.00    -0.270 OA
ENDBRANCH  29  30
ENDBRANCH  28  29
ENDBRANCH  27  28
ENDBRANCH  26  27
ENDBRANCH  25  26
ENDBRANCH  24  25
ENDBRANCH  23  24
ENDBRANCH  22  23
ENDBRANCH  16  22
TORSDOF 11
ENDMDL
MODEL 4
REMARK VINA RESULT:    -6.129      2.366      6.903
REMARK INTER + INTRA:         -13.858
REMARK INTER:                 -11.756
REMARK INTRA:                  -2.102
REMARK UNBOUND:                -3.967
REMARK  Name = cpd105.pdb
REMARK  12 active torsions:
REMARK  status: ('A' for Active; 'I' for Inactive)
REMARK    1  A    between atoms: C_1  and  O_2
REMARK    2  A    between atoms: O_2  and  C_3
REMARK    3  A    between atoms: C_12  and  O_13
REMARK    4  A    between atoms: N_19  and  C_20
REMARK    5  A    between atoms: C_20  and  C_21
REMARK    6  A    between atoms: C_21  and  C_22
REMARK    7  A    between atoms: C_22  and  C_23
REMARK    8  A    between atoms: C_23  and  C_24
REMARK    9  A    between atoms: C_24  and  C_25
REMARK   10  A    between atoms: C_25  and  C_26
REMARK   11  A    between atoms: C_26  and  C_27
REMARK   12  A    between atoms: C_27  and  N_28
REMARK                            x       y       z     vdW  Elec       q    Type
REMARK                         _______ _______ _______ _____ _____    ______ ____
ROOT
ATOM      1  C   UNL A   1      41.356 -21.002 -37.982  0.00  0.00    +0.162 A 
ATOM      2  C   UNL A   1      42.750 -20.891 -38.051  0.00  0.00    -0.016 A 
ATOM      3  C   UNL A   1      43.505 -20.563 -36.908  0.00  0.00    -0.049 A 
ATOM      4  C   UNL A   1      42.859 -20.368 -35.687  0.00  0.00    -0.001 A 
ATOM      5  C   UNL A   1      41.496 -20.590 -35.592  0.00  0.00    +0.020 A 
ATOM      6  C   UNL A   1      40.760 -20.843 -36.737  0.00  0.00    +0.167 A 
ATOM      7  O   UNL A   1      39.405 -20.834 -36.512  0.00  0.00    -0.484 OA
ATOM      8  C   UNL A   1      39.263 -20.944 -35.071  0.00  0.00    +0.116 C 
ATOM      9  C   UNL A   1      38.873 -22.402 -34.792  0.00  0.00    +0.015 C 
ATOM     10  C   UNL A   1      38.927 -22.740 -33.312  0.00  0.00    +0.077 C 
ATOM     11  C   UNL A   1      40.236 -22.325 -32.724  0.00  0.00    -0.059 C 
ATOM     12  C   UNL A   1      41.009 -21.352 -33.231  0.00  0.00    -0.071 C 
ATOM     13  C   UNL A   1      40.602 -20.472 -34.401  0.00  0.00    +0.057 C 
ATOM     14  C   UNL A   1      40.549 -18.992 -33.938  0.00  0.00    -0.019 C 
ATOM     15  C   UNL A   1      41.813 -18.140 -34.138  0.00  0.00    +0.019 C 
ATOM     16  N   UNL A   1      43.101 -18.852 -33.797  0.00  0.00    -0.376 N 
ATOM     17  C   UNL A   1      43.586 -19.793 -34.548  0.00  0.00    +0.008 C 
ENDROOT
BRANCH   1  19
ATOM     18  C   UNL A   1      40.874 -22.292 -39.924  0.00  0.00    +0.079 C 
ATOM     19  O   UNL A   1      40.518 -21.246 -39.028  0.00  0.00    -0.491 OA
ENDBRANCH   1  19
BRANCH  10  20
ATOM     20  O   UNL A   1      38.829 -24.145 -33.146  0.00  0.00    -0.388 OA
ATOM     21  H   UNL A   1      39.413 -24.427 -32.425  0.00  0.00    +0.000 HD
ENDBRANCH  10  20
BRANCH  16  22
ATOM     22  C   UNL A   1      43.918 -18.289 -32.669  0.00  0.00    +0.018 C 
BRANCH  22  23
ATOM     23  C   UNL A   1      45.192 -17.644 -33.207  0.00  0.00    -0.035 C 
BRANCH  23  24
ATOM     24  C   UNL A   1      44.896 -16.250 -33.765  0.00  0.00    -0.051 C 
BRANCH  24  25
ATOM     25  C   UNL A   1      45.256 -16.144 -35.248  0.00  0.00    -0.053 C 
BRANCH  25  26
ATOM     26  C   UNL A   1      46.052 -17.367 -35.710  0.00  0.00    -0.053 C 
BRANCH  26  27
ATOM     27  C   UNL A   1      47.291 -16.961 -36.509  0.00  0.00    -0.052 C 
BRANCH  27  28
ATOM     28  C   UNL A   1      47.051 -17.087 -38.015  0.00  0.00    -0.037 C 
BRANCH  28  29
ATOM     29  C   UNL A   1      45.670 -17.679 -38.307  0.00  0.00    +0.023 C 
BRANCH  29  30
ATOM     30  N   UNL A   1      45.740 -18.879 -39.118  0.00  0.00    -0.234 N 
ATOM     31  C   UNL A   1      46.323 -20.047 -38.706  0.00  0.00    +0.254 C 
ATOM     32  O   UNL A   1      46.816 -20.321 -37.629  0.00  0.00    -0.270 OA
ATOM     33  C   UNL A   1      46.274 -20.962 -39.845  0.00  0.00    +0.049 A 
ATOM     34  C   UNL A   1      46.727 -22.261 -39.973  0.00  0.00    -0.049 A 
ATOM     35  C   UNL A   1      46.546 -22.882 -41.213  0.00  0.00    -0.061 A 
ATOM     36  C   UNL A   1      45.924 -22.201 -42.280  0.00  0.00    -0.061 A 
ATOM     37  C   UNL A   1      45.479 -20.883 -42.128  0.00  0.00    -0.049 A 
ATOM     38  C   UNL A   1      45.673 -20.291 -40.895  0.00  0.00    +0.049 A 
ATOM     39  C   UNL A   1      45.352 -18.943 -40.430  0.00  0.00    +0.254 C 
ATOM     40  O   UNL A   1      44.855 -18.078 -41.126  0.00  0.00    -0.270 OA
ENDBRANCH  29  30
ENDBRANCH  28  29
ENDBRANCH  27  28
ENDBRANCH  26  27
ENDBRANCH  25  26
ENDBRANCH  24  25
ENDBRANCH  23  24
ENDBRANCH  22  23
ENDBRANCH  16  22
TORSDOF 11
ENDMDL
MODEL 5
REMARK VINA RESULT:    -6.111      3.949      7.588
REMARK INTER + INTRA:         -13.830
REMARK INTER:                  -9.543
REMARK INTRA:                  -4.287
REMARK UNBOUND:                -3.967
REMARK  Name = cpd105.pdb
REMARK  12 active torsions:
REMARK  status: ('A' for Active; 'I' for Inactive)
REMARK    1  A    between atoms: C_1  and  O_2
REMARK    2  A    between atoms: O_2  and  C_3
REMARK    3  A    between atoms: C_12  and  O_13
REMARK    4  A    between atoms: N_19  and  C_20
REMARK    5  A    between atoms: C_20  and  C_21
REMARK    6  A    between atoms: C_21  and  C_22
REMARK    7  A    between atoms: C_22  and  C_23
REMARK    8  A    between atoms: C_23  and  C_24
REMARK    9  A    between atoms: C_24  and  C_25
REMARK   10  A    between atoms: C_25  and  C_26
REMARK   11  A    between atoms: C_26  and  C_27
REMARK   12  A    between atoms: C_27  and  N_28
REMARK                            x       y       z     vdW  Elec       q    Type
REMARK                         _______ _______ _______ _____ _____    ______ ____
ROOT
ATOM      1  C   UNL A   1      39.857 -23.058 -34.134  0.00  0.00    +0.162 A 
ATOM      2  C   UNL A   1      40.259 -22.628 -32.863  0.00  0.00    -0.016 A 
ATOM      3  C   UNL A   1      41.116 -21.520 -32.715  0.00  0.00    -0.049 A 
ATOM      4  C   UNL A   1      41.551 -20.828 -33.845  0.00  0.00    -0.001 A 
ATOM      5  C   UNL A   1      41.063 -21.180 -35.092  0.00  0.00    +0.020 A 
ATOM      6  C   UNL A   1      40.279 -22.312 -35.227  0.00  0.00    +0.167 A 
ATOM      7  O   UNL A   1      40.047 -22.645 -36.540  0.00  0.00    -0.484 OA
ATOM      8  C   UNL A   1      40.394 -21.455 -37.296  0.00  0.00    +0.116 C 
ATOM      9  C   UNL A   1      39.065 -20.787 -37.671  0.00  0.00    +0.015 C 
ATOM     10  C   UNL A   1      39.262 -19.398 -38.254  0.00  0.00    +0.077 C 
ATOM     11  C   UNL A   1      40.142 -18.576 -37.371  0.00  0.00    -0.059 C 
ATOM     12  C   UNL A   1      41.041 -19.093 -36.520  0.00  0.00    -0.071 C 
ATOM     13  C   UNL A   1      41.360 -20.575 -36.425  0.00  0.00    +0.057 C 
ATOM     14  C   UNL A   1      42.854 -20.804 -36.776  0.00  0.00    -0.019 C 
ATOM     15  C   UNL A   1      43.860 -20.831 -35.614  0.00  0.00    +0.019 C 
ATOM     16  N   UNL A   1      43.623 -19.770 -34.564  0.00  0.00    -0.376 N 
ATOM     17  C   UNL A   1      42.625 -19.832 -33.736  0.00  0.00    +0.008 C 
ENDROOT
BRANCH   1  19
ATOM     18  C   UNL A   1      38.270 -24.654 -33.357  0.00  0.00    +0.079 C 
ATOM     19  O   UNL A   1      39.090 -24.151 -34.405  0.00  0.00    -0.491 OA
ENDBRANCH   1  19
BRANCH  10  20
ATOM     20  O   UNL A   1      38.011 -18.734 -38.322  0.00  0.00    -0.388 OA
ATOM     21  H   UNL A   1      37.615 -18.879 -39.196  0.00  0.00    +0.000 HD
ENDBRANCH  10  20
BRANCH  16  22
ATOM     22  C   UNL A   1      44.704 -18.745 -34.369  0.00  0.00    +0.018 C 
BRANCH  22  23
ATOM     23  C   UNL A   1      45.485 -18.545 -35.665  0.00  0.00    -0.035 C 
BRANCH  23  24
ATOM     24  C   UNL A   1      45.270 -17.130 -36.209  0.00  0.00    -0.051 C 
BRANCH  24  25
ATOM     25  C   UNL A   1      43.875 -16.600 -35.875  0.00  0.00    -0.053 C 
BRANCH  25  26
ATOM     26  C   UNL A   1      43.954 -15.243 -35.172  0.00  0.00    -0.053 C 
BRANCH  26  27
ATOM     27  C   UNL A   1      42.676 -14.940 -34.389  0.00  0.00    -0.052 C 
BRANCH  27  28
ATOM     28  C   UNL A   1      42.165 -16.180 -33.652  0.00  0.00    -0.037 C 
BRANCH  28  29
ATOM     29  C   UNL A   1      40.851 -15.888 -32.924  0.00  0.00    +0.023 C 
BRANCH  29  30
ATOM     30  N   UNL A   1      39.832 -16.884 -33.195  0.00  0.00    -0.234 N 
ATOM     31  C   UNL A   1      39.609 -17.983 -32.408  0.00  0.00    +0.254 C 
ATOM     32  O   UNL A   1      40.139 -18.298 -31.361  0.00  0.00    -0.270 OA
ATOM     33  C   UNL A   1      38.581 -18.775 -33.082  0.00  0.00    +0.049 A 
ATOM     34  C   UNL A   1      37.996 -19.975 -32.724  0.00  0.00    -0.049 A 
ATOM     35  C   UNL A   1      37.036 -20.501 -33.594  0.00  0.00    -0.061 A 
ATOM     36  C   UNL A   1      36.687 -19.826 -34.782  0.00  0.00    -0.061 A 
ATOM     37  C   UNL A   1      37.298 -18.616 -35.125  0.00  0.00    -0.049 A 
ATOM     38  C   UNL A   1      38.246 -18.119 -34.252  0.00  0.00    +0.049 A 
ATOM     39  C   UNL A   1      39.070 -16.914 -34.333  0.00  0.00    +0.254 C 
ATOM     40  O   UNL A   1      39.055 -16.135 -35.267  0.00  0.00    -0.270 OA
ENDBRANCH  29  30
ENDBRANCH  28  29
ENDBRANCH  27  28
ENDBRANCH  26  27
ENDBRANCH  25  26
ENDBRANCH  24  25
ENDBRANCH  23  24
ENDBRANCH  22  23
ENDBRANCH  16  22
TORSDOF 11
ENDMDL
MODEL 6
REMARK VINA RESULT:    -6.013      2.051      6.868
REMARK INTER + INTRA:         -13.672
REMARK INTER:                  -9.922
REMARK INTRA:                  -3.750
REMARK UNBOUND:                -3.967
REMARK  Name = cpd105.pdb
REMARK  12 active torsions:
REMARK  status: ('A' for Active; 'I' for Inactive)
REMARK    1  A    between atoms: C_1  and  O_2
REMARK    2  A    between atoms: O_2  and  C_3
REMARK    3  A    between atoms: C_12  and  O_13
REMARK    4  A    between atoms: N_19  and  C_20
REMARK    5  A    between atoms: C_20  and  C_21
REMARK    6  A    between atoms: C_21  and  C_22
REMARK    7  A    between atoms: C_22  and  C_23
REMARK    8  A    between atoms: C_23  and  C_24
REMARK    9  A    between atoms: C_24  and  C_25
REMARK   10  A    between atoms: C_25  and  C_26
REMARK   11  A    between atoms: C_26  and  C_27
REMARK   12  A    between atoms: C_27  and  N_28
REMARK                            x       y       z     vdW  Elec       q    Type
REMARK                         _______ _______ _______ _____ _____    ______ ____
ROOT
ATOM      1  C   UNL A   1      43.731 -16.063 -34.213  0.00  0.00    +0.162 A 
ATOM      2  C   UNL A   1      44.243 -15.368 -35.316  0.00  0.00    -0.016 A 
ATOM      3  C   UNL A   1      44.816 -16.059 -36.401  0.00  0.00    -0.049 A 
ATOM      4  C   UNL A   1      44.853 -17.453 -36.389  0.00  0.00    -0.001 A 
ATOM      5  C   UNL A   1      44.244 -18.144 -35.355  0.00  0.00    +0.020 A 
ATOM      6  C   UNL A   1      43.749 -17.451 -34.264  0.00  0.00    +0.167 A 
ATOM      7  O   UNL A   1      43.367 -18.278 -33.236  0.00  0.00    -0.484 OA
ATOM      8  C   UNL A   1      43.268 -19.598 -33.833  0.00  0.00    +0.116 C 
ATOM      9  C   UNL A   1      41.770 -19.860 -34.037  0.00  0.00    +0.015 C 
ATOM     10  C   UNL A   1      41.512 -21.098 -34.879  0.00  0.00    +0.077 C 
ATOM     11  C   UNL A   1      42.312 -21.055 -36.140  0.00  0.00    -0.059 C 
ATOM     12  C   UNL A   1      43.451 -20.360 -36.280  0.00  0.00    -0.071 C 
ATOM     13  C   UNL A   1      44.134 -19.619 -35.143  0.00  0.00    +0.057 C 
ATOM     14  C   UNL A   1      45.548 -20.216 -34.914  0.00  0.00    -0.019 C 
ATOM     15  C   UNL A   1      46.726 -19.550 -35.643  0.00  0.00    +0.019 C 
ATOM     16  N   UNL A   1      46.435 -19.172 -37.076  0.00  0.00    -0.376 N 
ATOM     17  C   UNL A   1      45.653 -18.181 -37.382  0.00  0.00    +0.008 C 
ENDROOT
BRANCH   1  19
ATOM     18  C   UNL A   1      43.905 -14.389 -32.528  0.00  0.00    +0.079 C 
ATOM     19  O   UNL A   1      43.217 -15.504 -33.081  0.00  0.00    -0.491 OA
ENDBRANCH   1  19
BRANCH  10  20
ATOM     20  O   UNL A   1      40.146 -21.133 -35.260  0.00  0.00    -0.388 OA
ATOM     21  H   UNL A   1      39.626 -20.591 -34.646  0.00  0.00    +0.000 HD
ENDBRANCH  10  20
BRANCH  16  22
ATOM     22  C   UNL A   1      47.250 -19.848 -38.142  0.00  0.00    +0.018 C 
BRANCH  22  23
ATOM     23  C   UNL A   1      46.386 -20.830 -38.928  0.00  0.00    -0.035 C 
BRANCH  23  24
ATOM     24  C   UNL A   1      47.262 -21.849 -39.661  0.00  0.00    -0.051 C 
BRANCH  24  25
ATOM     25  C   UNL A   1      46.944 -21.900 -41.156  0.00  0.00    -0.053 C 
BRANCH  25  26
ATOM     26  C   UNL A   1      45.432 -21.893 -41.398  0.00  0.00    -0.053 C 
BRANCH  26  27
ATOM     27  C   UNL A   1      45.086 -21.313 -42.770  0.00  0.00    -0.052 C 
BRANCH  27  28
ATOM     28  C   UNL A   1      44.239 -20.045 -42.643  0.00  0.00    -0.037 C 
BRANCH  28  29
ATOM     29  C   UNL A   1      44.916 -19.017 -41.734  0.00  0.00    +0.023 C 
BRANCH  29  30
ATOM     30  N   UNL A   1      43.974 -18.334 -40.869  0.00  0.00    -0.234 N 
ATOM     31  C   UNL A   1      43.888 -16.972 -40.755  0.00  0.00    +0.254 C 
ATOM     32  O   UNL A   1      44.499 -16.112 -41.358  0.00  0.00    -0.270 OA
ATOM     33  C   UNL A   1      42.898 -16.702 -39.714  0.00  0.00    +0.049 A 
ATOM     34  C   UNL A   1      42.438 -15.504 -39.203  0.00  0.00    -0.049 A 
ATOM     35  C   UNL A   1      41.481 -15.569 -38.185  0.00  0.00    -0.061 A 
ATOM     36  C   UNL A   1      41.012 -16.812 -37.710  0.00  0.00    -0.061 A 
ATOM     37  C   UNL A   1      41.498 -18.012 -38.239  0.00  0.00    -0.049 A 
ATOM     38  C   UNL A   1      42.445 -17.920 -39.241  0.00  0.00    +0.049 A 
ATOM     39  C   UNL A   1      43.157 -18.969 -39.970  0.00  0.00    +0.254 C 
ATOM     40  O   UNL A   1      43.025 -20.159 -39.761  0.00  0.00    -0.270 OA
ENDBRANCH  29  30
ENDBRANCH  28  29
ENDBRANCH  27  28
ENDBRANCH  26  27
ENDBRANCH  25  26
ENDBRANCH  24  25
ENDBRANCH  23  24
ENDBRANCH  22  23
ENDBRANCH  16  22
TORSDOF 11
ENDMDL
MODEL 7
REMARK VINA RESULT:    -5.985      2.285      6.250
REMARK INTER + INTRA:         -13.627
REMARK INTER:                  -9.261
REMARK INTRA:                  -4.365
REMARK UNBOUND:                -3.967
REMARK  Name = cpd105.pdb
REMARK  12 active torsions:
REMARK  status: ('A' for Active; 'I' for Inactive)
REMARK    1  A    between atoms: C_1  and  O_2
REMARK    2  A    between atoms: O_2  and  C_3
REMARK    3  A    between atoms: C_12  and  O_13
REMARK    4  A    between atoms: N_19  and  C_20
REMARK    5  A    between atoms: C_20  and  C_21
REMARK    6  A    between atoms: C_21  and  C_22
REMARK    7  A    between atoms: C_22  and  C_23
REMARK    8  A    between atoms: C_23  and  C_24
REMARK    9  A    between atoms: C_24  and  C_25
REMARK   10  A    between atoms: C_25  and  C_26
REMARK   11  A    between atoms: C_26  and  C_27
REMARK   12  A    between atoms: C_27  and  N_28
REMARK                            x       y       z     vdW  Elec       q    Type
REMARK                         _______ _______ _______ _____ _____    ______ ____
ROOT
ATOM      1  C   UNL A   1      43.386 -15.118 -35.150  0.00  0.00    +0.162 A 
ATOM      2  C   UNL A   1      42.528 -14.851 -36.224  0.00  0.00    -0.016 A 
ATOM      3  C   UNL A   1      42.718 -15.478 -37.471  0.00  0.00    -0.049 A 
ATOM      4  C   UNL A   1      43.757 -16.394 -37.632  0.00  0.00    -0.001 A 
ATOM      5  C   UNL A   1      44.533 -16.747 -36.540  0.00  0.00    +0.020 A 
ATOM      6  C   UNL A   1      44.379 -16.070 -35.343  0.00  0.00    +0.167 A 
ATOM      7  O   UNL A   1      45.351 -16.385 -34.425  0.00  0.00    -0.484 OA
ATOM      8  C   UNL A   1      45.957 -17.606 -34.925  0.00  0.00    +0.116 C 
ATOM      9  C   UNL A   1      45.381 -18.746 -34.074  0.00  0.00    +0.015 C 
ATOM     10  C   UNL A   1      45.729 -20.115 -34.633  0.00  0.00    +0.077 C 
ATOM     11  C   UNL A   1      45.391 -20.193 -36.086  0.00  0.00    -0.059 C 
ATOM     12  C   UNL A   1      45.314 -19.125 -36.895  0.00  0.00    -0.071 C 
ATOM     13  C   UNL A   1      45.670 -17.712 -36.464  0.00  0.00    +0.057 C 
ATOM     14  C   UNL A   1      46.849 -17.192 -37.329  0.00  0.00    -0.019 C 
ATOM     15  C   UNL A   1      46.502 -16.388 -38.592  0.00  0.00    +0.019 C 
ATOM     16  N   UNL A   1      45.348 -16.951 -39.389  0.00  0.00    -0.376 N 
ATOM     17  C   UNL A   1      44.122 -16.873 -38.971  0.00  0.00    +0.008 C 
ENDROOT
BRANCH   1  19
ATOM     18  C   UNL A   1      42.529 -15.133 -32.928  0.00  0.00    +0.079 C 
ATOM     19  O   UNL A   1      43.343 -14.526 -33.923  0.00  0.00    -0.491 OA
ENDBRANCH   1  19
BRANCH  10  20
ATOM     20  O   UNL A   1      44.952 -21.104 -33.976  0.00  0.00    -0.388 OA
ATOM     21  H   UNL A   1      45.064 -21.017 -33.016  0.00  0.00    +0.000 HD
ENDBRANCH  10  20
BRANCH  16  22
ATOM     22  C   UNL A   1      45.644 -17.418 -40.786  0.00  0.00    +0.018 C 
BRANCH  22  23
ATOM     23  C   UNL A   1      46.835 -18.372 -40.786  0.00  0.00    -0.035 C 
BRANCH  23  24
ATOM     24  C   UNL A   1      46.409 -19.764 -40.315  0.00  0.00    -0.051 C 
BRANCH  24  25
ATOM     25  C   UNL A   1      45.136 -20.236 -41.019  0.00  0.00    -0.053 C 
BRANCH  25  26
ATOM     26  C   UNL A   1      43.988 -20.413 -40.021  0.00  0.00    -0.053 C 
BRANCH  26  27
ATOM     27  C   UNL A   1      42.809 -21.158 -40.649  0.00  0.00    -0.052 C 
BRANCH  27  28
ATOM     28  C   UNL A   1      42.178 -22.141 -39.659  0.00  0.00    -0.037 C 
BRANCH  28  29
ATOM     29  C   UNL A   1      40.860 -21.598 -39.104  0.00  0.00    +0.023 C 
BRANCH  29  30
ATOM     30  N   UNL A   1      41.004 -21.041 -37.774  0.00  0.00    -0.234 N 
ATOM     31  C   UNL A   1      41.157 -19.704 -37.516  0.00  0.00    +0.254 C 
ATOM     32  O   UNL A   1      41.144 -18.767 -38.291  0.00  0.00    -0.270 OA
ATOM     33  C   UNL A   1      41.372 -19.579 -36.076  0.00  0.00    +0.049 A 
ATOM     34  C   UNL A   1      41.587 -18.460 -35.295  0.00  0.00    -0.049 A 
ATOM     35  C   UNL A   1      41.776 -18.664 -33.924  0.00  0.00    -0.061 A 
ATOM     36  C   UNL A   1      41.745 -19.962 -33.374  0.00  0.00    -0.061 A 
ATOM     37  C   UNL A   1      41.533 -21.080 -34.187  0.00  0.00    -0.049 A 
ATOM     38  C   UNL A   1      41.352 -20.853 -35.537  0.00  0.00    +0.049 A 
ATOM     39  C   UNL A   1      41.139 -21.793 -36.637  0.00  0.00    +0.254 C 
ATOM     40  O   UNL A   1      41.115 -23.002 -36.509  0.00  0.00    -0.270 OA
ENDBRANCH  29  30
ENDBRANCH  28  29
ENDBRANCH  27  28
ENDBRANCH  26  27
ENDBRANCH  25  26
ENDBRANCH  24  25
ENDBRANCH  23  24
ENDBRANCH  22  23
ENDBRANCH  16  22
TORSDOF 11
ENDMDL
MODEL 8
REMARK VINA RESULT:    -5.893      2.144      4.529
REMARK INTER + INTRA:         -13.478
REMARK INTER:                  -9.745
REMARK INTRA:                  -3.732
REMARK UNBOUND:                -3.967
REMARK  Name = cpd105.pdb
REMARK  12 active torsions:
REMARK  status: ('A' for Active; 'I' for Inactive)
REMARK    1  A    between atoms: C_1  and  O_2
REMARK    2  A    between atoms: O_2  and  C_3
REMARK    3  A    between atoms: C_12  and  O_13
REMARK    4  A    between atoms: N_19  and  C_20
REMARK    5  A    between atoms: C_20  and  C_21
REMARK    6  A    between atoms: C_21  and  C_22
REMARK    7  A    between atoms: C_22  and  C_23
REMARK    8  A    between atoms: C_23  and  C_24
REMARK    9  A    between atoms: C_24  and  C_25
REMARK   10  A    between atoms: C_25  and  C_26
REMARK   11  A    between atoms: C_26  and  C_27
REMARK   12  A    between atoms: C_27  and  N_28
REMARK                            x       y       z     vdW  Elec       q    Type
REMARK                         _______ _______ _______ _____ _____    ______ ____
ROOT
ATOM      1  C   UNL A   1      46.319 -21.891 -40.500  0.00  0.00    +0.162 A 
ATOM      2  C   UNL A   1      47.390 -21.337 -39.787  0.00  0.00    -0.016 A 
ATOM      3  C   UNL A   1      47.237 -20.129 -39.078  0.00  0.00    -0.049 A 
ATOM      4  C   UNL A   1      45.998 -19.489 -39.066  0.00  0.00    -0.001 A 
ATOM      5  C   UNL A   1      44.909 -20.094 -39.673  0.00  0.00    +0.020 A 
ATOM      6  C   UNL A   1      45.093 -21.242 -40.423  0.00  0.00    +0.167 A 
ATOM      7  O   UNL A   1      43.970 -21.603 -41.128  0.00  0.00    -0.484 OA
ATOM      8  C   UNL A   1      42.887 -20.855 -40.516  0.00  0.00    +0.116 C 
ATOM      9  C   UNL A   1      42.132 -21.851 -39.625  0.00  0.00    +0.015 C 
ATOM     10  C   UNL A   1      41.119 -21.165 -38.724  0.00  0.00    +0.077 C 
ATOM     11  C   UNL A   1      41.750 -20.029 -37.988  0.00  0.00    -0.059 C 
ATOM     12  C   UNL A   1      42.836 -19.370 -38.419  0.00  0.00    -0.071 C 
ATOM     13  C   UNL A   1      43.497 -19.618 -39.765  0.00  0.00    +0.057 C 
ATOM     14  C   UNL A   1      43.443 -18.319 -40.613  0.00  0.00    -0.019 C 
ATOM     15  C   UNL A   1      44.653 -17.374 -40.542  0.00  0.00    +0.019 C 
ATOM     16  N   UNL A   1      45.212 -17.186 -39.151  0.00  0.00    -0.376 N 
ATOM     17  C   UNL A   1      45.875 -18.123 -38.543  0.00  0.00    +0.008 C 
ENDROOT
BRANCH   1  19
ATOM     18  C   UNL A   1      47.605 -23.331 -41.894  0.00  0.00    +0.079 C 
ATOM     19  O   UNL A   1      46.365 -23.011 -41.275  0.00  0.00    -0.491 OA
ENDBRANCH   1  19
BRANCH  10  20
ATOM     20  O   UNL A   1      40.659 -22.085 -37.747  0.00  0.00    -0.388 OA
ATOM     21  H   UNL A   1      39.966 -21.668 -37.212  0.00  0.00    +0.000 HD
ENDBRANCH  10  20
BRANCH  16  22
ATOM     22  C   UNL A   1      45.160 -15.800 -38.573  0.00  0.00    +0.018 C 
BRANCH  22  23
ATOM     23  C   UNL A   1      44.548 -15.831 -37.175  0.00  0.00    -0.035 C 
BRANCH  23  24
ATOM     24  C   UNL A   1      43.025 -15.959 -37.258  0.00  0.00    -0.051 C 
BRANCH  24  25
ATOM     25  C   UNL A   1      42.431 -16.511 -35.961  0.00  0.00    -0.053 C 
BRANCH  25  26
ATOM     26  C   UNL A   1      40.992 -16.988 -36.173  0.00  0.00    -0.053 C 
BRANCH  26  27
ATOM     27  C   UNL A   1      40.494 -17.815 -34.987  0.00  0.00    -0.052 C 
BRANCH  27  28
ATOM     28  C   UNL A   1      41.127 -17.349 -33.675  0.00  0.00    -0.037 C 
BRANCH  28  29
ATOM     29  C   UNL A   1      41.824 -18.506 -32.955  0.00  0.00    +0.023 C 
BRANCH  29  30
ATOM     30  N   UNL A   1      43.166 -18.741 -33.450  0.00  0.00    -0.234 N 
ATOM     31  C   UNL A   1      44.211 -17.874 -33.271  0.00  0.00    +0.254 C 
ATOM     32  O   UNL A   1      44.243 -16.828 -32.652  0.00  0.00    -0.270 OA
ATOM     33  C   UNL A   1      45.345 -18.430 -34.006  0.00  0.00    +0.049 A 
ATOM     34  C   UNL A   1      46.633 -17.955 -34.162  0.00  0.00    -0.049 A 
ATOM     35  C   UNL A   1      47.504 -18.716 -34.948  0.00  0.00    -0.061 A 
ATOM     36  C   UNL A   1      47.074 -19.916 -35.551  0.00  0.00    -0.061 A 
ATOM     37  C   UNL A   1      45.763 -20.374 -35.384  0.00  0.00    -0.049 A 
ATOM     38  C   UNL A   1      44.921 -19.603 -34.605  0.00  0.00    +0.049 A 
ATOM     39  C   UNL A   1      43.511 -19.787 -34.265  0.00  0.00    +0.254 C 
ATOM     40  O   UNL A   1      42.822 -20.702 -34.673  0.00  0.00    -0.270 OA
ENDBRANCH  29  30
ENDBRANCH  28  29
ENDBRANCH  27  28
ENDBRANCH  26  27
ENDBRANCH  25  26
ENDBRANCH  24  25
ENDBRANCH  23  24
ENDBRANCH  22  23
ENDBRANCH  16  22
TORSDOF 11
ENDMDL
MODEL 9
REMARK VINA RESULT:    -5.853      2.265      4.741
REMARK INTER + INTRA:         -13.414
REMARK INTER:                 -10.870
REMARK INTRA:                  -2.543
REMARK UNBOUND:                -3.967
REMARK  Name = cpd105.pdb
REMARK  12 active torsions:
REMARK  status: ('A' for Active; 'I' for Inactive)
REMARK    1  A    between atoms: C_1  and  O_2
REMARK    2  A    between atoms: O_2  and  C_3
REMARK    3  A    between atoms: C_12  and  O_13
REMARK    4  A    between atoms: N_19  and  C_20
REMARK    5  A    between atoms: C_20  and  C_21
REMARK    6  A    between atoms: C_21  and  C_22
REMARK    7  A    between atoms: C_22  and  C_23
REMARK    8  A    between atoms: C_23  and  C_24
REMARK    9  A    between atoms: C_24  and  C_25
REMARK   10  A    between atoms: C_25  and  C_26
REMARK   11  A    between atoms: C_26  and  C_27
REMARK   12  A    between atoms: C_27  and  N_28
REMARK                            x       y       z     vdW  Elec       q    Type
REMARK                         _______ _______ _______ _____ _____    ______ ____
ROOT
ATOM      1  C   UNL A   1      46.404 -21.048 -41.624  0.00  0.00    +0.162 A 
ATOM      2  C   UNL A   1      45.485 -21.988 -42.108  0.00  0.00    -0.016 A 
ATOM      3  C   UNL A   1      44.134 -21.945 -41.712  0.00  0.00    -0.049 A 
ATOM      4  C   UNL A   1      43.700 -20.940 -40.847  0.00  0.00    -0.001 A 
ATOM      5  C   UNL A   1      44.581 -19.943 -40.461  0.00  0.00    +0.020 A 
ATOM      6  C   UNL A   1      45.919 -20.041 -40.801  0.00  0.00    +0.167 A 
ATOM      7  O   UNL A   1      46.697 -19.096 -40.176  0.00  0.00    -0.484 OA
ATOM      8  C   UNL A   1      45.759 -18.101 -39.687  0.00  0.00    +0.116 C 
ATOM      9  C   UNL A   1      45.849 -16.918 -40.660  0.00  0.00    +0.015 C 
ATOM     10  C   UNL A   1      44.751 -15.896 -40.426  0.00  0.00    +0.077 C 
ATOM     11  C   UNL A   1      43.413 -16.559 -40.379  0.00  0.00    -0.059 C 
ATOM     12  C   UNL A   1      43.228 -17.847 -40.050  0.00  0.00    -0.071 C 
ATOM     13  C   UNL A   1      44.341 -18.766 -39.574  0.00  0.00    +0.057 C 
ATOM     14  C   UNL A   1      44.025 -19.257 -38.136  0.00  0.00    -0.019 C 
ATOM     15  C   UNL A   1      43.280 -20.594 -37.990  0.00  0.00    +0.019 C 
ATOM     16  N   UNL A   1      42.151 -20.785 -38.975  0.00  0.00    -0.376 N 
ATOM     17  C   UNL A   1      42.368 -21.014 -40.235  0.00  0.00    +0.008 C 
ENDROOT
BRANCH   1  19
ATOM     18  C   UNL A   1      48.463 -22.243 -41.698  0.00  0.00    +0.079 C 
ATOM     19  O   UNL A   1      47.743 -21.030 -41.881  0.00  0.00    -0.491 OA
ENDBRANCH   1  19
BRANCH  10  20
ATOM     20  O   UNL A   1      44.719 -14.982 -41.511  0.00  0.00    -0.388 OA
ATOM     21  H   UNL A   1      44.507 -14.095 -41.180  0.00  0.00    +0.000 HD
ENDBRANCH  10  20
BRANCH  16  22
ATOM     22  C   UNL A   1      40.764 -20.914 -38.412  0.00  0.00    +0.018 C 
BRANCH  22  23
ATOM     23  C   UNL A   1      40.807 -20.886 -36.886  0.00  0.00    -0.035 C 
BRANCH  23  24
ATOM     24  C   UNL A   1      40.475 -22.266 -36.314  0.00  0.00    -0.051 C 
BRANCH  24  25
ATOM     25  C   UNL A   1      38.988 -22.398 -35.978  0.00  0.00    -0.053 C 
BRANCH  25  26
ATOM     26  C   UNL A   1      38.722 -23.651 -35.140  0.00  0.00    -0.053 C 
BRANCH  26  27
ATOM     27  C   UNL A   1      38.225 -23.295 -33.739  0.00  0.00    -0.052 C 
BRANCH  27  28
ATOM     28  C   UNL A   1      37.799 -21.827 -33.653  0.00  0.00    -0.037 C 
BRANCH  28  29
ATOM     29  C   UNL A   1      38.493 -21.117 -32.490  0.00  0.00    +0.023 C 
BRANCH  29  30
ATOM     30  N   UNL A   1      39.701 -20.428 -32.900  0.00  0.00    -0.234 N 
ATOM     31  C   UNL A   1      39.714 -19.198 -33.502  0.00  0.00    +0.254 C 
ATOM     32  O   UNL A   1      38.785 -18.453 -33.745  0.00  0.00    -0.270 OA
ATOM     33  C   UNL A   1      41.107 -18.916 -33.845  0.00  0.00    +0.049 A 
ATOM     34  C   UNL A   1      41.672 -17.821 -34.469  0.00  0.00    -0.049 A 
ATOM     35  C   UNL A   1      43.056 -17.846 -34.674  0.00  0.00    -0.061 A 
ATOM     36  C   UNL A   1      43.830 -18.948 -34.255  0.00  0.00    -0.061 A 
ATOM     37  C   UNL A   1      43.233 -20.048 -33.631  0.00  0.00    -0.049 A 
ATOM     38  C   UNL A   1      41.865 -20.000 -33.443  0.00  0.00    +0.049 A 
ATOM     39  C   UNL A   1      40.953 -20.982 -32.857  0.00  0.00    +0.254 C 
ATOM     40  O   UNL A   1      41.296 -22.074 -32.446  0.00  0.00    -0.270 OA
ENDBRANCH  29  30
ENDBRANCH  28  29
ENDBRANCH  27  28
ENDBRANCH  26  27
ENDBRANCH  25  26
ENDBRANCH  24  25
ENDBRANCH  23  24
ENDBRANCH  22  23
ENDBRANCH  16  22
TORSDOF 11
ENDMDL
MODEL 10
REMARK VINA RESULT:    -5.851      2.387      7.088
REMARK INTER + INTRA:         -13.410
REMARK INTER:                 -10.941
REMARK INTRA:                  -2.468
REMARK UNBOUND:                -3.967
REMARK  Name = cpd105.pdb
REMARK  12 active torsions:
REMARK  status: ('A' for Active; 'I' for Inactive)
REMARK    1  A    between atoms: C_1  and  O_2
REMARK    2  A    between atoms: O_2  and  C_3
REMARK    3  A    between atoms: C_12  and  O_13
REMARK    4  A    between atoms: N_19  and  C_20
REMARK    5  A    between atoms: C_20  and  C_21
REMARK    6  A    between atoms: C_21  and  C_22
REMARK    7  A    between atoms: C_22  and  C_23
REMARK    8  A    between atoms: C_23  and  C_24
REMARK    9  A    between atoms: C_24  and  C_25
REMARK   10  A    between atoms: C_25  and  C_26
REMARK   11  A    between atoms: C_26  and  C_27
REMARK   12  A    between atoms: C_27  and  N_28
REMARK                            x       y       z     vdW  Elec       q    Type
REMARK                         _______ _______ _______ _____ _____    ______ ____
ROOT
ATOM      1  C   UNL A   1      39.465 -22.727 -33.838  0.00  0.00    +0.162 A 
ATOM      2  C   UNL A   1      39.181 -22.029 -32.657  0.00  0.00    -0.016 A 
ATOM      3  C   UNL A   1      39.779 -20.781 -32.395  0.00  0.00    -0.049 A 
ATOM      4  C   UNL A   1      40.646 -20.221 -33.332  0.00  0.00    -0.001 A 
ATOM      5  C   UNL A   1      40.838 -20.853 -34.550  0.00  0.00    +0.020 A 
ATOM      6  C   UNL A   1      40.300 -22.111 -34.762  0.00  0.00    +0.167 A 
ATOM      7  O   UNL A   1      40.746 -22.691 -35.924  0.00  0.00    -0.484 OA
ATOM      8  C   UNL A   1      41.322 -21.601 -36.691  0.00  0.00    +0.116 C 
ATOM      9  C   UNL A   1      40.286 -21.244 -37.765  0.00  0.00    +0.015 C 
ATOM     10  C   UNL A   1      40.633 -19.958 -38.495  0.00  0.00    +0.077 C 
ATOM     11  C   UNL A   1      40.922 -18.861 -37.524  0.00  0.00    -0.059 C 
ATOM     12  C   UNL A   1      41.344 -19.067 -36.266  0.00  0.00    -0.071 C 
ATOM     13  C   UNL A   1      41.689 -20.436 -35.705  0.00  0.00    +0.057 C 
ATOM     14  C   UNL A   1      43.182 -20.459 -35.283  0.00  0.00    -0.019 C 
ATOM     15  C   UNL A   1      43.512 -20.119 -33.821  0.00  0.00    +0.019 C 
ATOM     16  N   UNL A   1      42.726 -18.956 -33.262  0.00  0.00    -0.376 N 
ATOM     17  C   UNL A   1      41.462 -19.051 -32.981  0.00  0.00    +0.008 C 
ENDROOT
BRANCH   1  19
ATOM     18  C   UNL A   1      37.723 -24.341 -33.677  0.00  0.00    +0.079 C 
ATOM     19  O   UNL A   1      39.003 -23.965 -34.169  0.00  0.00    -0.491 OA
ENDBRANCH   1  19
BRANCH  10  20
ATOM     20  O   UNL A   1      39.519 -19.539 -39.268  0.00  0.00    -0.388 OA
ATOM     21  H   UNL A   1      38.747 -20.081 -39.042  0.00  0.00    +0.000 HD
ENDBRANCH  10  20
BRANCH  16  22
ATOM     22  C   UNL A   1      43.504 -17.742 -32.840  0.00  0.00    +0.018 C 
BRANCH  22  23
ATOM     23  C   UNL A   1      44.960 -17.866 -33.281  0.00  0.00    -0.035 C 
BRANCH  23  24
ATOM     24  C   UNL A   1      45.162 -17.223 -34.655  0.00  0.00    -0.051 C 
BRANCH  24  25
ATOM     25  C   UNL A   1      44.101 -16.160 -34.946  0.00  0.00    -0.053 C 
BRANCH  25  26
ATOM     26  C   UNL A   1      43.713 -16.159 -36.426  0.00  0.00    -0.053 C 
BRANCH  26  27
ATOM     27  C   UNL A   1      44.442 -17.260 -37.199  0.00  0.00    -0.052 C 
BRANCH  27  28
ATOM     28  C   UNL A   1      44.524 -16.935 -38.692  0.00  0.00    -0.037 C 
BRANCH  28  29
ATOM     29  C   UNL A   1      43.781 -17.979 -39.526  0.00  0.00    +0.023 C 
BRANCH  29  30
ATOM     30  N   UNL A   1      44.659 -19.018 -40.029  0.00  0.00    -0.234 N 
ATOM     31  C   UNL A   1      44.687 -20.298 -39.543  0.00  0.00    +0.254 C 
ATOM     32  O   UNL A   1      43.988 -20.811 -38.691  0.00  0.00    -0.270 OA
ATOM     33  C   UNL A   1      45.772 -20.985 -40.242  0.00  0.00    +0.049 A 
ATOM     34  C   UNL A   1      46.232 -22.283 -40.127  0.00  0.00    -0.049 A 
ATOM     35  C   UNL A   1      47.313 -22.651 -40.934  0.00  0.00    -0.061 A 
ATOM     36  C   UNL A   1      47.901 -21.727 -41.823  0.00  0.00    -0.061 A 
ATOM     37  C   UNL A   1      47.422 -20.416 -41.916  0.00  0.00    -0.049 A 
ATOM     38  C   UNL A   1      46.354 -20.077 -41.107  0.00  0.00    +0.049 A 
ATOM     39  C   UNL A   1      45.651 -18.805 -40.950  0.00  0.00    +0.254 C 
ATOM     40  O   UNL A   1      45.948 -17.781 -41.536  0.00  0.00    -0.270 OA
ENDBRANCH  29  30
ENDBRANCH  28  29
ENDBRANCH  27  28
ENDBRANCH  26  27
ENDBRANCH  25  26
ENDBRANCH  24  25
ENDBRANCH  23  24
ENDBRANCH  22  23
ENDBRANCH  16  22
TORSDOF 11
ENDMDL
MODEL 11
REMARK VINA RESULT:    -5.847      1.683      4.050
REMARK INTER + INTRA:         -13.404
REMARK INTER:                 -10.171
REMARK INTRA:                  -3.233
REMARK UNBOUND:                -3.967
REMARK  Name = cpd105.pdb
REMARK  12 active torsions:
REMARK  status: ('A' for Active; 'I' for Inactive)
REMARK    1  A    between atoms: C_1  and  O_2
REMARK    2  A    between atoms: O_2  and  C_3
REMARK    3  A    between atoms: C_12  and  O_13
REMARK    4  A    between atoms: N_19  and  C_20
REMARK    5  A    between atoms: C_20  and  C_21
REMARK    6  A    between atoms: C_21  and  C_22
REMARK    7  A    between atoms: C_22  and  C_23
REMARK    8  A    between atoms: C_23  and  C_24
REMARK    9  A    between atoms: C_24  and  C_25
REMARK   10  A    between atoms: C_25  and  C_26
REMARK   11  A    between atoms: C_26  and  C_27
REMARK   12  A    between atoms: C_27  and  N_28
REMARK                            x       y       z     vdW  Elec       q    Type
REMARK                         _______ _______ _______ _____ _____    ______ ____
ROOT
ATOM      1  C   UNL A   1      43.236 -20.947 -40.945  0.00  0.00    +0.162 A 
ATOM      2  C   UNL A   1      42.240 -21.917 -41.122  0.00  0.00    -0.016 A 
ATOM      3  C   UNL A   1      41.176 -22.033 -40.207  0.00  0.00    -0.049 A 
ATOM      4  C   UNL A   1      41.098 -21.158 -39.124  0.00  0.00    -0.001 A 
ATOM      5  C   UNL A   1      42.016 -20.126 -39.012  0.00  0.00    +0.020 A 
ATOM      6  C   UNL A   1      43.094 -20.070 -39.878  0.00  0.00    +0.167 A 
ATOM      7  O   UNL A   1      44.020 -19.122 -39.515  0.00  0.00    -0.484 OA
ATOM      8  C   UNL A   1      43.328 -18.266 -38.567  0.00  0.00    +0.116 C 
ATOM      9  C   UNL A   1      42.954 -16.994 -39.338  0.00  0.00    +0.015 C 
ATOM     10  C   UNL A   1      42.009 -16.101 -38.552  0.00  0.00    +0.077 C 
ATOM     11  C   UNL A   1      40.843 -16.884 -38.044  0.00  0.00    -0.059 C 
ATOM     12  C   UNL A   1      40.868 -18.209 -37.830  0.00  0.00    -0.071 C 
ATOM     13  C   UNL A   1      42.116 -19.064 -37.967  0.00  0.00    +0.057 C 
ATOM     14  C   UNL A   1      42.449 -19.714 -36.598  0.00  0.00    -0.019 C 
ATOM     15  C   UNL A   1      41.891 -21.121 -36.326  0.00  0.00    +0.019 C 
ATOM     16  N   UNL A   1      40.464 -21.320 -36.779  0.00  0.00    -0.376 N 
ATOM     17  C   UNL A   1      40.147 -21.409 -38.035  0.00  0.00    +0.008 C 
ENDROOT
BRANCH   1  19
ATOM     18  C   UNL A   1      44.751 -21.886 -42.524  0.00  0.00    +0.079 C 
ATOM     19  O   UNL A   1      44.343 -20.784 -41.722  0.00  0.00    -0.491 OA
ENDBRANCH   1  19
BRANCH  10  20
ATOM     20  O   UNL A   1      41.488 -15.096 -39.408  0.00  0.00    -0.388 OA
ATOM     21  H   UNL A   1      40.730 -14.669 -38.980  0.00  0.00    +0.000 HD
ENDBRANCH  10  20
BRANCH  16  22
ATOM     22  C   UNL A   1      39.445 -21.626 -35.719  0.00  0.00    +0.018 C 
BRANCH  22  23
ATOM     23  C   UNL A   1      40.058 -21.463 -34.331  0.00  0.00    -0.035 C 
BRANCH  23  24
ATOM     24  C   UNL A   1      39.027 -20.899 -33.350  0.00  0.00    -0.051 C 
BRANCH  24  25
ATOM     25  C   UNL A   1      39.542 -19.643 -32.646  0.00  0.00    -0.053 C 
BRANCH  25  26
ATOM     26  C   UNL A   1      40.380 -18.783 -33.596  0.00  0.00    -0.053 C 
BRANCH  26  27
ATOM     27  C   UNL A   1      41.595 -18.183 -32.886  0.00  0.00    -0.052 C 
BRANCH  27  28
ATOM     28  C   UNL A   1      42.731 -19.201 -32.766  0.00  0.00    -0.037 C 
BRANCH  28  29
ATOM     29  C   UNL A   1      44.091 -18.504 -32.690  0.00  0.00    +0.023 C 
BRANCH  29  30
ATOM     30  N   UNL A   1      44.771 -18.471 -33.971  0.00  0.00    -0.234 N 
ATOM     31  C   UNL A   1      45.416 -19.546 -34.523  0.00  0.00    +0.254 C 
ATOM     32  O   UNL A   1      45.495 -20.687 -34.112  0.00  0.00    -0.270 OA
ATOM     33  C   UNL A   1      46.050 -19.066 -35.750  0.00  0.00    +0.049 A 
ATOM     34  C   UNL A   1      46.824 -19.734 -36.679  0.00  0.00    -0.049 A 
ATOM     35  C   UNL A   1      47.308 -18.990 -37.760  0.00  0.00    -0.061 A 
ATOM     36  C   UNL A   1      47.009 -17.617 -37.886  0.00  0.00    -0.061 A 
ATOM     37  C   UNL A   1      46.228 -16.962 -36.928  0.00  0.00    -0.049 A 
ATOM     38  C   UNL A   1      45.765 -17.718 -35.869  0.00  0.00    +0.049 A 
ATOM     39  C   UNL A   1      44.962 -17.333 -34.709  0.00  0.00    +0.254 C 
ATOM     40  O   UNL A   1      44.583 -16.200 -34.485  0.00  0.00    -0.270 OA
ENDBRANCH  29  30
ENDBRANCH  28  29
ENDBRANCH  27  28
ENDBRANCH  26  27
ENDBRANCH  25  26
ENDBRANCH  24  25
ENDBRANCH  23  24
ENDBRANCH  22  23
ENDBRANCH  16  22
TORSDOF 11
ENDMDL
MODEL 12
REMARK VINA RESULT:    -5.793      2.208      3.877
REMARK INTER + INTRA:         -13.316
REMARK INTER:                  -8.945
REMARK INTRA:                  -4.371
REMARK UNBOUND:                -3.967
REMARK  Name = cpd105.pdb
REMARK  12 active torsions:
REMARK  status: ('A' for Active; 'I' for Inactive)
REMARK    1  A    between atoms: C_1  and  O_2
REMARK    2  A    between atoms: O_2  and  C_3
REMARK    3  A    between atoms: C_12  and  O_13
REMARK    4  A    between atoms: N_19  and  C_20
REMARK    5  A    between atoms: C_20  and  C_21
REMARK    6  A    between atoms: C_21  and  C_22
REMARK    7  A    between atoms: C_22  and  C_23
REMARK    8  A    between atoms: C_23  and  C_24
REMARK    9  A    between atoms: C_24  and  C_25
REMARK   10  A    between atoms: C_25  and  C_26
REMARK   11  A    between atoms: C_26  and  C_27
REMARK   12  A    between atoms: C_27  and  N_28
REMARK                            x       y       z     vdW  Elec       q    Type
REMARK                         _______ _______ _______ _____ _____    ______ ____
ROOT
ATOM      1  C   UNL A   1      45.969 -16.504 -39.780  0.00  0.00    +0.162 A 
ATOM      2  C   UNL A   1      44.698 -16.160 -40.259  0.00  0.00    -0.016 A 
ATOM      3  C   UNL A   1      43.627 -17.072 -40.180  0.00  0.00    -0.049 A 
ATOM      4  C   UNL A   1      43.827 -18.323 -39.597  0.00  0.00    -0.001 A 
ATOM      5  C   UNL A   1      45.050 -18.620 -39.019  0.00  0.00    +0.020 A 
ATOM      6  C   UNL A   1      46.110 -17.743 -39.168  0.00  0.00    +0.167 A 
ATOM      7  O   UNL A   1      47.301 -18.267 -38.724  0.00  0.00    -0.484 OA
ATOM      8  C   UNL A   1      46.927 -19.408 -37.907  0.00  0.00    +0.116 C 
ATOM      9  C   UNL A   1      47.071 -18.952 -36.450  0.00  0.00    +0.015 C 
ATOM     10  C   UNL A   1      46.482 -19.954 -35.472  0.00  0.00    +0.077 C 
ATOM     11  C   UNL A   1      45.091 -20.326 -35.871  0.00  0.00    -0.059 C 
ATOM     12  C   UNL A   1      44.626 -20.243 -37.127  0.00  0.00    -0.071 C 
ATOM     13  C   UNL A   1      45.485 -19.868 -38.323  0.00  0.00    +0.057 C 
ATOM     14  C   UNL A   1      45.503 -21.046 -39.334  0.00  0.00    -0.019 C 
ATOM     15  C   UNL A   1      44.463 -21.025 -40.466  0.00  0.00    +0.019 C 
ATOM     16  N   UNL A   1      43.081 -20.600 -40.031  0.00  0.00    -0.376 N 
ATOM     17  C   UNL A   1      42.805 -19.369 -39.721  0.00  0.00    +0.008 C 
ENDROOT
BRANCH   1  19
ATOM     18  C   UNL A   1      47.250 -14.700 -38.901  0.00  0.00    +0.079 C 
ATOM     19  O   UNL A   1      47.092 -15.736 -39.862  0.00  0.00    -0.491 OA
ENDBRANCH   1  19
BRANCH  10  20
ATOM     20  O   UNL A   1      46.396 -19.363 -34.185  0.00  0.00    -0.388 OA
ATOM     21  H   UNL A   1      45.688 -18.699 -34.181  0.00  0.00    +0.000 HD
ENDBRANCH  10  20
BRANCH  16  22
ATOM     22  C   UNL A   1      41.977 -21.609 -40.173  0.00  0.00    +0.018 C 
BRANCH  22  23
ATOM     23  C   UNL A   1      40.983 -21.473 -39.023  0.00  0.00    -0.035 C 
BRANCH  23  24
ATOM     24  C   UNL A   1      41.432 -22.311 -37.823  0.00  0.00    -0.051 C 
BRANCH  24  25
ATOM     25  C   UNL A   1      41.294 -21.539 -36.509  0.00  0.00    -0.053 C 
BRANCH  25  26
ATOM     26  C   UNL A   1      40.711 -22.427 -35.407  0.00  0.00    -0.053 C 
BRANCH  26  27
ATOM     27  C   UNL A   1      39.413 -21.845 -34.845  0.00  0.00    -0.052 C 
BRANCH  27  28
ATOM     28  C   UNL A   1      38.909 -20.678 -35.696  0.00  0.00    -0.037 C 
BRANCH  28  29
ATOM     29  C   UNL A   1      38.894 -19.375 -34.893  0.00  0.00    +0.023 C 
BRANCH  29  30
ATOM     30  N   UNL A   1      40.142 -18.644 -34.996  0.00  0.00    -0.234 N 
ATOM     31  C   UNL A   1      40.552 -17.986 -36.124  0.00  0.00    +0.254 C 
ATOM     32  O   UNL A   1      39.970 -17.837 -37.181  0.00  0.00    -0.270 OA
ATOM     33  C   UNL A   1      41.894 -17.477 -35.845  0.00  0.00    +0.049 A 
ATOM     34  C   UNL A   1      42.762 -16.753 -36.639  0.00  0.00    -0.049 A 
ATOM     35  C   UNL A   1      44.003 -16.418 -36.089  0.00  0.00    -0.061 A 
ATOM     36  C   UNL A   1      44.343 -16.808 -34.777  0.00  0.00    -0.061 A 
ATOM     37  C   UNL A   1      43.449 -17.547 -33.994  0.00  0.00    -0.049 A 
ATOM     38  C   UNL A   1      42.231 -17.868 -34.562  0.00  0.00    +0.049 A 
ATOM     39  C   UNL A   1      41.110 -18.639 -34.027  0.00  0.00    +0.254 C 
ATOM     40  O   UNL A   1      41.104 -19.169 -32.933  0.00  0.00    -0.270 OA
ENDBRANCH  29  30
ENDBRANCH  28  29
ENDBRANCH  27  28
ENDBRANCH  26  27
ENDBRANCH  25  26
ENDBRANCH  24  25
ENDBRANCH  23  24
ENDBRANCH  22  23
ENDBRANCH  16  22
TORSDOF 11
ENDMDL
MODEL 13
REMARK VINA RESULT:    -5.774      2.287      4.861
REMARK INTER + INTRA:         -13.286
REMARK INTER:                  -9.033
REMARK INTRA:                  -4.253
REMARK UNBOUND:                -3.967
REMARK  Name = cpd105.pdb
REMARK  12 active torsions:
REMARK  status: ('A' for Active; 'I' for Inactive)
REMARK    1  A    between atoms: C_1  and  O_2
REMARK    2  A    between atoms: O_2  and  C_3
REMARK    3  A    between atoms: C_12  and  O_13
REMARK    4  A    between atoms: N_19  and  C_20
REMARK    5  A    between atoms: C_20  and  C_21
REMARK    6  A    between atoms: C_21  and  C_22
REMARK    7  A    between atoms: C_22  and  C_23
REMARK    8  A    between atoms: C_23  and  C_24
REMARK    9  A    between atoms: C_24  and  C_25
REMARK   10  A    between atoms: C_25  and  C_26
REMARK   11  A    between atoms: C_26  and  C_27
REMARK   12  A    between atoms: C_27  and  N_28
REMARK                            x       y       z     vdW  Elec       q    Type
REMARK                         _______ _______ _______ _____ _____    ______ ____
ROOT
ATOM      1  C   UNL A   1      46.145 -14.695 -37.542  0.00  0.00    +0.162 A 
ATOM      2  C   UNL A   1      44.991 -14.342 -38.254  0.00  0.00    -0.016 A 
ATOM      3  C   UNL A   1      44.266 -15.308 -38.978  0.00  0.00    -0.049 A 
ATOM      4  C   UNL A   1      44.688 -16.637 -38.968  0.00  0.00    -0.001 A 
ATOM      5  C   UNL A   1      45.759 -17.009 -38.173  0.00  0.00    +0.020 A 
ATOM      6  C   UNL A   1      46.502 -16.037 -37.525  0.00  0.00    +0.167 A 
ATOM      7  O   UNL A   1      47.645 -16.537 -36.950  0.00  0.00    -0.484 OA
ATOM      8  C   UNL A   1      47.449 -17.975 -36.911  0.00  0.00    +0.116 C 
ATOM      9  C   UNL A   1      47.079 -18.313 -35.461  0.00  0.00    +0.015 C 
ATOM     10  C   UNL A   1      46.600 -19.747 -35.308  0.00  0.00    +0.077 C 
ATOM     11  C   UNL A   1      45.536 -20.058 -36.309  0.00  0.00    -0.059 C 
ATOM     12  C   UNL A   1      45.395 -19.412 -37.477  0.00  0.00    -0.071 C 
ATOM     13  C   UNL A   1      46.368 -18.360 -37.983  0.00  0.00    +0.057 C 
ATOM     14  C   UNL A   1      46.995 -18.838 -39.319  0.00  0.00    -0.019 C 
ATOM     15  C   UNL A   1      46.316 -18.391 -40.623  0.00  0.00    +0.019 C 
ATOM     16  N   UNL A   1      44.806 -18.452 -40.588  0.00  0.00    -0.376 N 
ATOM     17  C   UNL A   1      44.099 -17.608 -39.900  0.00  0.00    +0.008 C 
ENDROOT
BRANCH   1  19
ATOM     18  C   UNL A   1      47.793 -12.979 -37.631  0.00  0.00    +0.079 C 
ATOM     19  O   UNL A   1      46.962 -13.841 -36.864  0.00  0.00    -0.491 OA
ENDBRANCH   1  19
BRANCH  10  20
ATOM     20  O   UNL A   1      46.021 -19.916 -34.025  0.00  0.00    -0.388 OA
ATOM     21  H   UNL A   1      45.621 -20.799 -33.964  0.00  0.00    +0.000 HD
ENDBRANCH  10  20
BRANCH  16  22
ATOM     22  C   UNL A   1      44.136 -19.393 -41.548  0.00  0.00    +0.018 C 
BRANCH  22  23
ATOM     23  C   UNL A   1      44.647 -20.816 -41.340  0.00  0.00    -0.035 C 
BRANCH  23  24
ATOM     24  C   UNL A   1      44.119 -21.388 -40.022  0.00  0.00    -0.051 C 
BRANCH  24  25
ATOM     25  C   UNL A   1      42.625 -21.114 -39.841  0.00  0.00    -0.053 C 
BRANCH  25  26
ATOM     26  C   UNL A   1      41.911 -22.327 -39.241  0.00  0.00    -0.053 C 
BRANCH  26  27
ATOM     27  C   UNL A   1      41.030 -21.930 -38.055  0.00  0.00    -0.052 C 
BRANCH  27  28
ATOM     28  C   UNL A   1      41.868 -21.652 -36.805  0.00  0.00    -0.037 C 
BRANCH  28  29
ATOM     29  C   UNL A   1      41.107 -20.769 -35.814  0.00  0.00    +0.023 C 
BRANCH  29  30
ATOM     30  N   UNL A   1      41.915 -19.677 -35.308  0.00  0.00    -0.234 N 
ATOM     31  C   UNL A   1      42.410 -19.620 -34.032  0.00  0.00    +0.254 C 
ATOM     32  O   UNL A   1      42.331 -20.443 -33.140  0.00  0.00    -0.270 OA
ATOM     33  C   UNL A   1      43.071 -18.323 -33.899  0.00  0.00    +0.049 A 
ATOM     34  C   UNL A   1      43.725 -17.756 -32.823  0.00  0.00    -0.049 A 
ATOM     35  C   UNL A   1      44.253 -16.472 -33.000  0.00  0.00    -0.061 A 
ATOM     36  C   UNL A   1      44.116 -15.796 -34.230  0.00  0.00    -0.061 A 
ATOM     37  C   UNL A   1      43.442 -16.389 -35.303  0.00  0.00    -0.049 A 
ATOM     38  C   UNL A   1      42.928 -17.655 -35.102  0.00  0.00    +0.049 A 
ATOM     39  C   UNL A   1      42.163 -18.521 -35.998  0.00  0.00    +0.254 C 
ATOM     40  O   UNL A   1      41.823 -18.211 -37.124  0.00  0.00    -0.270 OA
ENDBRANCH  29  30
ENDBRANCH  28  29
ENDBRANCH  27  28
ENDBRANCH  26  27
ENDBRANCH  25  26
ENDBRANCH  24  25
ENDBRANCH  23  24
ENDBRANCH  22  23
ENDBRANCH  16  22
TORSDOF 11
ENDMDL
MODEL 14
REMARK VINA RESULT:    -5.693      2.412      5.252
REMARK INTER + INTRA:         -13.154
REMARK INTER:                  -8.668
REMARK INTRA:                  -4.487
REMARK UNBOUND:                -3.967
REMARK  Name = cpd105.pdb
REMARK  12 active torsions:
REMARK  status: ('A' for Active; 'I' for Inactive)
REMARK    1  A    between atoms: C_1  and  O_2
REMARK    2  A    between atoms: O_2  and  C_3
REMARK    3  A    between atoms: C_12  and  O_13
REMARK    4  A    between atoms: N_19  and  C_20
REMARK    5  A    between atoms: C_20  and  C_21
REMARK    6  A    between atoms: C_21  and  C_22
REMARK    7  A    between atoms: C_22  and  C_23
REMARK    8  A    between atoms: C_23  and  C_24
REMARK    9  A    between atoms: C_24  and  C_25
REMARK   10  A    between atoms: C_25  and  C_26
REMARK   11  A    between atoms: C_26  and  C_27
REMARK   12  A    between atoms: C_27  and  N_28
REMARK                            x       y       z     vdW  Elec       q    Type
REMARK                         _______ _______ _______ _____ _____    ______ ____
ROOT
ATOM      1  C   UNL A   1      46.451 -20.345 -41.061  0.00  0.00    +0.162 A 
ATOM      2  C   UNL A   1      45.551 -19.780 -41.974  0.00  0.00    -0.016 A 
ATOM      3  C   UNL A   1      44.347 -19.199 -41.533  0.00  0.00    -0.049 A 
ATOM      4  C   UNL A   1      44.057 -19.163 -40.169  0.00  0.00    -0.001 A 
ATOM      5  C   UNL A   1      44.997 -19.615 -39.258  0.00  0.00    +0.020 A 
ATOM      6  C   UNL A   1      46.142 -20.247 -39.711  0.00  0.00    +0.167 A 
ATOM      7  O   UNL A   1      46.870 -20.821 -38.697  0.00  0.00    -0.484 OA
ATOM      8  C   UNL A   1      46.361 -20.214 -37.480  0.00  0.00    +0.116 C 
ATOM      9  C   UNL A   1      47.399 -19.165 -37.061  0.00  0.00    +0.015 C 
ATOM     10  C   UNL A   1      46.895 -18.271 -35.941  0.00  0.00    +0.077 C 
ATOM     11  C   UNL A   1      45.550 -17.714 -36.275  0.00  0.00    -0.059 C 
ATOM     12  C   UNL A   1      44.689 -18.296 -37.123  0.00  0.00    -0.071 C 
ATOM     13  C   UNL A   1      44.923 -19.653 -37.767  0.00  0.00    +0.057 C 
ATOM     14  C   UNL A   1      43.801 -20.631 -37.328  0.00  0.00    -0.019 C 
ATOM     15  C   UNL A   1      42.571 -20.756 -38.242  0.00  0.00    +0.019 C 
ATOM     16  N   UNL A   1      42.070 -19.441 -38.790  0.00  0.00    -0.376 N 
ATOM     17  C   UNL A   1      42.715 -18.786 -39.706  0.00  0.00    +0.008 C 
ENDROOT
BRANCH   1  19
ATOM     18  C   UNL A   1      47.518 -22.369 -41.723  0.00  0.00    +0.079 C 
ATOM     19  O   UNL A   1      47.609 -20.993 -41.374  0.00  0.00    -0.491 OA
ENDBRANCH   1  19
BRANCH  10  20
ATOM     20  O   UNL A   1      47.772 -17.167 -35.789  0.00  0.00    -0.388 OA
ATOM     21  H   UNL A   1      48.690 -17.472 -35.857  0.00  0.00    +0.000 HD
ENDBRANCH  10  20
BRANCH  16  22
ATOM     22  C   UNL A   1      40.684 -19.016 -38.392  0.00  0.00    +0.018 C 
BRANCH  22  23
ATOM     23  C   UNL A   1      40.503 -19.147 -36.882  0.00  0.00    -0.035 C 
BRANCH  23  24
ATOM     24  C   UNL A   1      40.950 -17.865 -36.174  0.00  0.00    -0.051 C 
BRANCH  24  25
ATOM     25  C   UNL A   1      41.234 -16.738 -37.168  0.00  0.00    -0.053 C 
BRANCH  25  26
ATOM     26  C   UNL A   1      40.214 -15.606 -37.024  0.00  0.00    -0.053 C 
BRANCH  26  27
ATOM     27  C   UNL A   1      39.886 -14.969 -38.375  0.00  0.00    -0.052 C 
BRANCH  27  28
ATOM     28  C   UNL A   1      40.822 -15.478 -39.474  0.00  0.00    -0.037 C 
BRANCH  28  29
ATOM     29  C   UNL A   1      41.730 -14.360 -39.989  0.00  0.00    +0.023 C 
BRANCH  29  30
ATOM     30  N   UNL A   1      43.135 -14.714 -39.933  0.00  0.00    -0.234 N 
ATOM     31  C   UNL A   1      43.789 -15.409 -40.915  0.00  0.00    +0.254 C 
ATOM     32  O   UNL A   1      43.373 -15.793 -41.991  0.00  0.00    -0.270 OA
ATOM     33  C   UNL A   1      45.146 -15.646 -40.425  0.00  0.00    +0.049 A 
ATOM     34  C   UNL A   1      46.209 -16.303 -41.013  0.00  0.00    -0.049 A 
ATOM     35  C   UNL A   1      47.397 -16.380 -40.279  0.00  0.00    -0.061 A 
ATOM     36  C   UNL A   1      47.493 -15.807 -38.993  0.00  0.00    -0.061 A 
ATOM     37  C   UNL A   1      46.399 -15.153 -38.417  0.00  0.00    -0.049 A 
ATOM     38  C   UNL A   1      45.237 -15.093 -39.161  0.00  0.00    +0.049 A 
ATOM     39  C   UNL A   1      43.933 -14.515 -38.838  0.00  0.00    +0.254 C 
ATOM     40  O   UNL A   1      43.662 -13.988 -37.776  0.00  0.00    -0.270 OA
ENDBRANCH  29  30
ENDBRANCH  28  29
ENDBRANCH  27  28
ENDBRANCH  26  27
ENDBRANCH  25  26
ENDBRANCH  24  25
ENDBRANCH  23  24
ENDBRANCH  22  23
ENDBRANCH  16  22
TORSDOF 11
ENDMDL
MODEL 15
REMARK VINA RESULT:    -5.591      2.717      4.164
REMARK INTER + INTRA:         -12.990
REMARK INTER:                  -8.454
REMARK INTRA:                  -4.537
REMARK UNBOUND:                -3.967
REMARK  Name = cpd105.pdb
REMARK  12 active torsions:
REMARK  status: ('A' for Active; 'I' for Inactive)
REMARK    1  A    between atoms: C_1  and  O_2
REMARK    2  A    between atoms: O_2  and  C_3
REMARK    3  A    between atoms: C_12  and  O_13
REMARK    4  A    between atoms: N_19  and  C_20
REMARK    5  A    between atoms: C_20  and  C_21
REMARK    6  A    between atoms: C_21  and  C_22
REMARK    7  A    between atoms: C_22  and  C_23
REMARK    8  A    between atoms: C_23  and  C_24
REMARK    9  A    between atoms: C_24  and  C_25
REMARK   10  A    between atoms: C_25  and  C_26
REMARK   11  A    between atoms: C_26  and  C_27
REMARK   12  A    between atoms: C_27  and  N_28
REMARK                            x       y       z     vdW  Elec       q    Type
REMARK                         _______ _______ _______ _____ _____    ______ ____
ROOT
ATOM      1  C   UNL A   1      43.649 -18.573 -39.559  0.00  0.00    +0.162 A 
ATOM      2  C   UNL A   1      43.666 -17.279 -39.024  0.00  0.00    -0.016 A 
ATOM      3  C   UNL A   1      42.535 -16.755 -38.368  0.00  0.00    -0.049 A 
ATOM      4  C   UNL A   1      41.393 -17.542 -38.227  0.00  0.00    -0.001 A 
ATOM      5  C   UNL A   1      41.414 -18.860 -38.651  0.00  0.00    +0.020 A 
ATOM      6  C   UNL A   1      42.506 -19.336 -39.356  0.00  0.00    +0.167 A 
ATOM      7  O   UNL A   1      42.294 -20.586 -39.885  0.00  0.00    -0.484 OA
ATOM      8  C   UNL A   1      41.136 -21.102 -39.177  0.00  0.00    +0.116 C 
ATOM      9  C   UNL A   1      41.679 -22.096 -38.142  0.00  0.00    +0.015 C 
ATOM     10  C   UNL A   1      40.613 -22.539 -37.155  0.00  0.00    +0.077 C 
ATOM     11  C   UNL A   1      39.910 -21.357 -36.571  0.00  0.00    -0.059 C 
ATOM     12  C   UNL A   1      39.826 -20.163 -37.177  0.00  0.00    -0.071 C 
ATOM     13  C   UNL A   1      40.335 -19.890 -38.583  0.00  0.00    +0.057 C 
ATOM     14  C   UNL A   1      39.149 -19.458 -39.485  0.00  0.00    -0.019 C 
ATOM     15  C   UNL A   1      38.876 -17.952 -39.626  0.00  0.00    +0.019 C 
ATOM     16  N   UNL A   1      38.987 -17.178 -38.333  0.00  0.00    -0.376 N 
ATOM     17  C   UNL A   1      40.133 -16.943 -37.768  0.00  0.00    +0.008 C 
ENDROOT
BRANCH   1  19
ATOM     18  C   UNL A   1      44.723 -18.877 -41.662  0.00  0.00    +0.079 C 
ATOM     19  O   UNL A   1      44.652 -19.161 -40.270  0.00  0.00    -0.491 OA
ENDBRANCH   1  19
BRANCH  10  20
ATOM     20  O   UNL A   1      41.226 -23.227 -36.076  0.00  0.00    -0.388 OA
ATOM     21  H   UNL A   1      42.000 -23.714 -36.402  0.00  0.00    +0.000 HD
ENDBRANCH  10  20
BRANCH  16  22
ATOM     22  C   UNL A   1      37.744 -16.502 -37.830  0.00  0.00    +0.018 C 
BRANCH  22  23
ATOM     23  C   UNL A   1      37.395 -17.005 -36.432  0.00  0.00    -0.035 C 
BRANCH  23  24
ATOM     24  C   UNL A   1      36.656 -18.342 -36.511  0.00  0.00    -0.051 C 
BRANCH  24  25
ATOM     25  C   UNL A   1      36.924 -19.212 -35.282  0.00  0.00    -0.053 C 
BRANCH  25  26
ATOM     26  C   UNL A   1      37.518 -18.384 -34.140  0.00  0.00    -0.053 C 
BRANCH  26  27
ATOM     27  C   UNL A   1      38.807 -19.009 -33.603  0.00  0.00    -0.052 C 
BRANCH  27  28
ATOM     28  C   UNL A   1      40.036 -18.193 -34.012  0.00  0.00    -0.037 C 
BRANCH  28  29
ATOM     29  C   UNL A   1      41.263 -18.592 -33.190  0.00  0.00    +0.023 C 
BRANCH  29  30
ATOM     30  N   UNL A   1      42.476 -18.630 -33.983  0.00  0.00    -0.234 N 
ATOM     31  C   UNL A   1      43.245 -17.531 -34.257  0.00  0.00    +0.254 C 
ATOM     32  O   UNL A   1      43.114 -16.386 -33.869  0.00  0.00    -0.270 OA
ATOM     33  C   UNL A   1      44.303 -17.977 -35.162  0.00  0.00    +0.049 A 
ATOM     34  C   UNL A   1      45.337 -17.274 -35.748  0.00  0.00    -0.049 A 
ATOM     35  C   UNL A   1      46.196 -17.986 -36.593  0.00  0.00    -0.061 A 
ATOM     36  C   UNL A   1      46.003 -19.363 -36.828  0.00  0.00    -0.061 A 
ATOM     37  C   UNL A   1      44.943 -20.052 -36.228  0.00  0.00    -0.049 A 
ATOM     38  C   UNL A   1      44.108 -19.326 -35.400  0.00  0.00    +0.049 A 
ATOM     39  C   UNL A   1      42.917 -19.737 -34.659  0.00  0.00    +0.254 C 
ATOM     40  O   UNL A   1      42.444 -20.856 -34.690  0.00  0.00    -0.270 OA
ENDBRANCH  29  30
ENDBRANCH  28  29
ENDBRANCH  27  28
ENDBRANCH  26  27
ENDBRANCH  25  26
ENDBRANCH  24  25
ENDBRANCH  23  24
ENDBRANCH  22  23
ENDBRANCH  16  22
TORSDOF 11
ENDMDL
MODEL 16
REMARK VINA RESULT:    -5.568      2.565      6.667
REMARK INTER + INTRA:         -12.953
REMARK INTER:                  -9.894
REMARK INTRA:                  -3.059
REMARK UNBOUND:                -3.967
REMARK  Name = cpd105.pdb
REMARK  12 active torsions:
REMARK  status: ('A' for Active; 'I' for Inactive)
REMARK    1  A    between atoms: C_1  and  O_2
REMARK    2  A    between atoms: O_2  and  C_3
REMARK    3  A    between atoms: C_12  and  O_13
REMARK    4  A    between atoms: N_19  and  C_20
REMARK    5  A    between atoms: C_20  and  C_21
REMARK    6  A    between atoms: C_21  and  C_22
REMARK    7  A    between atoms: C_22  and  C_23
REMARK    8  A    between atoms: C_23  and  C_24
REMARK    9  A    between atoms: C_24  and  C_25
REMARK   10  A    between atoms: C_25  and  C_26
REMARK   11  A    between atoms: C_26  and  C_27
REMARK   12  A    between atoms: C_27  and  N_28
REMARK                            x       y       z     vdW  Elec       q    Type
REMARK                         _______ _______ _______ _____ _____    ______ ____
ROOT
ATOM      1  C   UNL A   1      39.948 -17.494 -34.839  0.00  0.00    +0.162 A 
ATOM      2  C   UNL A   1      39.464 -17.000 -36.057  0.00  0.00    -0.016 A 
ATOM      3  C   UNL A   1      39.445 -17.812 -37.208  0.00  0.00    -0.049 A 
ATOM      4  C   UNL A   1      39.892 -19.131 -37.129  0.00  0.00    -0.001 A 
ATOM      5  C   UNL A   1      40.263 -19.655 -35.902  0.00  0.00    +0.020 A 
ATOM      6  C   UNL A   1      40.342 -18.825 -34.797  0.00  0.00    +0.167 A 
ATOM      7  O   UNL A   1      40.918 -19.438 -33.711  0.00  0.00    -0.484 OA
ATOM      8  C   UNL A   1      40.877 -20.857 -34.016  0.00  0.00    +0.116 C 
ATOM      9  C   UNL A   1      39.718 -21.435 -33.194  0.00  0.00    +0.015 C 
ATOM     10  C   UNL A   1      39.388 -22.864 -33.589  0.00  0.00    +0.077 C 
ATOM     11  C   UNL A   1      39.215 -22.976 -35.069  0.00  0.00    -0.059 C 
ATOM     12  C   UNL A   1      39.774 -22.135 -35.953  0.00  0.00    -0.071 C 
ATOM     13  C   UNL A   1      40.744 -21.030 -35.571  0.00  0.00    +0.057 C 
ATOM     14  C   UNL A   1      42.110 -21.281 -36.263  0.00  0.00    -0.019 C 
ATOM     15  C   UNL A   1      42.354 -20.601 -37.620  0.00  0.00    +0.019 C 
ATOM     16  N   UNL A   1      41.167 -20.639 -38.554  0.00  0.00    -0.376 N 
ATOM     17  C   UNL A   1      40.109 -19.914 -38.353  0.00  0.00    +0.008 C 
ENDROOT
BRANCH   1  19
ATOM     18  C   UNL A   1      41.196 -15.914 -33.567  0.00  0.00    +0.079 C 
ATOM     19  O   UNL A   1      40.078 -16.786 -33.682  0.00  0.00    -0.491 OA
ENDBRANCH   1  19
BRANCH  10  20
ATOM     20  O   UNL A   1      38.153 -23.243 -33.001  0.00  0.00    -0.388 OA
ATOM     21  H   UNL A   1      37.650 -22.447 -32.766  0.00  0.00    +0.000 HD
ENDBRANCH  10  20
BRANCH  16  22
ATOM     22  C   UNL A   1      41.335 -21.386 -39.847  0.00  0.00    +0.018 C 
BRANCH  22  23
ATOM     23  C   UNL A   1      42.716 -21.117 -40.439  0.00  0.00    -0.035 C 
BRANCH  23  24
ATOM     24  C   UNL A   1      42.797 -21.646 -41.873  0.00  0.00    -0.051 C 
BRANCH  24  25
ATOM     25  C   UNL A   1      44.238 -21.665 -42.389  0.00  0.00    -0.053 C 
BRANCH  25  26
ATOM     26  C   UNL A   1      45.221 -21.248 -41.292  0.00  0.00    -0.053 C 
BRANCH  26  27
ATOM     27  C   UNL A   1      46.068 -20.051 -41.724  0.00  0.00    -0.052 C 
BRANCH  27  28
ATOM     28  C   UNL A   1      45.463 -18.733 -41.235  0.00  0.00    -0.037 C 
BRANCH  28  29
ATOM     29  C   UNL A   1      46.390 -18.034 -40.239  0.00  0.00    +0.023 C 
BRANCH  29  30
ATOM     30  N   UNL A   1      45.991 -18.250 -38.862  0.00  0.00    -0.234 N 
ATOM     31  C   UNL A   1      46.431 -19.294 -38.092  0.00  0.00    +0.254 C 
ATOM     32  O   UNL A   1      47.238 -20.162 -38.365  0.00  0.00    -0.270 OA
ATOM     33  C   UNL A   1      45.717 -19.204 -36.820  0.00  0.00    +0.049 A 
ATOM     34  C   UNL A   1      45.779 -20.008 -35.699  0.00  0.00    -0.049 A 
ATOM     35  C   UNL A   1      44.950 -19.670 -34.624  0.00  0.00    -0.061 A 
ATOM     36  C   UNL A   1      44.092 -18.553 -34.694  0.00  0.00    -0.061 A 
ATOM     37  C   UNL A   1      44.043 -17.758 -35.844  0.00  0.00    -0.049 A 
ATOM     38  C   UNL A   1      44.869 -18.114 -36.892  0.00  0.00    +0.049 A 
ATOM     39  C   UNL A   1      45.031 -17.517 -38.217  0.00  0.00    +0.254 C 
ATOM     40  O   UNL A   1      44.392 -16.564 -38.621  0.00  0.00    -0.270 OA
ENDBRANCH  29  30
ENDBRANCH  28  29
ENDBRANCH  27  28
ENDBRANCH  26  27
ENDBRANCH  25  26
ENDBRANCH  24  25
ENDBRANCH  23  24
ENDBRANCH  22  23
ENDBRANCH  16  22
TORSDOF 11
ENDMDL
MODEL 17
REMARK VINA RESULT:    -5.467      2.438      5.296
REMARK INTER + INTRA:         -12.790
REMARK INTER:                 -10.166
REMARK INTRA:                  -2.624
REMARK UNBOUND:                -3.967
REMARK  Name = cpd105.pdb
REMARK  12 active torsions:
REMARK  status: ('A' for Active; 'I' for Inactive)
REMARK    1  A    between atoms: C_1  and  O_2
REMARK    2  A    between atoms: O_2  and  C_3
REMARK    3  A    between atoms: C_12  and  O_13
REMARK    4  A    between atoms: N_19  and  C_20
REMARK    5  A    between atoms: C_20  and  C_21
REMARK    6  A    between atoms: C_21  and  C_22
REMARK    7  A    between atoms: C_22  and  C_23
REMARK    8  A    between atoms: C_23  and  C_24
REMARK    9  A    between atoms: C_24  and  C_25
REMARK   10  A    between atoms: C_25  and  C_26
REMARK   11  A    between atoms: C_26  and  C_27
REMARK   12  A    between atoms: C_27  and  N_28
REMARK                            x       y       z     vdW  Elec       q    Type
REMARK                         _______ _______ _______ _____ _____    ______ ____
ROOT
ATOM      1  C   UNL A   1      46.095 -16.511 -39.383  0.00  0.00    +0.162 A 
ATOM      2  C   UNL A   1      44.920 -16.191 -40.076  0.00  0.00    -0.016 A 
ATOM      3  C   UNL A   1      43.850 -17.104 -40.141  0.00  0.00    -0.049 A 
ATOM      4  C   UNL A   1      43.951 -18.332 -39.488  0.00  0.00    -0.001 A 
ATOM      5  C   UNL A   1      45.063 -18.603 -38.707  0.00  0.00    +0.020 A 
ATOM      6  C   UNL A   1      46.134 -17.726 -38.712  0.00  0.00    +0.167 A 
ATOM      7  O   UNL A   1      47.235 -18.228 -38.061  0.00  0.00    -0.484 OA
ATOM      8  C   UNL A   1      46.732 -19.341 -37.276  0.00  0.00    +0.116 C 
ATOM      9  C   UNL A   1      46.636 -18.832 -35.831  0.00  0.00    +0.015 C 
ATOM     10  C   UNL A   1      45.893 -19.801 -34.927  0.00  0.00    +0.077 C 
ATOM     11  C   UNL A   1      44.587 -20.194 -35.535  0.00  0.00    -0.059 C 
ATOM     12  C   UNL A   1      44.333 -20.158 -36.852  0.00  0.00    -0.071 C 
ATOM     13  C   UNL A   1      45.377 -19.823 -37.905  0.00  0.00    +0.057 C 
ATOM     14  C   UNL A   1      45.558 -21.036 -38.856  0.00  0.00    -0.019 C 
ATOM     15  C   UNL A   1      44.718 -21.061 -40.143  0.00  0.00    +0.019 C 
ATOM     16  N   UNL A   1      43.283 -20.627 -39.955  0.00  0.00    -0.376 N 
ATOM     17  C   UNL A   1      42.961 -19.388 -39.738  0.00  0.00    +0.008 C 
ENDROOT
BRANCH   1  19
ATOM     18  C   UNL A   1      47.083 -14.355 -39.602  0.00  0.00    +0.079 C 
ATOM     19  O   UNL A   1      47.217 -15.741 -39.309  0.00  0.00    -0.491 OA
ENDBRANCH   1  19
BRANCH  10  20
ATOM     20  O   UNL A   1      45.599 -19.164 -33.694  0.00  0.00    -0.388 OA
ATOM     21  H   UNL A   1      45.412 -18.226 -33.852  0.00  0.00    +0.000 HD
ENDBRANCH  10  20
BRANCH  16  22
ATOM     22  C   UNL A   1      42.216 -21.646 -40.238  0.00  0.00    +0.018 C 
BRANCH  22  23
ATOM     23  C   UNL A   1      40.865 -21.157 -39.725  0.00  0.00    -0.035 C 
BRANCH  23  24
ATOM     24  C   UNL A   1      40.540 -21.796 -38.373  0.00  0.00    -0.051 C 
BRANCH  24  25
ATOM     25  C   UNL A   1      40.830 -20.844 -37.211  0.00  0.00    -0.053 C 
BRANCH  25  26
ATOM     26  C   UNL A   1      40.246 -19.455 -37.479  0.00  0.00    -0.053 C 
BRANCH  26  27
ATOM     27  C   UNL A   1      40.838 -18.405 -36.537  0.00  0.00    -0.052 C 
BRANCH  27  28
ATOM     28  C   UNL A   1      39.746 -17.696 -35.733  0.00  0.00    -0.037 C 
BRANCH  28  29
ATOM     29  C   UNL A   1      39.910 -17.950 -34.233  0.00  0.00    +0.023 C 
BRANCH  29  30
ATOM     30  N   UNL A   1      39.797 -19.355 -33.891  0.00  0.00    -0.234 N 
ATOM     31  C   UNL A   1      40.807 -20.088 -33.326  0.00  0.00    +0.254 C 
ATOM     32  O   UNL A   1      41.909 -19.726 -32.965  0.00  0.00    -0.270 OA
ATOM     33  C   UNL A   1      40.324 -21.466 -33.242  0.00  0.00    +0.049 A 
ATOM     34  C   UNL A   1      40.942 -22.604 -32.763  0.00  0.00    -0.049 A 
ATOM     35  C   UNL A   1      40.218 -23.799 -32.828  0.00  0.00    -0.061 A 
ATOM     36  C   UNL A   1      38.913 -23.827 -33.362  0.00  0.00    -0.061 A 
ATOM     37  C   UNL A   1      38.311 -22.662 -33.848  0.00  0.00    -0.049 A 
ATOM     38  C   UNL A   1      39.048 -21.495 -33.775  0.00  0.00    +0.049 A 
ATOM     39  C   UNL A   1      38.722 -20.139 -34.213  0.00  0.00    +0.254 C 
ATOM     40  O   UNL A   1      37.686 -19.830 -34.770  0.00  0.00    -0.270 OA
ENDBRANCH  29  30
ENDBRANCH  28  29
ENDBRANCH  27  28
ENDBRANCH  26  27
ENDBRANCH  25  26
ENDBRANCH  24  25
ENDBRANCH  23  24
ENDBRANCH  22  23
ENDBRANCH  16  22
TORSDOF 11
ENDMDL
MODEL 18
REMARK VINA RESULT:    -5.459      2.504      6.004
REMARK INTER + INTRA:         -12.778
REMARK INTER:                  -8.044
REMARK INTRA:                  -4.733
REMARK UNBOUND:                -3.967
REMARK  Name = cpd105.pdb
REMARK  12 active torsions:
REMARK  status: ('A' for Active; 'I' for Inactive)
REMARK    1  A    between atoms: C_1  and  O_2
REMARK    2  A    between atoms: O_2  and  C_3
REMARK    3  A    between atoms: C_12  and  O_13
REMARK    4  A    between atoms: N_19  and  C_20
REMARK    5  A    between atoms: C_20  and  C_21
REMARK    6  A    between atoms: C_21  and  C_22
REMARK    7  A    between atoms: C_22  and  C_23
REMARK    8  A    between atoms: C_23  and  C_24
REMARK    9  A    between atoms: C_24  and  C_25
REMARK   10  A    between atoms: C_25  and  C_26
REMARK   11  A    between atoms: C_26  and  C_27
REMARK   12  A    between atoms: C_27  and  N_28
REMARK                            x       y       z     vdW  Elec       q    Type
REMARK                         _______ _______ _______ _____ _____    ______ ____
ROOT
ATOM      1  C   UNL A   1      40.133 -19.339 -34.168  0.00  0.00    +0.162 A 
ATOM      2  C   UNL A   1      40.970 -20.441 -33.950  0.00  0.00    -0.016 A 
ATOM      3  C   UNL A   1      41.690 -21.021 -35.011  0.00  0.00    -0.049 A 
ATOM      4  C   UNL A   1      41.589 -20.478 -36.292  0.00  0.00    -0.001 A 
ATOM      5  C   UNL A   1      40.854 -19.321 -36.488  0.00  0.00    +0.020 A 
ATOM      6  C   UNL A   1      40.096 -18.806 -35.451  0.00  0.00    +0.167 A 
ATOM      7  O   UNL A   1      39.268 -17.786 -35.852  0.00  0.00    -0.484 OA
ATOM      8  C   UNL A   1      39.781 -17.372 -37.146  0.00  0.00    +0.116 C 
ATOM      9  C   UNL A   1      40.560 -16.074 -36.898  0.00  0.00    +0.015 C 
ATOM     10  C   UNL A   1      41.366 -15.645 -38.112  0.00  0.00    +0.077 C 
ATOM     11  C   UNL A   1      42.195 -16.778 -38.622  0.00  0.00    -0.059 C 
ATOM     12  C   UNL A   1      41.899 -18.071 -38.422  0.00  0.00    -0.071 C 
ATOM     13  C   UNL A   1      40.625 -18.552 -37.748  0.00  0.00    +0.057 C 
ATOM     14  C   UNL A   1      39.811 -19.420 -38.744  0.00  0.00    -0.019 C 
ATOM     15  C   UNL A   1      40.035 -20.940 -38.708  0.00  0.00    +0.019 C 
ATOM     16  N   UNL A   1      41.482 -21.350 -38.563  0.00  0.00    -0.376 N 
ATOM     17  C   UNL A   1      42.131 -21.203 -37.449  0.00  0.00    +0.008 C 
ENDROOT
BRANCH   1  19
ATOM     18  C   UNL A   1      39.940 -17.771 -32.387  0.00  0.00    +0.079 C 
ATOM     19  O   UNL A   1      39.338 -18.738 -33.238  0.00  0.00    -0.491 OA
ENDBRANCH   1  19
BRANCH  10  20
ATOM     20  O   UNL A   1      42.264 -14.612 -37.741  0.00  0.00    -0.388 OA
ATOM     21  H   UNL A   1      43.154 -14.827 -38.062  0.00  0.00    +0.000 HD
ENDBRANCH  10  20
BRANCH  16  22
ATOM     22  C   UNL A   1      42.088 -22.135 -39.692  0.00  0.00    +0.018 C 
BRANCH  22  23
ATOM     23  C   UNL A   1      42.622 -21.191 -40.767  0.00  0.00    -0.035 C 
BRANCH  23  24
ATOM     24  C   UNL A   1      44.144 -21.070 -40.666  0.00  0.00    -0.051 C 
BRANCH  24  25
ATOM     25  C   UNL A   1      44.570 -19.699 -40.138  0.00  0.00    -0.053 C 
BRANCH  25  26
ATOM     26  C   UNL A   1      44.590 -18.658 -41.260  0.00  0.00    -0.053 C 
BRANCH  26  27
ATOM     27  C   UNL A   1      45.312 -17.380 -40.829  0.00  0.00    -0.052 C 
BRANCH  27  28
ATOM     28  C   UNL A   1      46.770 -17.661 -40.456  0.00  0.00    -0.037 C 
BRANCH  28  29
ATOM     29  C   UNL A   1      47.172 -16.905 -39.188  0.00  0.00    +0.023 C 
BRANCH  29  30
ATOM     30  N   UNL A   1      46.368 -17.278 -38.040  0.00  0.00    -0.234 N 
ATOM     31  C   UNL A   1      45.470 -16.442 -37.432  0.00  0.00    +0.254 C 
ATOM     32  O   UNL A   1      45.138 -15.314 -37.742  0.00  0.00    -0.270 OA
ATOM     33  C   UNL A   1      44.957 -17.160 -36.266  0.00  0.00    +0.049 A 
ATOM     34  C   UNL A   1      44.038 -16.775 -35.309  0.00  0.00    -0.049 A 
ATOM     35  C   UNL A   1      43.756 -17.690 -34.290  0.00  0.00    -0.061 A 
ATOM     36  C   UNL A   1      44.389 -18.949 -34.251  0.00  0.00    -0.061 A 
ATOM     37  C   UNL A   1      45.322 -19.313 -35.228  0.00  0.00    -0.049 A 
ATOM     38  C   UNL A   1      45.585 -18.391 -36.223  0.00  0.00    +0.049 A 
ATOM     39  C   UNL A   1      46.510 -18.454 -37.353  0.00  0.00    +0.254 C 
ATOM     40  O   UNL A   1      47.254 -19.389 -37.578  0.00  0.00    -0.270 OA
ENDBRANCH  29  30
ENDBRANCH  28  29
ENDBRANCH  27  28
ENDBRANCH  26  27
ENDBRANCH  25  26
ENDBRANCH  24  25
ENDBRANCH  23  24
ENDBRANCH  22  23
ENDBRANCH  16  22
TORSDOF 11
ENDMDL
MODEL 19
REMARK VINA RESULT:    -5.263      2.182      5.106
REMARK INTER + INTRA:         -12.461
REMARK INTER:                  -8.807
REMARK INTRA:                  -3.655
REMARK UNBOUND:                -3.967
REMARK  Name = cpd105.pdb
REMARK  12 active torsions:
REMARK  status: ('A' for Active; 'I' for Inactive)
REMARK    1  A    between atoms: C_1  and  O_2
REMARK    2  A    between atoms: O_2  and  C_3
REMARK    3  A    between atoms: C_12  and  O_13
REMARK    4  A    between atoms: N_19  and  C_20
REMARK    5  A    between atoms: C_20  and  C_21
REMARK    6  A    between atoms: C_21  and  C_22
REMARK    7  A    between atoms: C_22  and  C_23
REMARK    8  A    between atoms: C_23  and  C_24
REMARK    9  A    between atoms: C_24  and  C_25
REMARK   10  A    between atoms: C_25  and  C_26
REMARK   11  A    between atoms: C_26  and  C_27
REMARK   12  A    between atoms: C_27  and  N_28
REMARK                            x       y       z     vdW  Elec       q    Type
REMARK                         _______ _______ _______ _____ _____    ______ ____
ROOT
ATOM      1  C   UNL A   1      46.079 -20.106 -40.483  0.00  0.00    +0.162 A 
ATOM      2  C   UNL A   1      45.167 -21.093 -40.087  0.00  0.00    -0.016 A 
ATOM      3  C   UNL A   1      44.553 -21.041 -38.821  0.00  0.00    -0.049 A 
ATOM      4  C   UNL A   1      44.838 -19.982 -37.959  0.00  0.00    -0.001 A 
ATOM      5  C   UNL A   1      45.648 -18.946 -38.392  0.00  0.00    +0.020 A 
ATOM      6  C   UNL A   1      46.298 -19.048 -39.610  0.00  0.00    +0.167 A 
ATOM      7  O   UNL A   1      47.219 -18.048 -39.806  0.00  0.00    -0.484 OA
ATOM      8  C   UNL A   1      46.889 -17.034 -38.820  0.00  0.00    +0.116 C 
ATOM      9  C   UNL A   1      46.152 -15.925 -39.582  0.00  0.00    +0.015 C 
ATOM     10  C   UNL A   1      45.523 -14.905 -38.648  0.00  0.00    +0.077 C 
ATOM     11  C   UNL A   1      44.706 -15.584 -37.598  0.00  0.00    -0.059 C 
ATOM     12  C   UNL A   1      44.910 -16.847 -37.192  0.00  0.00    -0.071 C 
ATOM     13  C   UNL A   1      46.067 -17.710 -37.666  0.00  0.00    +0.057 C 
ATOM     14  C   UNL A   1      46.952 -18.099 -36.452  0.00  0.00    -0.019 C 
ATOM     15  C   UNL A   1      46.649 -19.433 -35.750  0.00  0.00    +0.019 C 
ATOM     16  N   UNL A   1      45.177 -19.714 -35.562  0.00  0.00    -0.376 N 
ATOM     17  C   UNL A   1      44.404 -20.032 -36.557  0.00  0.00    +0.008 C 
ENDROOT
BRANCH   1  19
ATOM     18  C   UNL A   1      47.861 -21.004 -41.782  0.00  0.00    +0.079 C 
ATOM     19  O   UNL A   1      46.783 -20.086 -41.650  0.00  0.00    -0.491 OA
ENDBRANCH   1  19
BRANCH  10  20
ATOM     20  O   UNL A   1      44.638 -14.075 -39.384  0.00  0.00    -0.388 OA
ATOM     21  H   UNL A   1      44.736 -13.156 -39.088  0.00  0.00    +0.000 HD
ENDBRANCH  10  20
BRANCH  16  22
ATOM     22  C   UNL A   1      44.674 -19.823 -34.151  0.00  0.00    +0.018 C 
BRANCH  22  23
ATOM     23  C   UNL A   1      43.485 -18.891 -33.937  0.00  0.00    -0.035 C 
BRANCH  23  24
ATOM     24  C   UNL A   1      42.703 -19.295 -32.685  0.00  0.00    -0.051 C 
BRANCH  24  25
ATOM     25  C   UNL A   1      41.342 -19.898 -33.037  0.00  0.00    -0.053 C 
BRANCH  25  26
ATOM     26  C   UNL A   1      41.351 -21.419 -32.863  0.00  0.00    -0.053 C 
BRANCH  26  27
ATOM     27  C   UNL A   1      40.300 -22.093 -33.747  0.00  0.00    -0.052 C 
BRANCH  27  28
ATOM     28  C   UNL A   1      40.725 -22.095 -35.217  0.00  0.00    -0.037 C 
BRANCH  28  29
ATOM     29  C   UNL A   1      39.701 -21.368 -36.090  0.00  0.00    +0.023 C 
BRANCH  29  30
ATOM     30  N   UNL A   1      40.277 -20.249 -36.810  0.00  0.00    -0.234 N 
ATOM     31  C   UNL A   1      40.080 -18.937 -36.469  0.00  0.00    +0.254 C 
ATOM     32  O   UNL A   1      39.473 -18.472 -35.524  0.00  0.00    -0.270 OA
ATOM     33  C   UNL A   1      40.740 -18.136 -37.499  0.00  0.00    +0.049 A 
ATOM     34  C   UNL A   1      40.840 -16.765 -37.641  0.00  0.00    -0.049 A 
ATOM     35  C   UNL A   1      41.535 -16.288 -38.757  0.00  0.00    -0.061 A 
ATOM     36  C   UNL A   1      42.106 -17.179 -39.690  0.00  0.00    -0.061 A 
ATOM     37  C   UNL A   1      41.985 -18.563 -39.527  0.00  0.00    -0.049 A 
ATOM     38  C   UNL A   1      41.292 -19.009 -38.419  0.00  0.00    +0.049 A 
ATOM     39  C   UNL A   1      40.971 -20.367 -37.985  0.00  0.00    +0.254 C 
ATOM     40  O   UNL A   1      41.272 -21.372 -38.600  0.00  0.00    -0.270 OA
ENDBRANCH  29  30
ENDBRANCH  28  29
ENDBRANCH  27  28
ENDBRANCH  26  27
ENDBRANCH  25  26
ENDBRANCH  24  25
ENDBRANCH  23  24
ENDBRANCH  22  23
ENDBRANCH  16  22
TORSDOF 11
ENDMDL
MODEL 20
REMARK VINA RESULT:    -5.236     19.280     23.619
REMARK INTER + INTRA:         -12.417
REMARK INTER:                  -7.600
REMARK INTRA:                  -4.817
REMARK UNBOUND:                -3.967
REMARK  Name = cpd105.pdb
REMARK  12 active torsions:
REMARK  status: ('A' for Active; 'I' for Inactive)
REMARK    1  A    between atoms: C_1  and  O_2
REMARK    2  A    between atoms: O_2  and  C_3
REMARK    3  A    between atoms: C_12  and  O_13
REMARK    4  A    between atoms: N_19  and  C_20
REMARK    5  A    between atoms: C_20  and  C_21
REMARK    6  A    between atoms: C_21  and  C_22
REMARK    7  A    between atoms: C_22  and  C_23
REMARK    8  A    between atoms: C_23  and  C_24
REMARK    9  A    between atoms: C_24  and  C_25
REMARK   10  A    between atoms: C_25  and  C_26
REMARK   11  A    between atoms: C_26  and  C_27
REMARK   12  A    between atoms: C_27  and  N_28
REMARK                            x       y       z     vdW  Elec       q    Type
REMARK                         _______ _______ _______ _____ _____    ______ ____
ROOT
ATOM      1  C   UNL A   1      31.419 -41.595 -29.992  0.00  0.00    +0.162 A 
ATOM      2  C   UNL A   1      31.478 -41.273 -28.630  0.00  0.00    -0.016 A 
ATOM      3  C   UNL A   1      32.426 -40.349 -28.148  0.00  0.00    -0.049 A 
ATOM      4  C   UNL A   1      33.300 -39.728 -29.040  0.00  0.00    -0.001 A 
ATOM      5  C   UNL A   1      33.166 -39.958 -30.400  0.00  0.00    +0.020 A 
ATOM      6  C   UNL A   1      32.279 -40.920 -30.849  0.00  0.00    +0.167 A 
ATOM      7  O   UNL A   1      32.409 -41.178 -32.192  0.00  0.00    -0.484 OA
ATOM      8  C   UNL A   1      33.172 -40.060 -32.717  0.00  0.00    +0.116 C 
ATOM      9  C   UNL A   1      32.159 -39.147 -33.421  0.00  0.00    +0.015 C 
ATOM     10  C   UNL A   1      32.763 -37.808 -33.810  0.00  0.00    +0.077 C 
ATOM     11  C   UNL A   1      33.456 -37.183 -32.644  0.00  0.00    -0.059 C 
ATOM     12  C   UNL A   1      33.946 -37.876 -31.605  0.00  0.00    -0.071 C 
ATOM     13  C   UNL A   1      33.959 -39.394 -31.533  0.00  0.00    +0.057 C 
ATOM     14  C   UNL A   1      35.426 -39.892 -31.437  0.00  0.00    -0.019 C 
ATOM     15  C   UNL A   1      36.005 -40.130 -30.033  0.00  0.00    +0.019 C 
ATOM     16  N   UNL A   1      35.642 -39.064 -29.025  0.00  0.00    -0.376 N 
ATOM     17  C   UNL A   1      34.443 -38.955 -28.540  0.00  0.00    +0.008 C 
ENDROOT
BRANCH   1  19
ATOM     18  C   UNL A   1      30.943 -43.890 -30.411  0.00  0.00    +0.079 C 
ATOM     19  O   UNL A   1      30.596 -42.519 -30.563  0.00  0.00    -0.491 OA
ENDBRANCH   1  19
BRANCH  10  20
ATOM     20  O   UNL A   1      31.728 -36.920 -34.199  0.00  0.00    -0.388 OA
ATOM     21  H   UNL A   1      30.885 -37.400 -34.232  0.00  0.00    +0.000 HD
ENDBRANCH  10  20
BRANCH  16  22
ATOM     22  C   UNL A   1      36.771 -38.264 -28.438  0.00  0.00    +0.018 C 
BRANCH  22  23
ATOM     23  C   UNL A   1      36.586 -36.781 -28.747  0.00  0.00    -0.035 C 
BRANCH  23  24
ATOM     24  C   UNL A   1      36.994 -36.478 -30.191  0.00  0.00    -0.051 C 
BRANCH  24  25
ATOM     25  C   UNL A   1      36.424 -35.143 -30.672  0.00  0.00    -0.053 C 
BRANCH  25  26
ATOM     26  C   UNL A   1      35.226 -34.716 -29.820  0.00  0.00    -0.053 C 
BRANCH  26  27
ATOM     27  C   UNL A   1      34.858 -33.251 -30.063  0.00  0.00    -0.052 C 
BRANCH  27  28
ATOM     28  C   UNL A   1      33.812 -33.114 -31.172  0.00  0.00    -0.037 C 
BRANCH  28  29
ATOM     29  C   UNL A   1      32.421 -32.856 -30.591  0.00  0.00    +0.023 C 
BRANCH  29  30
ATOM     30  N   UNL A   1      31.669 -34.079 -30.385  0.00  0.00    -0.234 N 
ATOM     31  C   UNL A   1      31.633 -34.764 -29.199  0.00  0.00    +0.254 C 
ATOM     32  O   UNL A   1      32.139 -34.477 -28.132  0.00  0.00    -0.270 OA
ATOM     33  C   UNL A   1      30.858 -35.979 -29.444  0.00  0.00    +0.049 A 
ATOM     34  C   UNL A   1      30.525 -37.016 -28.594  0.00  0.00    -0.049 A 
ATOM     35  C   UNL A   1      29.772 -38.065 -29.131  0.00  0.00    -0.061 A 
ATOM     36  C   UNL A   1      29.375 -38.053 -30.484  0.00  0.00    -0.061 A 
ATOM     37  C   UNL A   1      29.730 -36.994 -31.326  0.00  0.00    -0.049 A 
ATOM     38  C   UNL A   1      30.476 -35.972 -30.773  0.00  0.00    +0.049 A 
ATOM     39  C   UNL A   1      31.020 -34.759 -31.381  0.00  0.00    +0.254 C 
ATOM     40  O   UNL A   1      30.905 -34.471 -32.557  0.00  0.00    -0.270 OA
ENDBRANCH  29  30
ENDBRANCH  28  29
ENDBRANCH  27  28
ENDBRANCH  26  27
ENDBRANCH  25  26
ENDBRANCH  24  25
ENDBRANCH  23  24
ENDBRANCH  22  23
ENDBRANCH  16  22
TORSDOF 11
ENDMDL
