@<TRIPOS>MOLECULE
*****
 39 44 0 0 0
SMALL
GASTEIGER

@<TRIPOS>ATOM
      1 C           4.0669   -0.9972    0.0000 C.3     1  UNL1        0.2526
      2 O           3.3045   -1.5512    0.0000 O.3     1  UNL1       -0.4684
      3 C           2.4883   -1.0799    0.0000 C.ar    1  UNL1        0.1721
      4 C           2.4882   -0.1375    0.0000 C.ar    1  UNL1        0.0402
      5 C           1.6716    0.3340    0.0000 C.ar    1  UNL1        0.0091
      6 C           0.8554   -0.1371    0.0000 C.ar    1  UNL1        0.0688
      7 C           0.8552   -1.0800    0.0000 C.ar    1  UNL1        0.0275
      8 C           1.6719   -1.5515    0.0000 C.ar    1  UNL1        0.1686
      9 O           1.6719   -2.4940    0.0000 O.3     1  UNL1       -0.4757
     10 C           0.8555   -2.9656    0.0000 C.3     1  UNL1        0.1764
     11 C           0.8553   -3.9084    0.0000 C.3     1  UNL1        0.0816
     12 C           0.0391   -4.3796    0.0000 C.3     1  UNL1        0.1773
     13 O           0.0390   -5.3520    0.0000 O.3     1  UNL1       -0.2182
     14 C          -0.7776   -3.9081    0.0000 C.2     1  UNL1        0.0021
     15 C          -0.7777   -2.9656    0.0000 C.2     1  UNL1       -0.0209
     16 C           0.0388   -2.4940    0.0000 C.3     1  UNL1        0.0839
     17 C          -0.7181   -2.0726    0.0000 C.3     1  UNL1        0.0964
     18 C          -1.0270   -1.2633    0.0000 C.3     1  UNL1        0.3177
     19 N          -0.7434   -0.4447    0.0000 N.2     1  UNL1       -0.1846
     20 C          -1.5106    0.1790    0.0000 C.3     1  UNL1        0.3169
     21 C          -2.4344   -0.1736    0.0000 C.3     1  UNL1        0.0847
     22 C          -3.2016    0.4501    0.0000 C.3     1  UNL1        0.0072
     23 C          -4.1254    0.0975    0.0000 C.3     1  UNL1        0.0002
     24 C          -4.8926    0.7212    0.0000 C.3     1  UNL1        0.0001
     25 C          -5.8164    0.3687    0.0000 C.3     1  UNL1        0.0018
     26 C          -6.5836    0.9924    0.0000 C.3     1  UNL1        0.0220
     27 C          -7.5073    0.6398    0.0000 C.3     1  UNL1        0.1015
     28 N          -8.2746    1.2635    0.0000 N.am    1  UNL1       -0.2229
     29 C          -9.2301    1.0094    0.0000 C.2     1  UNL1        0.2551
     30 O          -9.5862    0.0870    0.0000 O.2     1  UNL1       -0.2695
     31 C          -9.7670    1.8397    0.0000 C.ar    1  UNL1        0.0584
     32 C         -10.7433    1.9962    0.0000 C.ar    1  UNL1        0.0047
     33 C         -11.0959    2.9200    0.0000 C.ar    1  UNL1        0.0001
     34 C         -10.4722    3.6872    0.0000 C.ar    1  UNL1        0.0001
     35 C          -9.4959    3.5307    0.0000 C.ar    1  UNL1        0.0047
     36 C          -9.1433    2.6069    0.0000 C.ar    1  UNL1        0.0584
     37 C          -8.2209    2.2508    0.0000 C.2     1  UNL1        0.2551
     38 O          -7.3907    2.7877    0.0000 O.2     1  UNL1       -0.2695
     39 C           0.0000    0.0000    0.0000 C.2     1  UNL1        0.2843
@<TRIPOS>UNITY_ATOM_ATTR
19 1
charge 1
@<TRIPOS>BOND
     1     1     2    1
     2     2     3    1
     3     3     4   ar
     4     4     5   ar
     5     5     6   ar
     6     6     7   ar
     7     7     8   ar
     8     3     8   ar
     9     8     9    1
    10     9    10    1
    11    10    11    1
    12    11    12    1
    13    12    13    1
    14    12    14    1
    15    14    15    2
    16    15    16    1
    17     7    16    1
    18    10    16    1
    19    16    17    1
    20    17    18    1
    21    18    19    1
    22    19    20    1
    23    20    21    1
    24    21    22    1
    25    22    23    1
    26    23    24    1
    27    24    25    1
    28    25    26    1
    29    26    27    1
    30    27    28    1
    31    28    29   am
    32    29    30    2
    33    29    31    1
    34    31    32   ar
    35    32    33   ar
    36    33    34   ar
    37    34    35   ar
    38    35    36   ar
    39    31    36   ar
    40    36    37    1
    41    28    37   am
    42    37    38    2
    43    19    39    2
    44     6    39    1
