REMARK  Name = cpd105.pdb
REMARK  12 active torsions:
REMARK  status: ('A' for Active; 'I' for Inactive)
REMARK    1  A    between atoms: C_1  and  O_2
REMARK    2  A    between atoms: O_2  and  C_3
REMARK    3  A    between atoms: C_12  and  O_13
REMARK    4  A    between atoms: N_19  and  C_20
REMARK    5  A    between atoms: C_20  and  C_21
REMARK    6  A    between atoms: C_21  and  C_22
REMARK    7  A    between atoms: C_22  and  C_23
REMARK    8  A    between atoms: C_23  and  C_24
REMARK    9  A    between atoms: C_24  and  C_25
REMARK   10  A    between atoms: C_25  and  C_26
REMARK   11  A    between atoms: C_26  and  C_27
REMARK   12  A    between atoms: C_27  and  N_28
REMARK                            x       y       z     vdW  Elec       q    Type
REMARK                         _______ _______ _______ _____ _____    ______ ____
ROOT
ATOM      1  C   UNL A   1       4.954  -2.066   0.065  0.00  0.00    +0.162 A 
ATOM      2  C   UNL A   1       4.987  -0.893   0.830  0.00  0.00    -0.016 A 
ATOM      3  C   UNL A   1       3.800  -0.203   1.144  0.00  0.00    -0.049 A 
ATOM      4  C   UNL A   1       2.574  -0.706   0.709  0.00  0.00    -0.001 A 
ATOM      5  C   UNL A   1       2.529  -1.925   0.053  0.00  0.00    +0.020 A 
ATOM      6  C   UNL A   1       3.708  -2.553  -0.309  0.00  0.00    +0.167 A 
ATOM      7  O   UNL A   1       3.504  -3.637  -1.128  0.00  0.00    -0.484 OA
ATOM      8  C   UNL A   1       2.092  -3.948  -0.994  0.00  0.00    +0.116 C 
ATOM      9  C   UNL A   1       2.012  -5.168  -0.067  0.00  0.00    +0.015 C 
ATOM     10  C   UNL A   1       0.588  -5.467   0.370  0.00  0.00    +0.077 C 
ATOM     11  C   UNL A   1      -0.069  -4.237   0.905  0.00  0.00    -0.059 C 
ATOM     12  C   UNL A   1       0.295  -2.989   0.572  0.00  0.00    -0.071 C 
ATOM     13  C   UNL A   1       1.346  -2.667  -0.477  0.00  0.00    +0.057 C 
ATOM     14  C   UNL A   1       0.695  -1.851  -1.625  0.00  0.00    -0.019 C 
ATOM     15  C   UNL A   1       0.763  -0.318  -1.534  0.00  0.00    +0.019 C 
ATOM     16  N   UNL A   1       0.499   0.233  -0.152  0.00  0.00    -0.376 N 
ATOM     17  C   UNL A   1       1.359   0.112   0.813  0.00  0.00    +0.008 C 
ENDROOT
BRANCH   1  19
ATOM     18  C   UNL A   1       7.320  -2.335   0.064  0.00  0.00    +0.079 C 
ATOM     19  O   UNL A   1       6.036  -2.779  -0.357  0.00  0.00    -0.491 OA
ENDBRANCH   1  19
BRANCH  10  20
ATOM     20  O   UNL A   1       0.608  -6.415   1.425  0.00  0.00    -0.388 OA
ATOM     21  H   UNL A   1       1.099  -6.050   2.178  0.00  0.00    +0.000 HD
ENDBRANCH  10  20
BRANCH  16  22
ATOM     22  C   UNL A   1      -0.705   1.116   0.015  0.00  0.00    +0.018 C 
BRANCH  22  23
ATOM     23  C   UNL A   1      -1.981   0.279   0.014  0.00  0.00    -0.035 C 
BRANCH  23  24
ATOM     24  C   UNL A   1      -3.209   1.171   0.212  0.00  0.00    -0.051 C 
BRANCH  24  25
ATOM     25  C   UNL A   1      -4.512   0.383   0.065  0.00  0.00    -0.053 C 
BRANCH  25  26
ATOM     26  C   UNL A   1      -5.729   1.285   0.286  0.00  0.00    -0.053 C 
BRANCH  26  27
ATOM     27  C   UNL A   1      -7.032   0.567  -0.069  0.00  0.00    -0.052 C 
BRANCH  27  28
ATOM     28  C   UNL A   1      -8.247   1.470   0.156  0.00  0.00    -0.037 C 
BRANCH  28  29
ATOM     29  C   UNL A   1      -9.512   0.855  -0.446  0.00  0.00    +0.023 C 
BRANCH  29  30
ATOM     30  N   UNL A   1     -10.688   1.674  -0.225  0.00  0.00    -0.234 N 
ATOM     31  C   UNL A   1     -11.793   1.255   0.467  0.00  0.00    +0.254 C 
ATOM     32  O   UNL A   1     -11.981   0.205   1.050  0.00  0.00    -0.270 OA
ATOM     33  C   UNL A   1     -12.779   2.330   0.368  0.00  0.00    +0.049 A 
ATOM     34  C   UNL A   1     -14.060   2.421   0.877  0.00  0.00    -0.049 A 
ATOM     35  C   UNL A   1     -14.776   3.590   0.599  0.00  0.00    -0.061 A 
ATOM     36  C   UNL A   1     -14.203   4.625  -0.169  0.00  0.00    -0.061 A 
ATOM     37  C   UNL A   1     -12.906   4.506  -0.679  0.00  0.00    -0.049 A 
ATOM     38  C   UNL A   1     -12.221   3.341  -0.393  0.00  0.00    +0.049 A 
ATOM     39  C   UNL A   1     -10.884   2.905  -0.793  0.00  0.00    +0.254 C 
ATOM     40  O   UNL A   1     -10.141   3.546  -1.511  0.00  0.00    -0.270 OA
ENDBRANCH  29  30
ENDBRANCH  28  29
ENDBRANCH  27  28
ENDBRANCH  26  27
ENDBRANCH  25  26
ENDBRANCH  24  25
ENDBRANCH  23  24
ENDBRANCH  22  23
ENDBRANCH  16  22
TORSDOF 11
