MODEL 1
REMARK VINA RESULT:    -6.056      0.000      0.000
REMARK INTER + INTRA:          -8.901
REMARK INTER:                  -8.534
REMARK INTRA:                  -0.367
REMARK UNBOUND:                -0.367
REMARK  Name = cpd228.pdb
REMARK  8 active torsions:
REMARK  status: ('A' for Active; 'I' for Inactive)
REMARK    1  A    between atoms: C_1  and  O_2
REMARK    2  A    between atoms: O_2  and  C_3
REMARK    3  A    between atoms: C_3  and  C_5
REMARK    4  A    between atoms: C_5  and  N_6
REMARK    5  A    between atoms: C_7  and  C_9
REMARK    6  A    between atoms: C_9  and  O_10
REMARK    7  A    between atoms: O_10  and  C_11
REMARK    8  A    between atoms: C_14  and  C_15
REMARK                            x       y       z     vdW  Elec       q    Type
REMARK                         _______ _______ _______ _____ _____    ______ ____
ROOT
ATOM      1  C   UNL A   1      36.233 -35.788 -30.640  0.00  0.00    +0.165 C 
ENDROOT
BRANCH   1   3
ATOM      2  N   UNL A   1      33.991 -34.720 -30.694  0.00  0.00    -0.302 N 
ATOM      3  C   UNL A   1      34.732 -35.838 -30.965  0.00  0.00    +0.251 C 
ATOM      4  O   UNL A   1      34.169 -36.828 -31.425  0.00  0.00    -0.272 OA
ATOM      5  H   UNL A   1      33.019 -34.802 -30.829  0.00  0.00    +0.000 HD
BRANCH   2   6
ATOM      6  C   UNL A   1      34.466 -33.423 -30.230  0.00  0.00    +0.109 C 
BRANCH   6   7
ATOM      7  C   UNL A   1      34.116 -32.331 -31.237  0.00  0.00    +0.324 C 
ATOM      8  O   UNL A   1      34.971 -31.792 -31.937  0.00  0.00    -0.249 OA
BRANCH   7  10
ATOM      9  C   UNL A   1      32.220 -31.026 -30.436  0.00  0.00    +0.082 C 
ATOM     10  O   UNL A   1      32.811 -31.975 -31.333  0.00  0.00    -0.467 OA
ENDBRANCH   7  10
ENDBRANCH   6   7
ENDBRANCH   2   6
ENDBRANCH   1   3
BRANCH   1  11
ATOM     11  O   UNL A   1      37.059 -35.113 -31.575  0.00  0.00    -0.483 OA
BRANCH  11  12
ATOM     12  C   UNL A   1      38.413 -35.272 -31.477  0.00  0.00    +0.121 A 
ATOM     13  C   UNL A   1      38.814 -36.404 -30.759  0.00  0.00    -0.019 A 
ATOM     14  C   UNL A   1      40.167 -36.685 -30.570  0.00  0.00    -0.048 A 
ATOM     15  C   UNL A   1      41.130 -35.821 -31.092  0.00  0.00    +0.014 A 
ATOM     16  C   UNL A   1      40.741 -34.682 -31.800  0.00  0.00    -0.048 A 
ATOM     17  C   UNL A   1      39.381 -34.408 -31.990  0.00  0.00    -0.019 A 
BRANCH  15  18
ATOM     18  C   UNL A   1      42.566 -36.098 -30.893  0.00  0.00    +0.150 C 
ATOM     19  O   UNL A   1      42.972 -37.171 -30.465  0.00  0.00    -0.296 OA
ENDBRANCH  15  18
ENDBRANCH  11  12
ENDBRANCH   1  11
TORSDOF 7
ENDMDL
MODEL 2
REMARK VINA RESULT:    -5.887      2.675      4.336
REMARK INTER + INTRA:          -8.663
REMARK INTER:                  -8.024
REMARK INTRA:                  -0.639
REMARK UNBOUND:                -0.367
REMARK  Name = cpd228.pdb
REMARK  8 active torsions:
REMARK  status: ('A' for Active; 'I' for Inactive)
REMARK    1  A    between atoms: C_1  and  O_2
REMARK    2  A    between atoms: O_2  and  C_3
REMARK    3  A    between atoms: C_3  and  C_5
REMARK    4  A    between atoms: C_5  and  N_6
REMARK    5  A    between atoms: C_7  and  C_9
REMARK    6  A    between atoms: C_9  and  O_10
REMARK    7  A    between atoms: O_10  and  C_11
REMARK    8  A    between atoms: C_14  and  C_15
REMARK                            x       y       z     vdW  Elec       q    Type
REMARK                         _______ _______ _______ _____ _____    ______ ____
ROOT
ATOM      1  C   UNL A   1      36.825 -35.893 -30.781  0.00  0.00    +0.165 C 
ENDROOT
BRANCH   1   3
ATOM      2  N   UNL A   1      35.289 -37.792 -31.237  0.00  0.00    -0.302 N 
ATOM      3  C   UNL A   1      35.449 -36.433 -31.200  0.00  0.00    +0.251 C 
ATOM      4  O   UNL A   1      34.507 -35.714 -31.524  0.00  0.00    -0.272 OA
ATOM      5  H   UNL A   1      34.429 -38.117 -31.589  0.00  0.00    +0.000 HD
BRANCH   2   6
ATOM      6  C   UNL A   1      36.239 -38.814 -30.818  0.00  0.00    +0.109 C 
BRANCH   6   7
ATOM      7  C   UNL A   1      35.773 -39.484 -29.528  0.00  0.00    +0.324 C 
ATOM      8  O   UNL A   1      35.580 -40.696 -29.456  0.00  0.00    -0.249 OA
BRANCH   7  10
ATOM      9  C   UNL A   1      36.668 -37.982 -27.830  0.00  0.00    +0.082 C 
ATOM     10  O   UNL A   1      35.582 -38.683 -28.451  0.00  0.00    -0.467 OA
ENDBRANCH   7  10
ENDBRANCH   6   7
ENDBRANCH   2   6
ENDBRANCH   1   3
BRANCH   1  11
ATOM     11  O   UNL A   1      37.698 -35.508 -31.830  0.00  0.00    -0.483 OA
BRANCH  11  12
ATOM     12  C   UNL A   1      38.986 -35.963 -31.802  0.00  0.00    +0.121 A 
ATOM     13  C   UNL A   1      39.295 -36.761 -30.695  0.00  0.00    -0.019 A 
ATOM     14  C   UNL A   1      40.578 -37.286 -30.531  0.00  0.00    -0.048 A 
ATOM     15  C   UNL A   1      41.565 -37.000 -31.475  0.00  0.00    +0.014 A 
ATOM     16  C   UNL A   1      41.271 -36.194 -32.577  0.00  0.00    -0.048 A 
ATOM     17  C   UNL A   1      39.981 -35.676 -32.737  0.00  0.00    -0.019 A 
BRANCH  15  18
ATOM     18  C   UNL A   1      42.930 -37.539 -31.311  0.00  0.00    +0.150 C 
ATOM     19  O   UNL A   1      43.830 -36.892 -30.794  0.00  0.00    -0.296 OA
ENDBRANCH  15  18
ENDBRANCH  11  12
ENDBRANCH   1  11
TORSDOF 7
ENDMDL
MODEL 3
REMARK VINA RESULT:    -5.804      1.806      2.572
REMARK INTER + INTRA:          -8.547
REMARK INTER:                  -8.025
REMARK INTRA:                  -0.521
REMARK UNBOUND:                -0.367
REMARK  Name = cpd228.pdb
REMARK  8 active torsions:
REMARK  status: ('A' for Active; 'I' for Inactive)
REMARK    1  A    between atoms: C_1  and  O_2
REMARK    2  A    between atoms: O_2  and  C_3
REMARK    3  A    between atoms: C_3  and  C_5
REMARK    4  A    between atoms: C_5  and  N_6
REMARK    5  A    between atoms: C_7  and  C_9
REMARK    6  A    between atoms: C_9  and  O_10
REMARK    7  A    between atoms: O_10  and  C_11
REMARK    8  A    between atoms: C_14  and  C_15
REMARK                            x       y       z     vdW  Elec       q    Type
REMARK                         _______ _______ _______ _____ _____    ______ ____
ROOT
ATOM      1  C   UNL A   1      36.923 -36.314 -30.318  0.00  0.00    +0.165 C 
ENDROOT
BRANCH   1   3
ATOM      2  N   UNL A   1      34.923 -36.864 -31.686  0.00  0.00    -0.302 N 
ATOM      3  C   UNL A   1      35.955 -37.342 -30.925  0.00  0.00    +0.251 C 
ATOM      4  O   UNL A   1      36.047 -38.553 -30.740  0.00  0.00    -0.272 OA
ATOM      5  H   UNL A   1      34.267 -37.530 -31.994  0.00  0.00    +0.000 HD
BRANCH   2   6
ATOM      6  C   UNL A   1      34.679 -35.487 -32.096  0.00  0.00    +0.109 C 
BRANCH   6   7
ATOM      7  C   UNL A   1      33.654 -34.827 -31.177  0.00  0.00    +0.324 C 
ATOM      8  O   UNL A   1      32.628 -35.405 -30.823  0.00  0.00    -0.249 OA
BRANCH   7  10
ATOM      9  C   UNL A   1      35.258 -33.044 -30.744  0.00  0.00    +0.082 C 
ATOM     10  O   UNL A   1      33.923 -33.566 -30.757  0.00  0.00    -0.467 OA
ENDBRANCH   7  10
ENDBRANCH   6   7
ENDBRANCH   2   6
ENDBRANCH   1   3
BRANCH   1  11
ATOM     11  O   UNL A   1      38.013 -35.916 -31.132  0.00  0.00    -0.483 OA
BRANCH  11  12
ATOM     12  C   UNL A   1      39.220 -36.530 -30.944  0.00  0.00    +0.121 A 
ATOM     13  C   UNL A   1      40.155 -36.293 -31.957  0.00  0.00    -0.019 A 
ATOM     14  C   UNL A   1      41.426 -36.866 -31.901  0.00  0.00    -0.048 A 
ATOM     15  C   UNL A   1      41.763 -37.693 -30.829  0.00  0.00    +0.014 A 
ATOM     16  C   UNL A   1      40.833 -37.946 -29.819  0.00  0.00    -0.048 A 
ATOM     17  C   UNL A   1      39.561 -37.364 -29.879  0.00  0.00    -0.019 A 
BRANCH  15  18
ATOM     18  C   UNL A   1      43.100 -38.315 -30.760  0.00  0.00    +0.150 C 
ATOM     19  O   UNL A   1      44.125 -37.653 -30.664  0.00  0.00    -0.296 OA
ENDBRANCH  15  18
ENDBRANCH  11  12
ENDBRANCH   1  11
TORSDOF 7
ENDMDL
MODEL 4
REMARK VINA RESULT:    -5.587      1.810      2.529
REMARK INTER + INTRA:          -8.241
REMARK INTER:                  -7.796
REMARK INTRA:                  -0.445
REMARK UNBOUND:                -0.367
REMARK  Name = cpd228.pdb
REMARK  8 active torsions:
REMARK  status: ('A' for Active; 'I' for Inactive)
REMARK    1  A    between atoms: C_1  and  O_2
REMARK    2  A    between atoms: O_2  and  C_3
REMARK    3  A    between atoms: C_3  and  C_5
REMARK    4  A    between atoms: C_5  and  N_6
REMARK    5  A    between atoms: C_7  and  C_9
REMARK    6  A    between atoms: C_9  and  O_10
REMARK    7  A    between atoms: O_10  and  C_11
REMARK    8  A    between atoms: C_14  and  C_15
REMARK                            x       y       z     vdW  Elec       q    Type
REMARK                         _______ _______ _______ _____ _____    ______ ____
ROOT
ATOM      1  C   UNL A   1      35.545 -33.935 -30.732  0.00  0.00    +0.165 C 
ENDROOT
BRANCH   1   3
ATOM      2  N   UNL A   1      33.439 -33.260 -31.864  0.00  0.00    -0.302 N 
ATOM      3  C   UNL A   1      34.722 -32.916 -31.536  0.00  0.00    +0.251 C 
ATOM      4  O   UNL A   1      35.164 -31.834 -31.914  0.00  0.00    -0.272 OA
ATOM      5  H   UNL A   1      32.959 -32.632 -32.450  0.00  0.00    +0.000 HD
BRANCH   2   6
ATOM      6  C   UNL A   1      32.699 -34.444 -31.451  0.00  0.00    +0.109 C 
BRANCH   6   7
ATOM      7  C   UNL A   1      31.712 -34.100 -30.338  0.00  0.00    +0.324 C 
ATOM      8  O   UNL A   1      30.519 -33.907 -30.562  0.00  0.00    -0.249 OA
BRANCH   7  10
ATOM      9  C   UNL A   1      31.528 -33.285 -28.048  0.00  0.00    +0.082 C 
ATOM     10  O   UNL A   1      32.206 -34.017 -29.078  0.00  0.00    -0.467 OA
ENDBRANCH   7  10
ENDBRANCH   6   7
ENDBRANCH   2   6
ENDBRANCH   1   3
BRANCH   1  11
ATOM     11  O   UNL A   1      36.187 -34.957 -31.477  0.00  0.00    -0.483 OA
BRANCH  11  12
ATOM     12  C   UNL A   1      37.550 -35.038 -31.426  0.00  0.00    +0.121 A 
ATOM     13  C   UNL A   1      38.040 -36.221 -30.862  0.00  0.00    -0.019 A 
ATOM     14  C   UNL A   1      39.413 -36.434 -30.735  0.00  0.00    -0.048 A 
ATOM     15  C   UNL A   1      40.306 -35.451 -31.165  0.00  0.00    +0.014 A 
ATOM     16  C   UNL A   1      39.827 -34.262 -31.718  0.00  0.00    -0.048 A 
ATOM     17  C   UNL A   1      38.449 -34.056 -31.846  0.00  0.00    -0.019 A 
BRANCH  15  18
ATOM     18  C   UNL A   1      41.761 -35.656 -31.029  0.00  0.00    +0.150 C 
ATOM     19  O   UNL A   1      42.429 -36.199 -31.900  0.00  0.00    -0.296 OA
ENDBRANCH  15  18
ENDBRANCH  11  12
ENDBRANCH   1  11
TORSDOF 7
ENDMDL
MODEL 5
REMARK VINA RESULT:    -5.575      2.625      4.797
REMARK INTER + INTRA:          -8.224
REMARK INTER:                  -7.743
REMARK INTRA:                  -0.480
REMARK UNBOUND:                -0.367
REMARK  Name = cpd228.pdb
REMARK  8 active torsions:
REMARK  status: ('A' for Active; 'I' for Inactive)
REMARK    1  A    between atoms: C_1  and  O_2
REMARK    2  A    between atoms: O_2  and  C_3
REMARK    3  A    between atoms: C_3  and  C_5
REMARK    4  A    between atoms: C_5  and  N_6
REMARK    5  A    between atoms: C_7  and  C_9
REMARK    6  A    between atoms: C_9  and  O_10
REMARK    7  A    between atoms: O_10  and  C_11
REMARK    8  A    between atoms: C_14  and  C_15
REMARK                            x       y       z     vdW  Elec       q    Type
REMARK                         _______ _______ _______ _____ _____    ______ ____
ROOT
ATOM      1  C   UNL A   1      36.554 -35.930 -30.492  0.00  0.00    +0.165 C 
ENDROOT
BRANCH   1   3
ATOM      2  N   UNL A   1      35.240 -37.859 -31.344  0.00  0.00    -0.302 N 
ATOM      3  C   UNL A   1      35.300 -36.503 -31.172  0.00  0.00    +0.251 C 
ATOM      4  O   UNL A   1      34.375 -35.809 -31.587  0.00  0.00    -0.272 OA
ATOM      5  H   UNL A   1      34.471 -38.197 -31.857  0.00  0.00    +0.000 HD
BRANCH   2   6
ATOM      6  C   UNL A   1      36.178 -38.863 -30.860  0.00  0.00    +0.109 C 
BRANCH   6   7
ATOM      7  C   UNL A   1      35.706 -39.441 -29.528  0.00  0.00    +0.324 C 
ATOM      8  O   UNL A   1      34.685 -39.044 -28.971  0.00  0.00    -0.249 OA
BRANCH   7  10
ATOM      9  C   UNL A   1      35.881 -41.639 -28.490  0.00  0.00    +0.082 C 
ATOM     10  O   UNL A   1      36.463 -40.423 -28.978  0.00  0.00    -0.467 OA
ENDBRANCH   7  10
ENDBRANCH   6   7
ENDBRANCH   2   6
ENDBRANCH   1   3
BRANCH   1  11
ATOM     11  O   UNL A   1      37.537 -35.372 -31.347  0.00  0.00    -0.483 OA
BRANCH  11  12
ATOM     12  C   UNL A   1      38.828 -35.801 -31.217  0.00  0.00    +0.121 A 
ATOM     13  C   UNL A   1      39.763 -35.057 -31.945  0.00  0.00    -0.019 A 
ATOM     14  C   UNL A   1      41.118 -35.390 -31.915  0.00  0.00    -0.048 A 
ATOM     15  C   UNL A   1      41.542 -36.484 -31.159  0.00  0.00    +0.014 A 
ATOM     16  C   UNL A   1      40.615 -37.241 -30.439  0.00  0.00    -0.048 A 
ATOM     17  C   UNL A   1      39.259 -36.898 -30.470  0.00  0.00    -0.019 A 
BRANCH  15  18
ATOM     18  C   UNL A   1      42.970 -36.856 -31.124  0.00  0.00    +0.150 C 
ATOM     19  O   UNL A   1      43.849 -36.049 -30.851  0.00  0.00    -0.296 OA
ENDBRANCH  15  18
ENDBRANCH  11  12
ENDBRANCH   1  11
TORSDOF 7
ENDMDL
MODEL 6
REMARK VINA RESULT:    -5.562      2.764      4.148
REMARK INTER + INTRA:          -8.205
REMARK INTER:                  -7.944
REMARK INTRA:                  -0.261
REMARK UNBOUND:                -0.367
REMARK  Name = cpd228.pdb
REMARK  8 active torsions:
REMARK  status: ('A' for Active; 'I' for Inactive)
REMARK    1  A    between atoms: C_1  and  O_2
REMARK    2  A    between atoms: O_2  and  C_3
REMARK    3  A    between atoms: C_3  and  C_5
REMARK    4  A    between atoms: C_5  and  N_6
REMARK    5  A    between atoms: C_7  and  C_9
REMARK    6  A    between atoms: C_9  and  O_10
REMARK    7  A    between atoms: O_10  and  C_11
REMARK    8  A    between atoms: C_14  and  C_15
REMARK                            x       y       z     vdW  Elec       q    Type
REMARK                         _______ _______ _______ _____ _____    ______ ____
ROOT
ATOM      1  C   UNL A   1      34.407 -33.434 -30.420  0.00  0.00    +0.165 C 
ENDROOT
BRANCH   1   3
ATOM      2  N   UNL A   1      33.099 -31.373 -30.882  0.00  0.00    -0.302 N 
ATOM      3  C   UNL A   1      34.217 -32.107 -31.171  0.00  0.00    +0.251 C 
ATOM      4  O   UNL A   1      34.997 -31.693 -32.025  0.00  0.00    -0.272 OA
ATOM      5  H   UNL A   1      32.953 -30.571 -31.434  0.00  0.00    +0.000 HD
BRANCH   2   6
ATOM      6  C   UNL A   1      32.099 -31.635 -29.856  0.00  0.00    +0.109 C 
BRANCH   6   7
ATOM      7  C   UNL A   1      30.932 -30.659 -29.981  0.00  0.00    +0.324 C 
ATOM      8  O   UNL A   1      30.816 -29.902 -30.942  0.00  0.00    -0.249 OA
BRANCH   7  10
ATOM      9  C   UNL A   1      28.979 -29.673 -28.906  0.00  0.00    +0.082 C 
ATOM     10  O   UNL A   1      30.015 -30.662 -28.981  0.00  0.00    -0.467 OA
ENDBRANCH   7  10
ENDBRANCH   6   7
ENDBRANCH   2   6
ENDBRANCH   1   3
BRANCH   1  11
ATOM     11  O   UNL A   1      35.143 -34.441 -31.093  0.00  0.00    -0.483 OA
BRANCH  11  12
ATOM     12  C   UNL A   1      35.826 -35.357 -30.343  0.00  0.00    +0.121 A 
ATOM     13  C   UNL A   1      37.046 -35.763 -30.892  0.00  0.00    -0.019 A 
ATOM     14  C   UNL A   1      37.845 -36.703 -30.239  0.00  0.00    -0.048 A 
ATOM     15  C   UNL A   1      37.413 -37.251 -29.030  0.00  0.00    +0.014 A 
ATOM     16  C   UNL A   1      36.191 -36.862 -28.479  0.00  0.00    -0.048 A 
ATOM     17  C   UNL A   1      35.398 -35.915 -29.138  0.00  0.00    -0.019 A 
BRANCH  15  18
ATOM     18  C   UNL A   1      38.241 -38.254 -28.330  0.00  0.00    +0.150 C 
ATOM     19  O   UNL A   1      37.787 -39.324 -27.947  0.00  0.00    -0.296 OA
ENDBRANCH  15  18
ENDBRANCH  11  12
ENDBRANCH   1  11
TORSDOF 7
ENDMDL
MODEL 7
REMARK VINA RESULT:    -5.381      4.146      5.572
REMARK INTER + INTRA:          -7.950
REMARK INTER:                  -7.520
REMARK INTRA:                  -0.430
REMARK UNBOUND:                -0.367
REMARK  Name = cpd228.pdb
REMARK  8 active torsions:
REMARK  status: ('A' for Active; 'I' for Inactive)
REMARK    1  A    between atoms: C_1  and  O_2
REMARK    2  A    between atoms: O_2  and  C_3
REMARK    3  A    between atoms: C_3  and  C_5
REMARK    4  A    between atoms: C_5  and  N_6
REMARK    5  A    between atoms: C_7  and  C_9
REMARK    6  A    between atoms: C_9  and  O_10
REMARK    7  A    between atoms: O_10  and  C_11
REMARK    8  A    between atoms: C_14  and  C_15
REMARK                            x       y       z     vdW  Elec       q    Type
REMARK                         _______ _______ _______ _____ _____    ______ ____
ROOT
ATOM      1  C   UNL A   1      37.240 -39.786 -28.782  0.00  0.00    +0.165 C 
ENDROOT
BRANCH   1   3
ATOM      2  N   UNL A   1      35.041 -40.101 -29.894  0.00  0.00    -0.302 N 
ATOM      3  C   UNL A   1      35.726 -40.040 -28.711  0.00  0.00    +0.251 C 
ATOM      4  O   UNL A   1      35.106 -40.162 -27.657  0.00  0.00    -0.272 OA
ATOM      5  H   UNL A   1      34.062 -40.179 -29.824  0.00  0.00    +0.000 HD
BRANCH   2   6
ATOM      6  C   UNL A   1      35.586 -40.066 -31.245  0.00  0.00    +0.109 C 
BRANCH   6   7
ATOM      7  C   UNL A   1      34.464 -39.960 -32.274  0.00  0.00    +0.324 C 
ATOM      8  O   UNL A   1      33.916 -38.890 -32.533  0.00  0.00    -0.249 OA
BRANCH   7  10
ATOM      9  C   UNL A   1      34.035 -41.193 -34.333  0.00  0.00    +0.082 C 
ATOM     10  O   UNL A   1      34.091 -41.103 -32.903  0.00  0.00    -0.467 OA
ENDBRANCH   7  10
ENDBRANCH   6   7
ENDBRANCH   2   6
ENDBRANCH   1   3
BRANCH   1  11
ATOM     11  O   UNL A   1      37.687 -38.508 -28.361  0.00  0.00    -0.483 OA
BRANCH  11  12
ATOM     12  C   UNL A   1      38.513 -37.805 -29.191  0.00  0.00    +0.121 A 
ATOM     13  C   UNL A   1      37.851 -37.024 -30.145  0.00  0.00    -0.019 A 
ATOM     14  C   UNL A   1      38.570 -36.262 -31.066  0.00  0.00    -0.048 A 
ATOM     15  C   UNL A   1      39.965 -36.288 -31.042  0.00  0.00    +0.014 A 
ATOM     16  C   UNL A   1      40.636 -37.072 -30.102  0.00  0.00    -0.048 A 
ATOM     17  C   UNL A   1      39.908 -37.831 -29.178  0.00  0.00    -0.019 A 
BRANCH  15  18
ATOM     18  C   UNL A   1      40.742 -35.495 -32.015  0.00  0.00    +0.150 C 
ATOM     19  O   UNL A   1      40.508 -34.312 -32.230  0.00  0.00    -0.296 OA
ENDBRANCH  15  18
ENDBRANCH  11  12
ENDBRANCH   1  11
TORSDOF 7
ENDMDL
MODEL 8
REMARK VINA RESULT:    -5.363      2.184      2.611
REMARK INTER + INTRA:          -7.925
REMARK INTER:                  -7.443
REMARK INTRA:                  -0.482
REMARK UNBOUND:                -0.367
REMARK  Name = cpd228.pdb
REMARK  8 active torsions:
REMARK  status: ('A' for Active; 'I' for Inactive)
REMARK    1  A    between atoms: C_1  and  O_2
REMARK    2  A    between atoms: O_2  and  C_3
REMARK    3  A    between atoms: C_3  and  C_5
REMARK    4  A    between atoms: C_5  and  N_6
REMARK    5  A    between atoms: C_7  and  C_9
REMARK    6  A    between atoms: C_9  and  O_10
REMARK    7  A    between atoms: O_10  and  C_11
REMARK    8  A    between atoms: C_14  and  C_15
REMARK                            x       y       z     vdW  Elec       q    Type
REMARK                         _______ _______ _______ _____ _____    ______ ____
ROOT
ATOM      1  C   UNL A   1      37.010 -37.895 -30.205  0.00  0.00    +0.165 C 
ENDROOT
BRANCH   1   3
ATOM      2  N   UNL A   1      35.020 -37.165 -28.911  0.00  0.00    -0.302 N 
ATOM      3  C   UNL A   1      36.217 -37.826 -28.890  0.00  0.00    +0.251 C 
ATOM      4  O   UNL A   1      36.614 -38.307 -27.832  0.00  0.00    -0.272 OA
ATOM      5  H   UNL A   1      34.569 -37.058 -28.042  0.00  0.00    +0.000 HD
BRANCH   2   6
ATOM      6  C   UNL A   1      34.331 -36.599 -30.064  0.00  0.00    +0.109 C 
BRANCH   6   7
ATOM      7  C   UNL A   1      34.415 -35.075 -30.044  0.00  0.00    +0.324 C 
ATOM      8  O   UNL A   1      34.831 -34.433 -31.006  0.00  0.00    -0.249 OA
BRANCH   7  10
ATOM      9  C   UNL A   1      32.617 -34.369 -28.556  0.00  0.00    +0.082 C 
ATOM     10  O   UNL A   1      34.004 -34.448 -28.913  0.00  0.00    -0.467 OA
ENDBRANCH   7  10
ENDBRANCH   6   7
ENDBRANCH   2   6
ENDBRANCH   1   3
BRANCH   1  11
ATOM     11  O   UNL A   1      37.636 -36.695 -30.628  0.00  0.00    -0.483 OA
BRANCH  11  12
ATOM     12  C   UNL A   1      38.976 -36.722 -30.895  0.00  0.00    +0.121 A 
ATOM     13  C   UNL A   1      39.744 -37.401 -29.943  0.00  0.00    -0.019 A 
ATOM     14  C   UNL A   1      41.129 -37.498 -30.082  0.00  0.00    -0.048 A 
ATOM     15  C   UNL A   1      41.755 -36.899 -31.176  0.00  0.00    +0.014 A 
ATOM     16  C   UNL A   1      40.999 -36.209 -32.126  0.00  0.00    -0.048 A 
ATOM     17  C   UNL A   1      39.610 -36.120 -31.983  0.00  0.00    -0.019 A 
BRANCH  15  18
ATOM     18  C   UNL A   1      43.220 -36.983 -31.333  0.00  0.00    +0.150 C 
ATOM     19  O   UNL A   1      43.919 -37.666 -30.594  0.00  0.00    -0.296 OA
ENDBRANCH  15  18
ENDBRANCH  11  12
ENDBRANCH   1  11
TORSDOF 7
ENDMDL
MODEL 9
REMARK VINA RESULT:    -5.335      1.743      2.954
REMARK INTER + INTRA:          -7.886
REMARK INTER:                  -7.524
REMARK INTRA:                  -0.361
REMARK UNBOUND:                -0.367
REMARK  Name = cpd228.pdb
REMARK  8 active torsions:
REMARK  status: ('A' for Active; 'I' for Inactive)
REMARK    1  A    between atoms: C_1  and  O_2
REMARK    2  A    between atoms: O_2  and  C_3
REMARK    3  A    between atoms: C_3  and  C_5
REMARK    4  A    between atoms: C_5  and  N_6
REMARK    5  A    between atoms: C_7  and  C_9
REMARK    6  A    between atoms: C_9  and  O_10
REMARK    7  A    between atoms: O_10  and  C_11
REMARK    8  A    between atoms: C_14  and  C_15
REMARK                            x       y       z     vdW  Elec       q    Type
REMARK                         _______ _______ _______ _____ _____    ______ ____
ROOT
ATOM      1  C   UNL A   1      34.861 -34.204 -30.828  0.00  0.00    +0.165 C 
ENDROOT
BRANCH   1   3
ATOM      2  N   UNL A   1      33.578 -32.109 -30.457  0.00  0.00    -0.302 N 
ATOM      3  C   UNL A   1      34.629 -32.708 -31.096  0.00  0.00    +0.251 C 
ATOM      4  O   UNL A   1      35.316 -32.042 -31.866  0.00  0.00    -0.272 OA
ATOM      5  H   UNL A   1      33.395 -31.174 -30.707  0.00  0.00    +0.000 HD
BRANCH   2   6
ATOM      6  C   UNL A   1      32.697 -32.687 -29.451  0.00  0.00    +0.109 C 
BRANCH   6   7
ATOM      7  C   UNL A   1      31.253 -32.706 -29.948  0.00  0.00    +0.324 C 
ATOM      8  O   UNL A   1      30.559 -33.718 -29.894  0.00  0.00    -0.249 OA
BRANCH   7  10
ATOM      9  C   UNL A   1      29.906 -31.533 -31.607  0.00  0.00    +0.082 C 
ATOM     10  O   UNL A   1      30.759 -31.548 -30.454  0.00  0.00    -0.467 OA
ENDBRANCH   7  10
ENDBRANCH   6   7
ENDBRANCH   2   6
ENDBRANCH   1   3
BRANCH   1  11
ATOM     11  O   UNL A   1      35.734 -34.877 -31.720  0.00  0.00    -0.483 OA
BRANCH  11  12
ATOM     12  C   UNL A   1      36.811 -35.537 -31.197  0.00  0.00    +0.121 A 
ATOM     13  C   UNL A   1      37.963 -35.488 -31.990  0.00  0.00    -0.019 A 
ATOM     14  C   UNL A   1      39.134 -36.128 -31.584  0.00  0.00    -0.048 A 
ATOM     15  C   UNL A   1      39.152 -36.836 -30.382  0.00  0.00    +0.014 A 
ATOM     16  C   UNL A   1      38.004 -36.902 -29.589  0.00  0.00    -0.048 A 
ATOM     17  C   UNL A   1      36.834 -36.253 -29.999  0.00  0.00    -0.019 A 
BRANCH  15  18
ATOM     18  C   UNL A   1      40.380 -37.528 -29.943  0.00  0.00    +0.150 C 
ATOM     19  O   UNL A   1      41.299 -37.779 -30.712  0.00  0.00    -0.296 OA
ENDBRANCH  15  18
ENDBRANCH  11  12
ENDBRANCH   1  11
TORSDOF 7
ENDMDL
MODEL 10
REMARK VINA RESULT:    -5.334     14.824     16.166
REMARK INTER + INTRA:          -7.885
REMARK INTER:                  -7.540
REMARK INTRA:                  -0.345
REMARK UNBOUND:                -0.367
REMARK  Name = cpd228.pdb
REMARK  8 active torsions:
REMARK  status: ('A' for Active; 'I' for Inactive)
REMARK    1  A    between atoms: C_1  and  O_2
REMARK    2  A    between atoms: O_2  and  C_3
REMARK    3  A    between atoms: C_3  and  C_5
REMARK    4  A    between atoms: C_5  and  N_6
REMARK    5  A    between atoms: C_7  and  C_9
REMARK    6  A    between atoms: C_9  and  O_10
REMARK    7  A    between atoms: O_10  and  C_11
REMARK    8  A    between atoms: C_14  and  C_15
REMARK                            x       y       z     vdW  Elec       q    Type
REMARK                         _______ _______ _______ _____ _____    ______ ____
ROOT
ATOM      1  C   UNL A   1      41.572 -21.195 -38.656  0.00  0.00    +0.165 C 
ENDROOT
BRANCH   1   3
ATOM      2  N   UNL A   1      39.700 -22.678 -37.970  0.00  0.00    -0.302 N 
ATOM      3  C   UNL A   1      40.621 -22.370 -38.934  0.00  0.00    +0.251 C 
ATOM      4  O   UNL A   1      40.666 -23.053 -39.954  0.00  0.00    -0.272 OA
ATOM      5  H   UNL A   1      39.159 -23.485 -38.130  0.00  0.00    +0.000 HD
BRANCH   2   6
ATOM      6  C   UNL A   1      39.424 -21.955 -36.736  0.00  0.00    +0.109 C 
BRANCH   6   7
ATOM      7  C   UNL A   1      39.315 -22.922 -35.560  0.00  0.00    +0.324 C 
ATOM      8  O   UNL A   1      38.802 -24.033 -35.675  0.00  0.00    -0.249 OA
BRANCH   7  10
ATOM      9  C   UNL A   1      39.538 -21.197 -33.852  0.00  0.00    +0.082 C 
ATOM     10  O   UNL A   1      39.814 -22.506 -34.369  0.00  0.00    -0.467 OA
ENDBRANCH   7  10
ENDBRANCH   6   7
ENDBRANCH   2   6
ENDBRANCH   1   3
BRANCH   1  11
ATOM     11  O   UNL A   1      42.137 -20.558 -39.789  0.00  0.00    -0.483 OA
BRANCH  11  12
ATOM     12  C   UNL A   1      43.301 -21.059 -40.302  0.00  0.00    +0.121 A 
ATOM     13  C   UNL A   1      43.299 -21.226 -41.691  0.00  0.00    -0.019 A 
ATOM     14  C   UNL A   1      44.418 -21.740 -42.348  0.00  0.00    -0.048 A 
ATOM     15  C   UNL A   1      45.545 -22.102 -41.609  0.00  0.00    +0.014 A 
ATOM     16  C   UNL A   1      45.553 -21.950 -40.221  0.00  0.00    -0.048 A 
ATOM     17  C   UNL A   1      44.429 -21.430 -39.569  0.00  0.00    -0.019 A 
BRANCH  15  18
ATOM     18  C   UNL A   1      46.734 -22.656 -42.288  0.00  0.00    +0.150 C 
ATOM     19  O   UNL A   1      46.824 -23.840 -42.586  0.00  0.00    -0.296 OA
ENDBRANCH  15  18
ENDBRANCH  11  12
ENDBRANCH   1  11
TORSDOF 7
ENDMDL
MODEL 11
REMARK VINA RESULT:    -5.240      2.386      3.591
REMARK INTER + INTRA:          -7.752
REMARK INTER:                  -7.219
REMARK INTRA:                  -0.533
REMARK UNBOUND:                -0.367
REMARK  Name = cpd228.pdb
REMARK  8 active torsions:
REMARK  status: ('A' for Active; 'I' for Inactive)
REMARK    1  A    between atoms: C_1  and  O_2
REMARK    2  A    between atoms: O_2  and  C_3
REMARK    3  A    between atoms: C_3  and  C_5
REMARK    4  A    between atoms: C_5  and  N_6
REMARK    5  A    between atoms: C_7  and  C_9
REMARK    6  A    between atoms: C_9  and  O_10
REMARK    7  A    between atoms: O_10  and  C_11
REMARK    8  A    between atoms: C_14  and  C_15
REMARK                            x       y       z     vdW  Elec       q    Type
REMARK                         _______ _______ _______ _____ _____    ______ ____
ROOT
ATOM      1  C   UNL A   1      34.516 -34.067 -31.203  0.00  0.00    +0.165 C 
ENDROOT
BRANCH   1   3
ATOM      2  N   UNL A   1      32.882 -32.196 -31.236  0.00  0.00    -0.302 N 
ATOM      3  C   UNL A   1      34.167 -32.597 -31.483  0.00  0.00    +0.251 C 
ATOM      4  O   UNL A   1      34.968 -31.783 -31.936  0.00  0.00    -0.272 OA
ATOM      5  H   UNL A   1      32.657 -31.275 -31.501  0.00  0.00    +0.000 HD
BRANCH   2   6
ATOM      6  C   UNL A   1      31.807 -32.968 -30.628  0.00  0.00    +0.109 C 
BRANCH   6   7
ATOM      7  C   UNL A   1      31.689 -32.646 -29.140  0.00  0.00    +0.324 C 
ATOM      8  O   UNL A   1      31.027 -31.695 -28.729  0.00  0.00    -0.249 OA
BRANCH   7  10
ATOM      9  C   UNL A   1      32.216 -34.887 -28.339  0.00  0.00    +0.082 C 
ATOM     10  O   UNL A   1      32.348 -33.460 -28.278  0.00  0.00    -0.467 OA
ENDBRANCH   7  10
ENDBRANCH   6   7
ENDBRANCH   2   6
ENDBRANCH   1   3
BRANCH   1  11
ATOM     11  O   UNL A   1      35.628 -34.596 -31.904  0.00  0.00    -0.483 OA
BRANCH  11  12
ATOM     12  C   UNL A   1      36.487 -35.419 -31.231  0.00  0.00    +0.121 A 
ATOM     13  C   UNL A   1      36.035 -35.825 -29.971  0.00  0.00    -0.019 A 
ATOM     14  C   UNL A   1      36.815 -36.657 -29.167  0.00  0.00    -0.048 A 
ATOM     15  C   UNL A   1      38.065 -37.079 -29.622  0.00  0.00    +0.014 A 
ATOM     16  C   UNL A   1      38.532 -36.670 -30.873  0.00  0.00    -0.048 A 
ATOM     17  C   UNL A   1      37.742 -35.839 -31.675  0.00  0.00    -0.019 A 
BRANCH  15  18
ATOM     18  C   UNL A   1      38.907 -37.952 -28.780  0.00  0.00    +0.150 C 
ATOM     19  O   UNL A   1      38.550 -38.337 -27.675  0.00  0.00    -0.296 OA
ENDBRANCH  15  18
ENDBRANCH  11  12
ENDBRANCH   1  11
TORSDOF 7
ENDMDL
MODEL 12
REMARK VINA RESULT:    -5.213      4.024      5.315
REMARK INTER + INTRA:          -7.713
REMARK INTER:                  -7.281
REMARK INTRA:                  -0.432
REMARK UNBOUND:                -0.367
REMARK  Name = cpd228.pdb
REMARK  8 active torsions:
REMARK  status: ('A' for Active; 'I' for Inactive)
REMARK    1  A    between atoms: C_1  and  O_2
REMARK    2  A    between atoms: O_2  and  C_3
REMARK    3  A    between atoms: C_3  and  C_5
REMARK    4  A    between atoms: C_5  and  N_6
REMARK    5  A    between atoms: C_7  and  C_9
REMARK    6  A    between atoms: C_9  and  O_10
REMARK    7  A    between atoms: O_10  and  C_11
REMARK    8  A    between atoms: C_14  and  C_15
REMARK                            x       y       z     vdW  Elec       q    Type
REMARK                         _______ _______ _______ _____ _____    ______ ____
ROOT
ATOM      1  C   UNL A   1      37.114 -37.990 -30.093  0.00  0.00    +0.165 C 
ENDROOT
BRANCH   1   3
ATOM      2  N   UNL A   1      35.388 -38.804 -28.502  0.00  0.00    -0.302 N 
ATOM      3  C   UNL A   1      36.623 -38.236 -28.657  0.00  0.00    +0.251 C 
ATOM      4  O   UNL A   1      37.266 -37.927 -27.657  0.00  0.00    -0.272 OA
ATOM      5  H   UNL A   1      35.057 -38.874 -27.578  0.00  0.00    +0.000 HD
BRANCH   2   6
ATOM      6  C   UNL A   1      34.504 -39.316 -29.541  0.00  0.00    +0.109 C 
BRANCH   6   7
ATOM      7  C   UNL A   1      34.519 -40.843 -29.554  0.00  0.00    +0.324 C 
ATOM      8  O   UNL A   1      33.910 -41.508 -28.719  0.00  0.00    -0.249 OA
BRANCH   7  10
ATOM      9  C   UNL A   1      35.491 -40.796 -31.789  0.00  0.00    +0.082 C 
ATOM     10  O   UNL A   1      35.237 -41.445 -30.536  0.00  0.00    -0.467 OA
ENDBRANCH   7  10
ENDBRANCH   6   7
ENDBRANCH   2   6
ENDBRANCH   1   3
BRANCH   1  11
ATOM     11  O   UNL A   1      37.664 -36.711 -30.361  0.00  0.00    -0.483 OA
BRANCH  11  12
ATOM     12  C   UNL A   1      38.989 -36.630 -30.687  0.00  0.00    +0.121 A 
ATOM     13  C   UNL A   1      39.842 -37.329 -29.825  0.00  0.00    -0.019 A 
ATOM     14  C   UNL A   1      41.222 -37.325 -30.031  0.00  0.00    -0.048 A 
ATOM     15  C   UNL A   1      41.757 -36.605 -31.100  0.00  0.00    +0.014 A 
ATOM     16  C   UNL A   1      40.916 -35.895 -31.959  0.00  0.00    -0.048 A 
ATOM     17  C   UNL A   1      39.532 -35.907 -31.749  0.00  0.00    -0.019 A 
BRANCH  15  18
ATOM     18  C   UNL A   1      43.216 -36.582 -31.326  0.00  0.00    +0.150 C 
ATOM     19  O   UNL A   1      44.020 -36.787 -30.426  0.00  0.00    -0.296 OA
ENDBRANCH  15  18
ENDBRANCH  11  12
ENDBRANCH   1  11
TORSDOF 7
ENDMDL
MODEL 13
REMARK VINA RESULT:    -5.188     18.615     19.914
REMARK INTER + INTRA:          -7.679
REMARK INTER:                  -7.124
REMARK INTRA:                  -0.555
REMARK UNBOUND:                -0.367
REMARK  Name = cpd228.pdb
REMARK  8 active torsions:
REMARK  status: ('A' for Active; 'I' for Inactive)
REMARK    1  A    between atoms: C_1  and  O_2
REMARK    2  A    between atoms: O_2  and  C_3
REMARK    3  A    between atoms: C_3  and  C_5
REMARK    4  A    between atoms: C_5  and  N_6
REMARK    5  A    between atoms: C_7  and  C_9
REMARK    6  A    between atoms: C_9  and  O_10
REMARK    7  A    between atoms: O_10  and  C_11
REMARK    8  A    between atoms: C_14  and  C_15
REMARK                            x       y       z     vdW  Elec       q    Type
REMARK                         _______ _______ _______ _____ _____    ______ ____
ROOT
ATOM      1  C   UNL A   1      46.169 -19.411 -41.197  0.00  0.00    +0.165 C 
ENDROOT
BRANCH   1   3
ATOM      2  N   UNL A   1      45.219 -21.601 -41.882  0.00  0.00    -0.302 N 
ATOM      3  C   UNL A   1      45.196 -20.243 -42.047  0.00  0.00    +0.251 C 
ATOM      4  O   UNL A   1      44.430 -19.757 -42.874  0.00  0.00    -0.272 OA
ATOM      5  H   UNL A   1      44.651 -22.122 -42.495  0.00  0.00    +0.000 HD
BRANCH   2   6
ATOM      6  C   UNL A   1      45.983 -22.371 -40.908  0.00  0.00    +0.109 C 
BRANCH   6   7
ATOM      7  C   UNL A   1      47.003 -23.263 -41.610  0.00  0.00    +0.324 C 
ATOM      8  O   UNL A   1      46.699 -23.975 -42.565  0.00  0.00    -0.249 OA
BRANCH   7  10
ATOM      9  C   UNL A   1      48.718 -22.229 -40.220  0.00  0.00    +0.082 C 
ATOM     10  O   UNL A   1      48.274 -23.239 -41.137  0.00  0.00    -0.467 OA
ENDBRANCH   7  10
ENDBRANCH   6   7
ENDBRANCH   2   6
ENDBRANCH   1   3
BRANCH   1  11
ATOM     11  O   UNL A   1      45.599 -18.663 -40.136  0.00  0.00    -0.483 OA
BRANCH  11  12
ATOM     12  C   UNL A   1      46.208 -18.707 -38.913  0.00  0.00    +0.121 A 
ATOM     13  C   UNL A   1      46.131 -19.947 -38.270  0.00  0.00    -0.019 A 
ATOM     14  C   UNL A   1      46.699 -20.133 -37.009  0.00  0.00    -0.048 A 
ATOM     15  C   UNL A   1      47.340 -19.066 -36.378  0.00  0.00    +0.014 A 
ATOM     16  C   UNL A   1      47.412 -17.821 -37.005  0.00  0.00    -0.048 A 
ATOM     17  C   UNL A   1      46.844 -17.643 -38.272  0.00  0.00    -0.019 A 
BRANCH  15  18
ATOM     18  C   UNL A   1      47.938 -19.242 -35.040  0.00  0.00    +0.150 C 
ATOM     19  O   UNL A   1      47.680 -18.496 -34.105  0.00  0.00    -0.296 OA
ENDBRANCH  15  18
ENDBRANCH  11  12
ENDBRANCH   1  11
TORSDOF 7
ENDMDL
MODEL 14
REMARK VINA RESULT:    -5.175      3.417      4.282
REMARK INTER + INTRA:          -7.660
REMARK INTER:                  -7.245
REMARK INTRA:                  -0.414
REMARK UNBOUND:                -0.367
REMARK  Name = cpd228.pdb
REMARK  8 active torsions:
REMARK  status: ('A' for Active; 'I' for Inactive)
REMARK    1  A    between atoms: C_1  and  O_2
REMARK    2  A    between atoms: O_2  and  C_3
REMARK    3  A    between atoms: C_3  and  C_5
REMARK    4  A    between atoms: C_5  and  N_6
REMARK    5  A    between atoms: C_7  and  C_9
REMARK    6  A    between atoms: C_9  and  O_10
REMARK    7  A    between atoms: O_10  and  C_11
REMARK    8  A    between atoms: C_14  and  C_15
REMARK                            x       y       z     vdW  Elec       q    Type
REMARK                         _______ _______ _______ _____ _____    ______ ____
ROOT
ATOM      1  C   UNL A   1      36.831 -37.928 -30.018  0.00  0.00    +0.165 C 
ENDROOT
BRANCH   1   3
ATOM      2  N   UNL A   1      35.036 -39.591 -29.587  0.00  0.00    -0.302 N 
ATOM      3  C   UNL A   1      36.014 -38.799 -29.050  0.00  0.00    +0.251 C 
ATOM      4  O   UNL A   1      36.178 -38.798 -27.833  0.00  0.00    -0.272 OA
ATOM      5  H   UNL A   1      34.469 -40.075 -28.944  0.00  0.00    +0.000 HD
BRANCH   2   6
ATOM      6  C   UNL A   1      34.732 -39.804 -30.996  0.00  0.00    +0.109 C 
BRANCH   6   7
ATOM      7  C   UNL A   1      33.715 -38.777 -31.487  0.00  0.00    +0.324 C 
ATOM      8  O   UNL A   1      33.508 -38.586 -32.683  0.00  0.00    -0.249 OA
BRANCH   7  10
ATOM      9  C   UNL A   1      33.000 -36.644 -30.549  0.00  0.00    +0.082 C 
ATOM     10  O   UNL A   1      33.038 -38.077 -30.542  0.00  0.00    -0.467 OA
ENDBRANCH   7  10
ENDBRANCH   6   7
ENDBRANCH   2   6
ENDBRANCH   1   3
BRANCH   1  11
ATOM     11  O   UNL A   1      37.803 -37.077 -29.434  0.00  0.00    -0.483 OA
BRANCH  11  12
ATOM     12  C   UNL A   1      39.105 -37.218 -29.822  0.00  0.00    +0.121 A 
ATOM     13  C   UNL A   1      39.461 -36.464 -30.946  0.00  0.00    -0.019 A 
ATOM     14  C   UNL A   1      40.757 -36.520 -31.460  0.00  0.00    -0.048 A 
ATOM     15  C   UNL A   1      41.704 -37.347 -30.854  0.00  0.00    +0.014 A 
ATOM     16  C   UNL A   1      41.356 -38.113 -29.740  0.00  0.00    -0.048 A 
ATOM     17  C   UNL A   1      40.056 -38.048 -29.226  0.00  0.00    -0.019 A 
BRANCH  15  18
ATOM     18  C   UNL A   1      43.077 -37.425 -31.391  0.00  0.00    +0.150 C 
ATOM     19  O   UNL A   1      44.065 -37.352 -30.673  0.00  0.00    -0.296 OA
ENDBRANCH  15  18
ENDBRANCH  11  12
ENDBRANCH   1  11
TORSDOF 7
ENDMDL
MODEL 15
REMARK VINA RESULT:    -5.116     15.435     16.839
REMARK INTER + INTRA:          -7.577
REMARK INTER:                  -7.094
REMARK INTRA:                  -0.483
REMARK UNBOUND:                -0.367
REMARK  Name = cpd228.pdb
REMARK  8 active torsions:
REMARK  status: ('A' for Active; 'I' for Inactive)
REMARK    1  A    between atoms: C_1  and  O_2
REMARK    2  A    between atoms: O_2  and  C_3
REMARK    3  A    between atoms: C_3  and  C_5
REMARK    4  A    between atoms: C_5  and  N_6
REMARK    5  A    between atoms: C_7  and  C_9
REMARK    6  A    between atoms: C_9  and  O_10
REMARK    7  A    between atoms: O_10  and  C_11
REMARK    8  A    between atoms: C_14  and  C_15
REMARK                            x       y       z     vdW  Elec       q    Type
REMARK                         _______ _______ _______ _____ _____    ______ ____
ROOT
ATOM      1  C   UNL A   1      43.174 -20.607 -38.048  0.00  0.00    +0.165 C 
ENDROOT
BRANCH   1   3
ATOM      2  N   UNL A   1      42.296 -20.510 -35.726  0.00  0.00    -0.302 N 
ATOM      3  C   UNL A   1      43.392 -20.415 -36.539  0.00  0.00    +0.251 C 
ATOM      4  O   UNL A   1      44.484 -20.157 -36.038  0.00  0.00    -0.272 OA
ATOM      5  H   UNL A   1      42.442 -20.300 -34.775  0.00  0.00    +0.000 HD
BRANCH   2   6
ATOM      6  C   UNL A   1      40.938 -20.885 -36.097  0.00  0.00    +0.109 C 
BRANCH   6   7
ATOM      7  C   UNL A   1      40.689 -22.362 -35.803  0.00  0.00    +0.324 C 
ATOM      8  O   UNL A   1      41.154 -23.255 -36.508  0.00  0.00    -0.249 OA
BRANCH   7  10
ATOM      9  C   UNL A   1      40.517 -22.974 -33.449  0.00  0.00    +0.082 C 
ATOM     10  O   UNL A   1      39.929 -22.656 -34.718  0.00  0.00    -0.467 OA
ENDBRANCH   7  10
ENDBRANCH   6   7
ENDBRANCH   2   6
ENDBRANCH   1   3
BRANCH   1  11
ATOM     11  O   UNL A   1      44.106 -19.973 -38.907  0.00  0.00    -0.483 OA
BRANCH  11  12
ATOM     12  C   UNL A   1      44.785 -20.743 -39.808  0.00  0.00    +0.121 A 
ATOM     13  C   UNL A   1      45.995 -21.261 -39.334  0.00  0.00    -0.019 A 
ATOM     14  C   UNL A   1      46.799 -22.057 -40.152  0.00  0.00    -0.048 A 
ATOM     15  C   UNL A   1      46.396 -22.328 -41.460  0.00  0.00    +0.014 A 
ATOM     16  C   UNL A   1      45.196 -21.806 -41.947  0.00  0.00    -0.048 A 
ATOM     17  C   UNL A   1      44.393 -21.013 -41.120  0.00  0.00    -0.019 A 
BRANCH  15  18
ATOM     18  C   UNL A   1      47.239 -23.160 -42.341  0.00  0.00    +0.150 C 
ATOM     19  O   UNL A   1      46.897 -24.276 -42.711  0.00  0.00    -0.296 OA
ENDBRANCH  15  18
ENDBRANCH  11  12
ENDBRANCH   1  11
TORSDOF 7
ENDMDL
MODEL 16
REMARK VINA RESULT:    -5.078      2.052      2.848
REMARK INTER + INTRA:          -7.524
REMARK INTER:                  -7.247
REMARK INTRA:                  -0.276
REMARK UNBOUND:                -0.367
REMARK  Name = cpd228.pdb
REMARK  8 active torsions:
REMARK  status: ('A' for Active; 'I' for Inactive)
REMARK    1  A    between atoms: C_1  and  O_2
REMARK    2  A    between atoms: O_2  and  C_3
REMARK    3  A    between atoms: C_3  and  C_5
REMARK    4  A    between atoms: C_5  and  N_6
REMARK    5  A    between atoms: C_7  and  C_9
REMARK    6  A    between atoms: C_9  and  O_10
REMARK    7  A    between atoms: O_10  and  C_11
REMARK    8  A    between atoms: C_14  and  C_15
REMARK                            x       y       z     vdW  Elec       q    Type
REMARK                         _______ _______ _______ _____ _____    ______ ____
ROOT
ATOM      1  C   UNL A   1      35.878 -34.883 -30.768  0.00  0.00    +0.165 C 
ENDROOT
BRANCH   1   3
ATOM      2  N   UNL A   1      33.541 -35.728 -30.729  0.00  0.00    -0.302 N 
ATOM      3  C   UNL A   1      34.501 -34.989 -30.093  0.00  0.00    +0.251 C 
ATOM      4  O   UNL A   1      34.218 -34.427 -29.037  0.00  0.00    -0.272 OA
ATOM      5  H   UNL A   1      32.644 -35.712 -30.324  0.00  0.00    +0.000 HD
BRANCH   2   6
ATOM      6  C   UNL A   1      33.688 -36.534 -31.933  0.00  0.00    +0.109 C 
BRANCH   6   7
ATOM      7  C   UNL A   1      32.965 -35.881 -33.109  0.00  0.00    +0.324 C 
ATOM      8  O   UNL A   1      33.401 -34.874 -33.663  0.00  0.00    -0.249 OA
BRANCH   7  10
ATOM      9  C   UNL A   1      31.610 -36.837 -34.895  0.00  0.00    +0.082 C 
ATOM     10  O   UNL A   1      31.813 -36.462 -33.526  0.00  0.00    -0.467 OA
ENDBRANCH   7  10
ENDBRANCH   6   7
ENDBRANCH   2   6
ENDBRANCH   1   3
BRANCH   1  11
ATOM     11  O   UNL A   1      36.666 -36.062 -30.782  0.00  0.00    -0.483 OA
BRANCH  11  12
ATOM     12  C   UNL A   1      38.014 -35.937 -30.969  0.00  0.00    +0.121 A 
ATOM     13  C   UNL A   1      38.780 -36.933 -30.352  0.00  0.00    -0.019 A 
ATOM     14  C   UNL A   1      40.172 -36.924 -30.450  0.00  0.00    -0.048 A 
ATOM     15  C   UNL A   1      40.806 -35.904 -31.161  0.00  0.00    +0.014 A 
ATOM     16  C   UNL A   1      40.052 -34.900 -31.771  0.00  0.00    -0.048 A 
ATOM     17  C   UNL A   1      38.656 -34.917 -31.672  0.00  0.00    -0.019 A 
BRANCH  15  18
ATOM     18  C   UNL A   1      42.278 -35.875 -31.267  0.00  0.00    +0.150 C 
ATOM     19  O   UNL A   1      43.002 -36.496 -30.499  0.00  0.00    -0.296 OA
ENDBRANCH  15  18
ENDBRANCH  11  12
ENDBRANCH   1  11
TORSDOF 7
ENDMDL
MODEL 17
REMARK VINA RESULT:    -4.919      2.313      3.070
REMARK INTER + INTRA:          -7.299
REMARK INTER:                  -6.714
REMARK INTRA:                  -0.585
REMARK UNBOUND:                -0.367
REMARK  Name = cpd228.pdb
REMARK  8 active torsions:
REMARK  status: ('A' for Active; 'I' for Inactive)
REMARK    1  A    between atoms: C_1  and  O_2
REMARK    2  A    between atoms: O_2  and  C_3
REMARK    3  A    between atoms: C_3  and  C_5
REMARK    4  A    between atoms: C_5  and  N_6
REMARK    5  A    between atoms: C_7  and  C_9
REMARK    6  A    between atoms: C_9  and  O_10
REMARK    7  A    between atoms: O_10  and  C_11
REMARK    8  A    between atoms: C_14  and  C_15
REMARK                            x       y       z     vdW  Elec       q    Type
REMARK                         _______ _______ _______ _____ _____    ______ ____
ROOT
ATOM      1  C   UNL A   1      35.026 -38.065 -29.073  0.00  0.00    +0.165 C 
ENDROOT
BRANCH   1   3
ATOM      2  N   UNL A   1      33.701 -35.964 -29.088  0.00  0.00    -0.302 N 
ATOM      3  C   UNL A   1      34.171 -37.014 -28.348  0.00  0.00    +0.251 C 
ATOM      4  O   UNL A   1      33.914 -37.058 -27.147  0.00  0.00    -0.272 OA
ATOM      5  H   UNL A   1      33.229 -35.259 -28.589  0.00  0.00    +0.000 HD
BRANCH   2   6
ATOM      6  C   UNL A   1      33.817 -35.762 -30.527  0.00  0.00    +0.109 C 
BRANCH   6   7
ATOM      7  C   UNL A   1      34.591 -34.482 -30.830  0.00  0.00    +0.324 C 
ATOM      8  O   UNL A   1      35.622 -34.186 -30.229  0.00  0.00    -0.249 OA
BRANCH   7  10
ATOM      9  C   UNL A   1      33.664 -32.336 -31.520  0.00  0.00    +0.082 C 
ATOM     10  O   UNL A   1      34.095 -33.675 -31.800  0.00  0.00    -0.467 OA
ENDBRANCH   7  10
ENDBRANCH   6   7
ENDBRANCH   2   6
ENDBRANCH   1   3
BRANCH   1  11
ATOM     11  O   UNL A   1      36.242 -38.433 -28.443  0.00  0.00    -0.483 OA
BRANCH  11  12
ATOM     12  C   UNL A   1      37.415 -38.013 -29.005  0.00  0.00    +0.121 A 
ATOM     13  C   UNL A   1      37.265 -37.305 -30.202  0.00  0.00    -0.019 A 
ATOM     14  C   UNL A   1      38.380 -36.826 -30.891  0.00  0.00    -0.048 A 
ATOM     15  C   UNL A   1      39.658 -37.067 -30.387  0.00  0.00    +0.014 A 
ATOM     16  C   UNL A   1      39.820 -37.783 -29.199  0.00  0.00    -0.048 A 
ATOM     17  C   UNL A   1      38.697 -38.256 -28.510  0.00  0.00    -0.019 A 
BRANCH  15  18
ATOM     18  C   UNL A   1      40.848 -36.576 -31.109  0.00  0.00    +0.150 C 
ATOM     19  O   UNL A   1      41.437 -37.257 -31.938  0.00  0.00    -0.296 OA
ENDBRANCH  15  18
ENDBRANCH  11  12
ENDBRANCH   1  11
TORSDOF 7
ENDMDL
MODEL 18
REMARK VINA RESULT:    -4.867     17.182     18.396
REMARK INTER + INTRA:          -7.226
REMARK INTER:                  -6.789
REMARK INTRA:                  -0.438
REMARK UNBOUND:                -0.367
REMARK  Name = cpd228.pdb
REMARK  8 active torsions:
REMARK  status: ('A' for Active; 'I' for Inactive)
REMARK    1  A    between atoms: C_1  and  O_2
REMARK    2  A    between atoms: O_2  and  C_3
REMARK    3  A    between atoms: C_3  and  C_5
REMARK    4  A    between atoms: C_5  and  N_6
REMARK    5  A    between atoms: C_7  and  C_9
REMARK    6  A    between atoms: C_9  and  O_10
REMARK    7  A    between atoms: O_10  and  C_11
REMARK    8  A    between atoms: C_14  and  C_15
REMARK                            x       y       z     vdW  Elec       q    Type
REMARK                         _______ _______ _______ _____ _____    ______ ____
ROOT
ATOM      1  C   UNL A   1      44.424 -19.641 -38.043  0.00  0.00    +0.165 C 
ENDROOT
BRANCH   1   3
ATOM      2  N   UNL A   1      44.978 -20.355 -35.729  0.00  0.00    -0.302 N 
ATOM      3  C   UNL A   1      44.012 -20.248 -36.692  0.00  0.00    +0.251 C 
ATOM      4  O   UNL A   1      42.880 -20.659 -36.450  0.00  0.00    -0.272 OA
ATOM      5  H   UNL A   1      44.715 -20.824 -34.903  0.00  0.00    +0.000 HD
BRANCH   2   6
ATOM      6  C   UNL A   1      46.347 -19.860 -35.777  0.00  0.00    +0.109 C 
BRANCH   6   7
ATOM      7  C   UNL A   1      46.552 -18.745 -34.755  0.00  0.00    +0.324 C 
ATOM      8  O   UNL A   1      47.650 -18.514 -34.253  0.00  0.00    -0.249 OA
BRANCH   7  10
ATOM      9  C   UNL A   1      45.454 -17.161 -33.263  0.00  0.00    +0.082 C 
ATOM     10  O   UNL A   1      45.464 -18.006 -34.421  0.00  0.00    -0.467 OA
ENDBRANCH   7  10
ENDBRANCH   6   7
ENDBRANCH   2   6
ENDBRANCH   1   3
BRANCH   1  11
ATOM     11  O   UNL A   1      44.215 -20.449 -39.189  0.00  0.00    -0.483 OA
BRANCH  11  12
ATOM     12  C   UNL A   1      45.276 -21.152 -39.688  0.00  0.00    +0.121 A 
ATOM     13  C   UNL A   1      45.087 -21.645 -40.984  0.00  0.00    -0.019 A 
ATOM     14  C   UNL A   1      46.083 -22.391 -41.615  0.00  0.00    -0.048 A 
ATOM     15  C   UNL A   1      47.276 -22.656 -40.941  0.00  0.00    +0.014 A 
ATOM     16  C   UNL A   1      47.471 -22.179 -39.643  0.00  0.00    -0.048 A 
ATOM     17  C   UNL A   1      46.469 -21.427 -39.018  0.00  0.00    -0.019 A 
BRANCH  15  18
ATOM     18  C   UNL A   1      48.337 -23.452 -41.590  0.00  0.00    +0.150 C 
ATOM     19  O   UNL A   1      48.089 -24.330 -42.406  0.00  0.00    -0.296 OA
ENDBRANCH  15  18
ENDBRANCH  11  12
ENDBRANCH   1  11
TORSDOF 7
ENDMDL
MODEL 19
REMARK VINA RESULT:    -4.725      1.975      2.725
REMARK INTER + INTRA:          -7.026
REMARK INTER:                  -6.635
REMARK INTRA:                  -0.392
REMARK UNBOUND:                -0.367
REMARK  Name = cpd228.pdb
REMARK  8 active torsions:
REMARK  status: ('A' for Active; 'I' for Inactive)
REMARK    1  A    between atoms: C_1  and  O_2
REMARK    2  A    between atoms: O_2  and  C_3
REMARK    3  A    between atoms: C_3  and  C_5
REMARK    4  A    between atoms: C_5  and  N_6
REMARK    5  A    between atoms: C_7  and  C_9
REMARK    6  A    between atoms: C_9  and  O_10
REMARK    7  A    between atoms: O_10  and  C_11
REMARK    8  A    between atoms: C_14  and  C_15
REMARK                            x       y       z     vdW  Elec       q    Type
REMARK                         _______ _______ _______ _____ _____    ______ ____
ROOT
ATOM      1  C   UNL A   1      34.241 -35.393 -30.159  0.00  0.00    +0.165 C 
ENDROOT
BRANCH   1   3
ATOM      2  N   UNL A   1      31.984 -34.401 -29.847  0.00  0.00    -0.302 N 
ATOM      3  C   UNL A   1      32.912 -35.299 -29.393  0.00  0.00    +0.251 C 
ATOM      4  O   UNL A   1      32.657 -35.963 -28.391  0.00  0.00    -0.272 OA
ATOM      5  H   UNL A   1      31.177 -34.296 -29.293  0.00  0.00    +0.000 HD
BRANCH   2   6
ATOM      6  C   UNL A   1      32.048 -33.583 -31.051  0.00  0.00    +0.109 C 
BRANCH   6   7
ATOM      7  C   UNL A   1      32.525 -32.172 -30.717  0.00  0.00    +0.324 C 
ATOM      8  O   UNL A   1      33.698 -31.929 -30.442  0.00  0.00    -0.249 OA
BRANCH   7  10
ATOM      9  C   UNL A   1      30.195 -31.464 -30.602  0.00  0.00    +0.082 C 
ATOM     10  O   UNL A   1      31.595 -31.184 -30.738  0.00  0.00    -0.467 OA
ENDBRANCH   7  10
ENDBRANCH   6   7
ENDBRANCH   2   6
ENDBRANCH   1   3
BRANCH   1  11
ATOM     11  O   UNL A   1      35.337 -35.953 -29.456  0.00  0.00    -0.483 OA
BRANCH  11  12
ATOM     12  C   UNL A   1      36.547 -36.017 -30.087  0.00  0.00    +0.121 A 
ATOM     13  C   UNL A   1      36.771 -34.998 -31.018  0.00  0.00    -0.019 A 
ATOM     14  C   UNL A   1      37.961 -34.945 -31.745  0.00  0.00    -0.048 A 
ATOM     15  C   UNL A   1      38.932 -35.928 -31.549  0.00  0.00    +0.014 A 
ATOM     16  C   UNL A   1      38.715 -36.956 -30.630  0.00  0.00    -0.048 A 
ATOM     17  C   UNL A   1      37.521 -37.000 -29.901  0.00  0.00    -0.019 A 
BRANCH  15  18
ATOM     18  C   UNL A   1      40.192 -35.893 -32.317  0.00  0.00    +0.150 C 
ATOM     19  O   UNL A   1      40.215 -35.952 -33.540  0.00  0.00    -0.296 OA
ENDBRANCH  15  18
ENDBRANCH  11  12
ENDBRANCH   1  11
TORSDOF 7
ENDMDL
MODEL 20
REMARK VINA RESULT:    -4.682     16.157     17.617
REMARK INTER + INTRA:          -6.965
REMARK INTER:                  -6.411
REMARK INTRA:                  -0.554
REMARK UNBOUND:                -0.367
REMARK  Name = cpd228.pdb
REMARK  8 active torsions:
REMARK  status: ('A' for Active; 'I' for Inactive)
REMARK    1  A    between atoms: C_1  and  O_2
REMARK    2  A    between atoms: O_2  and  C_3
REMARK    3  A    between atoms: C_3  and  C_5
REMARK    4  A    between atoms: C_5  and  N_6
REMARK    5  A    between atoms: C_7  and  C_9
REMARK    6  A    between atoms: C_9  and  O_10
REMARK    7  A    between atoms: O_10  and  C_11
REMARK    8  A    between atoms: C_14  and  C_15
REMARK                            x       y       z     vdW  Elec       q    Type
REMARK                         _______ _______ _______ _____ _____    ______ ____
ROOT
ATOM      1  C   UNL A   1      43.672 -19.311 -38.110  0.00  0.00    +0.165 C 
ENDROOT
BRANCH   1   3
ATOM      2  N   UNL A   1      42.592 -20.624 -36.300  0.00  0.00    -0.302 N 
ATOM      3  C   UNL A   1      43.750 -20.076 -36.780  0.00  0.00    +0.251 C 
ATOM      4  O   UNL A   1      44.781 -20.193 -36.123  0.00  0.00    -0.272 OA
ATOM      5  H   UNL A   1      42.645 -21.036 -35.407  0.00  0.00    +0.000 HD
BRANCH   2   6
ATOM      6  C   UNL A   1      41.289 -20.673 -36.951  0.00  0.00    +0.109 C 
BRANCH   6   7
ATOM      7  C   UNL A   1      41.042 -22.054 -37.555  0.00  0.00    +0.324 C 
ATOM      8  O   UNL A   1      41.228 -23.087 -36.915  0.00  0.00    -0.249 OA
BRANCH   7  10
ATOM      9  C   UNL A   1      41.467 -21.805 -39.942  0.00  0.00    +0.082 C 
ATOM     10  O   UNL A   1      40.601 -22.098 -38.837  0.00  0.00    -0.467 OA
ENDBRANCH   7  10
ENDBRANCH   6   7
ENDBRANCH   2   6
ENDBRANCH   1   3
BRANCH   1  11
ATOM     11  O   UNL A   1      44.890 -19.153 -38.820  0.00  0.00    -0.483 OA
BRANCH  11  12
ATOM     12  C   UNL A   1      45.150 -20.004 -39.857  0.00  0.00    +0.121 A 
ATOM     13  C   UNL A   1      45.722 -21.223 -39.479  0.00  0.00    -0.019 A 
ATOM     14  C   UNL A   1      46.051 -22.184 -40.436  0.00  0.00    -0.048 A 
ATOM     15  C   UNL A   1      45.817 -21.919 -41.786  0.00  0.00    +0.014 A 
ATOM     16  C   UNL A   1      45.258 -20.701 -42.176  0.00  0.00    -0.048 A 
ATOM     17  C   UNL A   1      44.926 -19.744 -41.210  0.00  0.00    -0.019 A 
BRANCH  15  18
ATOM     18  C   UNL A   1      46.168 -22.921 -42.812  0.00  0.00    +0.150 C 
ATOM     19  O   UNL A   1      46.781 -23.946 -42.543  0.00  0.00    -0.296 OA
ENDBRANCH  15  18
ENDBRANCH  11  12
ENDBRANCH   1  11
TORSDOF 7
ENDMDL
