REMARK  Name = cpd228.pdb
REMARK  8 active torsions:
REMARK  status: ('A' for Active; 'I' for Inactive)
REMARK    1  A    between atoms: C_1  and  O_2
REMARK    2  A    between atoms: O_2  and  C_3
REMARK    3  A    between atoms: C_3  and  C_5
REMARK    4  A    between atoms: C_5  and  N_6
REMARK    5  A    between atoms: C_7  and  C_9
REMARK    6  A    between atoms: C_9  and  O_10
REMARK    7  A    between atoms: O_10  and  C_11
REMARK    8  A    between atoms: C_14  and  C_15
REMARK                            x       y       z     vdW  Elec       q    Type
REMARK                         _______ _______ _______ _____ _____    ______ ____
ROOT
ATOM      1  C   UNL A   1       1.729   0.940  -0.597  0.00  0.00    +0.165 C 
ENDROOT
BRANCH   1   3
ATOM      2  N   UNL A   1       1.274   3.333  -1.085  0.00  0.00    -0.302 N 
ATOM      3  C   UNL A   1       0.929   2.031  -1.326  0.00  0.00    +0.251 C 
ATOM      4  O   UNL A   1      -0.009   1.794  -2.083  0.00  0.00    -0.272 OA
ATOM      5  H   UNL A   1       0.696   4.017  -1.494  0.00  0.00    +0.000 HD
BRANCH   2   6
ATOM      6  C   UNL A   1       2.394   3.829  -0.296  0.00  0.00    +0.109 C 
BRANCH   6   7
ATOM      7  C   UNL A   1       2.391   5.355  -0.259  0.00  0.00    +0.324 C 
ATOM      8  O   UNL A   1       1.529   6.019  -0.831  0.00  0.00    -0.249 OA
BRANCH   7  10
ATOM      9  C   UNL A   1       4.420   5.202   1.083  0.00  0.00    +0.082 C 
ATOM     10  O   UNL A   1       3.385   5.958   0.440  0.00  0.00    -0.467 OA
ENDBRANCH   7  10
ENDBRANCH   6   7
ENDBRANCH   2   6
ENDBRANCH   1   3
BRANCH   1  11
ATOM     11  O   UNL A   1       1.498  -0.396  -1.012  0.00  0.00    -0.483 OA
BRANCH  11  12
ATOM     12  C   UNL A   1       0.450  -1.075  -0.457  0.00  0.00    +0.121 A 
ATOM     13  C   UNL A   1       0.492  -2.461  -0.644  0.00  0.00    -0.019 A 
ATOM     14  C   UNL A   1      -0.520  -3.279  -0.140  0.00  0.00    -0.048 A 
ATOM     15  C   UNL A   1      -1.591  -2.706   0.547  0.00  0.00    +0.014 A 
ATOM     16  C   UNL A   1      -1.649  -1.323   0.729  0.00  0.00    -0.048 A 
ATOM     17  C   UNL A   1      -0.628  -0.509   0.225  0.00  0.00    -0.019 A 
BRANCH  15  18
ATOM     18  C   UNL A   1      -2.675  -3.556   1.078  0.00  0.00    +0.150 C 
ATOM     19  O   UNL A   1      -2.658  -4.776   0.978  0.00  0.00    -0.296 OA
ENDBRANCH  15  18
ENDBRANCH  11  12
ENDBRANCH   1  11
TORSDOF 7
