@<TRIPOS>MOLECULE
*****
 18 18 0 0 0
SMALL
GASTEIGER

@<TRIPOS>ATOM
      1 C           3.4641    4.0000    0.0000 C.3     1  UNL1        0.2557
      2 O           2.5981    4.5000    0.0000 O.3     1  UNL1       -0.4432
      3 C           1.7321    4.0000    0.0000 C.2     1  UNL1        0.3395
      4 O           0.8660    4.5000    0.0000 O.2     1  UNL1       -0.2481
      5 C           1.7321    3.0000    0.0000 C.3     1  UNL1        0.2241
      6 N           0.8660    2.5000    0.0000 N.am    1  UNL1       -0.1902
      7 C           0.8660    1.5000    0.0000 C.2     1  UNL1        0.2864
      8 O           0.0000    1.0000    0.0000 O.2     1  UNL1       -0.2693
      9 C           1.7321    1.0000    0.0000 C.3     1  UNL1        0.2911
     10 O           1.7321    0.0000    0.0000 O.3     1  UNL1       -0.4656
     11 C           0.8660   -0.5000    0.0000 C.ar    1  UNL1        0.1393
     12 C           0.8660   -1.5000    0.0000 C.ar    1  UNL1        0.0370
     13 C           0.0000   -2.0000    0.0000 C.ar    1  UNL1        0.0064
     14 C          -0.8660   -1.5000    0.0000 C.ar    1  UNL1        0.0424
     15 C          -1.7321   -2.0000    0.0000 C.2     1  UNL1        0.2342
     16 O          -1.7321   -3.0000    0.0000 O.2     1  UNL1       -0.2831
     17 C          -0.8660   -0.5000    0.0000 C.ar    1  UNL1        0.0064
     18 C          -0.0000   -0.0000    0.0000 C.ar    1  UNL1        0.0370
@<TRIPOS>BOND
     1     1     2    1
     2     2     3    1
     3     3     4    2
     4     3     5    1
     5     5     6    1
     6     6     7   am
     7     7     8    2
     8     7     9    1
     9     9    10    1
    10    10    11    1
    11    11    12   ar
    12    12    13   ar
    13    13    14   ar
    14    14    15    1
    15    15    16    2
    16    14    17   ar
    17    17    18   ar
    18    11    18   ar
