REMARK  Name = cpd35.pdb
REMARK  16 active torsions:
REMARK  status: ('A' for Active; 'I' for Inactive)
REMARK    1  A    between atoms: C_1  and  C_2
REMARK    2  A    between atoms: C_6  and  N_7
REMARK    3  A    between atoms: N_7  and  C_8
REMARK    4  A    between atoms: C_13  and  C_14
REMARK    5  A    between atoms: N_16  and  C_17
REMARK    6  A    between atoms: C_17  and  C_18
REMARK    7  A    between atoms: C_18  and  C_19
REMARK    8  A    between atoms: N_21  and  C_22
REMARK    9  A    between atoms: C_22  and  C_23
REMARK   10  A    between atoms: C_23  and  C_24
REMARK   11  A    between atoms: C_24  and  C_25
REMARK   12  A    between atoms: C_25  and  C_26
REMARK   13  A    between atoms: C_26  and  C_27
REMARK   14  A    between atoms: C_27  and  N_28
REMARK   15  A    between atoms: N_28  and  C_29
REMARK   16  A    between atoms: C_43  and  C_44
REMARK                            x       y       z     vdW  Elec       q    Type
REMARK                         _______ _______ _______ _____ _____    ______ ____
ROOT
ATOM      1  C   UNL A   1       5.689   1.230   0.400  0.00  0.00    +0.215 C 
ATOM      2  O   UNL A   1       5.489   0.021   0.468  0.00  0.00    -0.276 OA
ATOM      3  N   UNL A   1       6.930   1.775   0.137  0.00  0.00    -0.315 N 
ATOM      4  H   UNL A   1       7.034   2.750   0.045  0.00  0.00    +0.000 HD
ENDROOT
BRANCH   1   5
ATOM      5  C   UNL A   1       4.588   2.238   0.628  0.00  0.00    +0.039 C 
BRANCH   5   6
ATOM      6  C   UNL A   1       4.338   3.085  -0.613  0.00  0.00    +0.020 C 
BRANCH   6   9
ATOM      7  C   UNL A   1       1.894   3.262  -0.823  0.00  0.00    +0.246 C 
ATOM      8  O   UNL A   1       1.800   2.137  -1.304  0.00  0.00    -0.270 OA
ATOM      9  N   UNL A   1       3.106   3.847  -0.502  0.00  0.00    -0.311 N 
ATOM     10  H   UNL A   1       3.134   4.783  -0.197  0.00  0.00    +0.000 HD
BRANCH   7  16
ATOM     11  C   UNL A   1      -0.507   3.349  -0.088  0.00  0.00    +0.044 A 
ATOM     12  C   UNL A   1      -1.613   4.118   0.309  0.00  0.00    -0.040 A 
ATOM     13  C   UNL A   1      -1.596   5.512   0.224  0.00  0.00    -0.060 A 
ATOM     14  C   UNL A   1      -0.460   6.171  -0.237  0.00  0.00    -0.061 A 
ATOM     15  C   UNL A   1       0.672   5.436  -0.587  0.00  0.00    -0.048 A 
ATOM     16  C   UNL A   1       0.665   4.035  -0.486  0.00  0.00    +0.058 A 
BRANCH  11  17
ATOM     17  N   UNL A   1      -0.516   1.935   0.064  0.00  0.00    -0.314 N 
ATOM     18  H   UNL A   1       0.354   1.524   0.272  0.00  0.00    +0.000 HD
BRANCH  17  24
ATOM     19  C   UNL A   1      -2.545  -2.511   1.108  0.00  0.00    -0.039 C 
ATOM     20  C   UNL A   1      -2.570  -1.169   0.429  0.00  0.00    -0.046 A 
ATOM     21  C   UNL A   1      -3.641  -0.866  -0.425  0.00  0.00    -0.058 A 
ATOM     22  C   UNL A   1      -3.689   0.349  -1.100  0.00  0.00    -0.060 A 
ATOM     23  C   UNL A   1      -2.670   1.282  -0.925  0.00  0.00    -0.040 A 
ATOM     24  C   UNL A   1      -1.610   1.034  -0.043  0.00  0.00    +0.035 A 
ATOM     25  C   UNL A   1      -1.552  -0.207   0.638  0.00  0.00    -0.026 A 
ATOM     26  C   UNL A   1      -0.374  -0.516   1.530  0.00  0.00    -0.038 C 
ENDBRANCH  17  24
ENDBRANCH  11  17
ENDBRANCH   7  16
ENDBRANCH   6   9
ENDBRANCH   5   6
ENDBRANCH   1   5
BRANCH   3  27
ATOM     27  C   UNL A   1       8.078   0.902  -0.003  0.00  0.00    +0.012 C 
BRANCH  27  28
ATOM     28  C   UNL A   1       9.241   1.597  -0.706  0.00  0.00    -0.037 C 
BRANCH  28  29
ATOM     29  C   UNL A   1      10.391   0.614  -0.941  0.00  0.00    -0.052 C 
BRANCH  29  30
ATOM     30  C   UNL A   1      11.592   1.250  -1.648  0.00  0.00    -0.052 C 
BRANCH  30  31
ATOM     31  C   UNL A   1      12.791   1.501  -0.727  0.00  0.00    -0.037 C 
BRANCH  31  32
ATOM     32  C   UNL A   1      12.569   2.637   0.271  0.00  0.00    +0.009 C 
BRANCH  32  33
ATOM     33  N   UNL A   1      13.688   2.786   1.216  0.00  0.00    -0.343 N 
ATOM     34  H   UNL A   1      13.647   2.450   2.141  0.00  0.00    +0.000 HD
BRANCH  33  35
ATOM     35  C   UNL A   1      14.831   3.450   0.695  0.00  0.00    +0.041 A 
ATOM     36  C   UNL A   1      14.823   4.858   0.592  0.00  0.00    -0.005 A 
ATOM     37  C   UNL A   1      15.932   5.474   0.008  0.00  0.00    +0.047 A 
ATOM     38  N   UNL A   1      16.987   4.787  -0.487  0.00  0.00    -0.251 NA
ATOM     39  C   UNL A   1      17.006   3.454  -0.373  0.00  0.00    +0.073 A 
ATOM     40  C   UNL A   1      18.119   2.785  -0.865  0.00  0.00    -0.036 A 
ATOM     41  C   UNL A   1      18.244   1.398  -0.791  0.00  0.00    -0.060 A 
ATOM     42  C   UNL A   1      17.232   0.653  -0.209  0.00  0.00    -0.061 A 
ATOM     43  C   UNL A   1      16.103   1.304   0.289  0.00  0.00    -0.051 A 
ATOM     44  C   UNL A   1      15.958   2.716   0.215  0.00  0.00    +0.021 A 
ATOM     45  C   UNL A   1      16.012   6.969  -0.165  0.00  0.00    -0.010 C 
ATOM     46  C   UNL A   1      15.116   7.736   0.800  0.00  0.00    -0.047 C 
ATOM     47  C   UNL A   1      13.714   7.148   0.778  0.00  0.00    -0.049 C 
ATOM     48  C   UNL A   1      13.739   5.691   1.239  0.00  0.00    -0.024 C 
ENDBRANCH  33  35
ENDBRANCH  32  33
ENDBRANCH  31  32
ENDBRANCH  30  31
ENDBRANCH  29  30
ENDBRANCH  28  29
ENDBRANCH  27  28
ENDBRANCH   3  27
TORSDOF 14
