MODEL 1
REMARK VINA RESULT:    -6.726      0.000      0.000
REMARK INTER + INTRA:         -18.213
REMARK INTER:                 -12.231
REMARK INTRA:                  -5.982
REMARK UNBOUND:                -5.982
REMARK  Name = cpd35.pdb
REMARK  16 active torsions:
REMARK  status: ('A' for Active; 'I' for Inactive)
REMARK    1  A    between atoms: C_1  and  C_2
REMARK    2  A    between atoms: C_6  and  N_7
REMARK    3  A    between atoms: N_7  and  C_8
REMARK    4  A    between atoms: C_13  and  C_14
REMARK    5  A    between atoms: N_16  and  C_17
REMARK    6  A    between atoms: C_17  and  C_18
REMARK    7  A    between atoms: C_18  and  C_19
REMARK    8  A    between atoms: N_21  and  C_22
REMARK    9  A    between atoms: C_22  and  C_23
REMARK   10  A    between atoms: C_23  and  C_24
REMARK   11  A    between atoms: C_24  and  C_25
REMARK   12  A    between atoms: C_25  and  C_26
REMARK   13  A    between atoms: C_26  and  C_27
REMARK   14  A    between atoms: C_27  and  N_28
REMARK   15  A    between atoms: N_28  and  C_29
REMARK   16  A    between atoms: C_43  and  C_44
REMARK                            x       y       z     vdW  Elec       q    Type
REMARK                         _______ _______ _______ _____ _____    ______ ____
ROOT
ATOM      1  C   UNL A   1      45.306 -19.034 -34.590  0.00  0.00    +0.215 C 
ATOM      2  O   UNL A   1      45.484 -20.155 -34.123  0.00  0.00    -0.276 OA
ATOM      3  N   UNL A   1      44.057 -18.460 -34.714  0.00  0.00    -0.315 N 
ATOM      4  H   UNL A   1      43.966 -17.538 -35.051  0.00  0.00    +0.000 HD
ENDROOT
BRANCH   1   5
ATOM      5  C   UNL A   1      46.448 -18.188 -35.099  0.00  0.00    +0.039 C 
BRANCH   5   6
ATOM      6  C   UNL A   1      47.341 -18.968 -36.055  0.00  0.00    +0.020 C 
BRANCH   6   9
ATOM      7  C   UNL A   1      46.602 -19.101 -38.397  0.00  0.00    +0.246 C 
ATOM      8  O   UNL A   1      47.180 -18.060 -38.694  0.00  0.00    -0.270 OA
ATOM      9  N   UNL A   1      46.570 -19.605 -37.108  0.00  0.00    -0.311 N 
ATOM     10  H   UNL A   1      46.023 -20.398 -36.905  0.00  0.00    +0.000 HD
BRANCH   7  16
ATOM     11  C   UNL A   1      45.011 -19.334 -40.327  0.00  0.00    +0.044 A 
ATOM     12  C   UNL A   1      44.496 -20.122 -41.369  0.00  0.00    -0.040 A 
ATOM     13  C   UNL A   1      44.828 -21.473 -41.489  0.00  0.00    -0.060 A 
ATOM     14  C   UNL A   1      45.705 -22.061 -40.583  0.00  0.00    -0.061 A 
ATOM     15  C   UNL A   1      46.274 -21.290 -39.570  0.00  0.00    -0.048 A 
ATOM     16  C   UNL A   1      45.956 -19.926 -39.457  0.00  0.00    +0.058 A 
BRANCH  11  17
ATOM     17  N   UNL A   1      44.713 -17.945 -40.255  0.00  0.00    -0.314 N 
ATOM     18  H   UNL A   1      45.384 -17.345 -40.654  0.00  0.00    +0.000 HD
BRANCH  17  24
ATOM     19  C   UNL A   1      41.159 -14.443 -40.533  0.00  0.00    -0.039 C 
ATOM     20  C   UNL A   1      41.877 -15.548 -39.808  0.00  0.00    -0.046 A 
ATOM     21  C   UNL A   1      41.490 -15.856 -38.495  0.00  0.00    -0.058 A 
ATOM     22  C   UNL A   1      42.148 -16.847 -37.775  0.00  0.00    -0.060 A 
ATOM     23  C   UNL A   1      43.198 -17.551 -38.360  0.00  0.00    -0.040 A 
ATOM     24  C   UNL A   1      43.580 -17.304 -39.685  0.00  0.00    +0.035 A 
ATOM     25  C   UNL A   1      42.919 -16.288 -40.418  0.00  0.00    -0.026 A 
ATOM     26  C   UNL A   1      43.375 -15.961 -41.820  0.00  0.00    -0.038 C 
ENDBRANCH  17  24
ENDBRANCH  11  17
ENDBRANCH   7  16
ENDBRANCH   6   9
ENDBRANCH   5   6
ENDBRANCH   1   5
BRANCH   3  27
ATOM     27  C   UNL A   1      42.880 -19.221 -34.346  0.00  0.00    +0.012 C 
BRANCH  27  28
ATOM     28  C   UNL A   1      42.082 -19.665 -35.569  0.00  0.00    -0.037 C 
BRANCH  28  29
ATOM     29  C   UNL A   1      42.534 -21.053 -36.030  0.00  0.00    -0.052 C 
BRANCH  29  30
ATOM     30  C   UNL A   1      43.159 -21.049 -37.429  0.00  0.00    -0.052 C 
BRANCH  30  31
ATOM     31  C   UNL A   1      42.137 -21.173 -38.564  0.00  0.00    -0.037 C 
BRANCH  31  32
ATOM     32  C   UNL A   1      41.288 -22.442 -38.488  0.00  0.00    +0.009 C 
BRANCH  32  33
ATOM     33  N   UNL A   1      39.853 -22.175 -38.683  0.00  0.00    -0.343 N 
ATOM     34  H   UNL A   1      39.339 -22.565 -39.427  0.00  0.00    +0.000 HD
BRANCH  33  35
ATOM     35  C   UNL A   1      39.266 -21.314 -37.717  0.00  0.00    +0.041 A 
ATOM     36  C   UNL A   1      38.990 -19.974 -38.066  0.00  0.00    -0.005 A 
ATOM     37  C   UNL A   1      38.481 -19.135 -37.073  0.00  0.00    +0.047 A 
ATOM     38  N   UNL A   1      38.273 -19.536 -35.798  0.00  0.00    -0.251 NA
ATOM     39  C   UNL A   1      38.514 -20.810 -35.470  0.00  0.00    +0.073 A 
ATOM     40  C   UNL A   1      38.260 -21.194 -34.159  0.00  0.00    -0.036 A 
ATOM     41  C   UNL A   1      38.470 -22.498 -33.713  0.00  0.00    -0.060 A 
ATOM     42  C   UNL A   1      38.947 -23.452 -34.597  0.00  0.00    -0.061 A 
ATOM     43  C   UNL A   1      39.212 -23.088 -35.918  0.00  0.00    -0.051 A 
ATOM     44  C   UNL A   1      39.010 -21.761 -36.386  0.00  0.00    +0.021 A 
ATOM     45  C   UNL A   1      38.172 -17.684 -37.339  0.00  0.00    -0.010 C 
ATOM     46  C   UNL A   1      37.929 -17.380 -38.812  0.00  0.00    -0.047 C 
ATOM     47  C   UNL A   1      39.048 -17.977 -39.652  0.00  0.00    -0.049 C 
ATOM     48  C   UNL A   1      39.078 -19.497 -39.499  0.00  0.00    -0.024 C 
ENDBRANCH  33  35
ENDBRANCH  32  33
ENDBRANCH  31  32
ENDBRANCH  30  31
ENDBRANCH  29  30
ENDBRANCH  28  29
ENDBRANCH  27  28
ENDBRANCH   3  27
TORSDOF 14
ENDMDL
MODEL 2
REMARK VINA RESULT:    -6.699      0.272      2.773
REMARK INTER + INTRA:         -18.164
REMARK INTER:                 -12.554
REMARK INTRA:                  -5.610
REMARK UNBOUND:                -5.982
REMARK  Name = cpd35.pdb
REMARK  16 active torsions:
REMARK  status: ('A' for Active; 'I' for Inactive)
REMARK    1  A    between atoms: C_1  and  C_2
REMARK    2  A    between atoms: C_6  and  N_7
REMARK    3  A    between atoms: N_7  and  C_8
REMARK    4  A    between atoms: C_13  and  C_14
REMARK    5  A    between atoms: N_16  and  C_17
REMARK    6  A    between atoms: C_17  and  C_18
REMARK    7  A    between atoms: C_18  and  C_19
REMARK    8  A    between atoms: N_21  and  C_22
REMARK    9  A    between atoms: C_22  and  C_23
REMARK   10  A    between atoms: C_23  and  C_24
REMARK   11  A    between atoms: C_24  and  C_25
REMARK   12  A    between atoms: C_25  and  C_26
REMARK   13  A    between atoms: C_26  and  C_27
REMARK   14  A    between atoms: C_27  and  N_28
REMARK   15  A    between atoms: N_28  and  C_29
REMARK   16  A    between atoms: C_43  and  C_44
REMARK                            x       y       z     vdW  Elec       q    Type
REMARK                         _______ _______ _______ _____ _____    ______ ____
ROOT
ATOM      1  C   UNL A   1      45.613 -19.224 -34.638  0.00  0.00    +0.215 C 
ATOM      2  O   UNL A   1      45.792 -20.384 -34.281  0.00  0.00    -0.276 OA
ATOM      3  N   UNL A   1      44.368 -18.628 -34.665  0.00  0.00    -0.315 N 
ATOM      4  H   UNL A   1      44.278 -17.679 -34.914  0.00  0.00    +0.000 HD
ENDROOT
BRANCH   1   5
ATOM      5  C   UNL A   1      46.747 -18.347 -35.111  0.00  0.00    +0.039 C 
BRANCH   5   6
ATOM      6  C   UNL A   1      47.658 -19.085 -36.083  0.00  0.00    +0.020 C 
BRANCH   6   9
ATOM      7  C   UNL A   1      46.786 -19.189 -38.380  0.00  0.00    +0.246 C 
ATOM      8  O   UNL A   1      47.216 -18.072 -38.651  0.00  0.00    -0.270 OA
ATOM      9  N   UNL A   1      46.899 -19.757 -37.124  0.00  0.00    -0.311 N 
ATOM     10  H   UNL A   1      46.464 -20.620 -36.934  0.00  0.00    +0.000 HD
BRANCH   7  16
ATOM     11  C   UNL A   1      45.232 -19.460 -40.336  0.00  0.00    +0.044 A 
ATOM     12  C   UNL A   1      44.749 -20.264 -41.381  0.00  0.00    -0.040 A 
ATOM     13  C   UNL A   1      45.106 -21.610 -41.487  0.00  0.00    -0.060 A 
ATOM     14  C   UNL A   1      45.977 -22.178 -40.561  0.00  0.00    -0.061 A 
ATOM     15  C   UNL A   1      46.515 -21.390 -39.544  0.00  0.00    -0.048 A 
ATOM     16  C   UNL A   1      46.172 -20.031 -39.445  0.00  0.00    +0.058 A 
BRANCH  11  17
ATOM     17  N   UNL A   1      44.911 -18.076 -40.278  0.00  0.00    -0.314 N 
ATOM     18  H   UNL A   1      45.552 -17.472 -40.717  0.00  0.00    +0.000 HD
BRANCH  17  24
ATOM     19  C   UNL A   1      41.191 -14.749 -40.534  0.00  0.00    -0.039 C 
ATOM     20  C   UNL A   1      42.004 -15.773 -39.792  0.00  0.00    -0.046 A 
ATOM     21  C   UNL A   1      41.718 -16.009 -38.438  0.00  0.00    -0.058 A 
ATOM     22  C   UNL A   1      42.466 -16.922 -37.703  0.00  0.00    -0.060 A 
ATOM     23  C   UNL A   1      43.506 -17.619 -38.313  0.00  0.00    -0.040 A 
ATOM     24  C   UNL A   1      43.789 -17.446 -39.674  0.00  0.00    +0.035 A 
ATOM     25  C   UNL A   1      43.036 -16.509 -40.424  0.00  0.00    -0.026 A 
ATOM     26  C   UNL A   1      43.384 -16.257 -41.871  0.00  0.00    -0.038 C 
ENDBRANCH  17  24
ENDBRANCH  11  17
ENDBRANCH   7  16
ENDBRANCH   6   9
ENDBRANCH   5   6
ENDBRANCH   1   5
BRANCH   3  27
ATOM     27  C   UNL A   1      43.195 -19.407 -34.323  0.00  0.00    +0.012 C 
BRANCH  27  28
ATOM     28  C   UNL A   1      42.315 -19.677 -35.541  0.00  0.00    -0.037 C 
BRANCH  28  29
ATOM     29  C   UNL A   1      42.651 -21.039 -36.155  0.00  0.00    -0.052 C 
BRANCH  29  30
ATOM     30  C   UNL A   1      43.186 -20.939 -37.587  0.00  0.00    -0.052 C 
BRANCH  30  31
ATOM     31  C   UNL A   1      42.102 -21.063 -38.663  0.00  0.00    -0.037 C 
BRANCH  31  32
ATOM     32  C   UNL A   1      41.263 -22.334 -38.542  0.00  0.00    +0.009 C 
BRANCH  32  33
ATOM     33  N   UNL A   1      39.821 -22.075 -38.688  0.00  0.00    -0.343 N 
ATOM     34  H   UNL A   1      39.275 -22.501 -39.388  0.00  0.00    +0.000 HD
BRANCH  33  35
ATOM     35  C   UNL A   1      39.275 -21.164 -37.744  0.00  0.00    +0.041 A 
ATOM     36  C   UNL A   1      38.970 -21.620 -36.443  0.00  0.00    -0.005 A 
ATOM     37  C   UNL A   1      38.367 -20.719 -35.562  0.00  0.00    +0.047 A 
ATOM     38  N   UNL A   1      38.036 -19.453 -35.907  0.00  0.00    -0.251 NA
ATOM     39  C   UNL A   1      38.342 -19.013 -37.133  0.00  0.00    +0.073 A 
ATOM     40  C   UNL A   1      38.015 -17.699 -37.441  0.00  0.00    -0.036 A 
ATOM     41  C   UNL A   1      38.295 -17.137 -38.686  0.00  0.00    -0.060 A 
ATOM     42  C   UNL A   1      38.920 -17.904 -39.655  0.00  0.00    -0.061 A 
ATOM     43  C   UNL A   1      39.254 -19.228 -39.368  0.00  0.00    -0.051 A 
ATOM     44  C   UNL A   1      38.970 -19.817 -38.106  0.00  0.00    +0.021 A 
ATOM     45  C   UNL A   1      37.986 -21.113 -34.159  0.00  0.00    -0.010 C 
ATOM     46  C   UNL A   1      38.778 -22.303 -33.631  0.00  0.00    -0.047 C 
ATOM     47  C   UNL A   1      38.762 -23.427 -34.654  0.00  0.00    -0.049 C 
ATOM     48  C   UNL A   1      39.428 -22.976 -35.953  0.00  0.00    -0.024 C 
ENDBRANCH  33  35
ENDBRANCH  32  33
ENDBRANCH  31  32
ENDBRANCH  30  31
ENDBRANCH  29  30
ENDBRANCH  28  29
ENDBRANCH  27  28
ENDBRANCH   3  27
TORSDOF 14
ENDMDL
MODEL 3
REMARK VINA RESULT:    -6.514      1.905      5.618
REMARK INTER + INTRA:         -17.827
REMARK INTER:                 -13.018
REMARK INTRA:                  -4.809
REMARK UNBOUND:                -5.982
REMARK  Name = cpd35.pdb
REMARK  16 active torsions:
REMARK  status: ('A' for Active; 'I' for Inactive)
REMARK    1  A    between atoms: C_1  and  C_2
REMARK    2  A    between atoms: C_6  and  N_7
REMARK    3  A    between atoms: N_7  and  C_8
REMARK    4  A    between atoms: C_13  and  C_14
REMARK    5  A    between atoms: N_16  and  C_17
REMARK    6  A    between atoms: C_17  and  C_18
REMARK    7  A    between atoms: C_18  and  C_19
REMARK    8  A    between atoms: N_21  and  C_22
REMARK    9  A    between atoms: C_22  and  C_23
REMARK   10  A    between atoms: C_23  and  C_24
REMARK   11  A    between atoms: C_24  and  C_25
REMARK   12  A    between atoms: C_25  and  C_26
REMARK   13  A    between atoms: C_26  and  C_27
REMARK   14  A    between atoms: C_27  and  N_28
REMARK   15  A    between atoms: N_28  and  C_29
REMARK   16  A    between atoms: C_43  and  C_44
REMARK                            x       y       z     vdW  Elec       q    Type
REMARK                         _______ _______ _______ _____ _____    ______ ____
ROOT
ATOM      1  C   UNL A   1      44.577 -18.225 -33.699  0.00  0.00    +0.215 C 
ATOM      2  O   UNL A   1      43.974 -17.904 -32.679  0.00  0.00    -0.276 OA
ATOM      3  N   UNL A   1      44.189 -19.278 -34.504  0.00  0.00    -0.315 N 
ATOM      4  H   UNL A   1      44.675 -19.470 -35.339  0.00  0.00    +0.000 HD
ENDROOT
BRANCH   1   5
ATOM      5  C   UNL A   1      45.824 -17.506 -34.153  0.00  0.00    +0.039 C 
BRANCH   5   6
ATOM      6  C   UNL A   1      46.766 -18.437 -34.906  0.00  0.00    +0.020 C 
BRANCH   6   9
ATOM      7  C   UNL A   1      46.379 -18.303 -37.331  0.00  0.00    +0.246 C 
ATOM      8  O   UNL A   1      45.509 -19.168 -37.294  0.00  0.00    -0.270 OA
ATOM      9  N   UNL A   1      47.102 -17.911 -36.218  0.00  0.00    -0.311 N 
ATOM     10  H   UNL A   1      47.846 -17.274 -36.316  0.00  0.00    +0.000 HD
BRANCH   7  16
ATOM     11  C   UNL A   1      46.993 -18.287 -39.768  0.00  0.00    +0.044 A 
ATOM     12  C   UNL A   1      47.147 -17.563 -40.961  0.00  0.00    -0.040 A 
ATOM     13  C   UNL A   1      47.057 -16.169 -40.981  0.00  0.00    -0.060 A 
ATOM     14  C   UNL A   1      46.786 -15.468 -39.810  0.00  0.00    -0.061 A 
ATOM     15  C   UNL A   1      46.575 -16.164 -38.620  0.00  0.00    -0.048 A 
ATOM     16  C   UNL A   1      46.647 -17.567 -38.599  0.00  0.00    +0.058 A 
BRANCH  11  17
ATOM     17  N   UNL A   1      47.024 -19.708 -39.774  0.00  0.00    -0.314 N 
ATOM     18  H   UNL A   1      47.506 -20.127 -39.024  0.00  0.00    +0.000 HD
BRANCH  17  24
ATOM     19  C   UNL A   1      47.299 -23.979 -42.354  0.00  0.00    -0.039 C 
ATOM     20  C   UNL A   1      46.628 -22.677 -42.014  0.00  0.00    -0.046 A 
ATOM     21  C   UNL A   1      45.488 -22.297 -42.738  0.00  0.00    -0.058 A 
ATOM     22  C   UNL A   1      44.854 -21.086 -42.481  0.00  0.00    -0.060 A 
ATOM     23  C   UNL A   1      45.347 -20.240 -41.491  0.00  0.00    -0.040 A 
ATOM     24  C   UNL A   1      46.454 -20.608 -40.715  0.00  0.00    +0.035 A 
ATOM     25  C   UNL A   1      47.109 -21.836 -40.981  0.00  0.00    -0.026 A 
ATOM     26  C   UNL A   1      48.349 -22.206 -40.204  0.00  0.00    -0.038 C 
ENDBRANCH  17  24
ENDBRANCH  11  17
ENDBRANCH   7  16
ENDBRANCH   6   9
ENDBRANCH   5   6
ENDBRANCH   1   5
BRANCH   3  27
ATOM     27  C   UNL A   1      43.060 -20.099 -34.111  0.00  0.00    +0.012 C 
BRANCH  27  28
ATOM     28  C   UNL A   1      41.925 -20.032 -35.129  0.00  0.00    -0.037 C 
BRANCH  28  29
ATOM     29  C   UNL A   1      40.956 -18.900 -34.779  0.00  0.00    -0.052 C 
BRANCH  29  30
ATOM     30  C   UNL A   1      39.493 -19.248 -35.068  0.00  0.00    -0.052 C 
BRANCH  30  31
ATOM     31  C   UNL A   1      38.688 -18.092 -35.674  0.00  0.00    -0.037 C 
BRANCH  31  32
ATOM     32  C   UNL A   1      39.399 -17.393 -36.832  0.00  0.00    +0.009 C 
BRANCH  32  33
ATOM     33  N   UNL A   1      39.246 -18.115 -38.107  0.00  0.00    -0.343 N 
ATOM     34  H   UNL A   1      38.365 -18.321 -38.495  0.00  0.00    +0.000 HD
BRANCH  33  35
ATOM     35  C   UNL A   1      40.464 -18.491 -38.734  0.00  0.00    +0.041 A 
ATOM     36  C   UNL A   1      40.850 -19.849 -38.731  0.00  0.00    -0.005 A 
ATOM     37  C   UNL A   1      42.087 -20.175 -39.291  0.00  0.00    +0.047 A 
ATOM     38  N   UNL A   1      42.936 -19.254 -39.802  0.00  0.00    -0.251 NA
ATOM     39  C   UNL A   1      42.564 -17.969 -39.824  0.00  0.00    +0.073 A 
ATOM     40  C   UNL A   1      43.448 -17.056 -40.384  0.00  0.00    -0.036 A 
ATOM     41  C   UNL A   1      43.157 -15.695 -40.464  0.00  0.00    -0.060 A 
ATOM     42  C   UNL A   1      41.950 -15.226 -39.974  0.00  0.00    -0.061 A 
ATOM     43  C   UNL A   1      41.048 -16.125 -39.404  0.00  0.00    -0.051 A 
ATOM     44  C   UNL A   1      41.333 -17.514 -39.309  0.00  0.00    +0.021 A 
ATOM     45  C   UNL A   1      42.598 -21.593 -39.319  0.00  0.00    -0.010 C 
ATOM     46  C   UNL A   1      41.491 -22.635 -39.222  0.00  0.00    -0.047 C 
ATOM     47  C   UNL A   1      40.565 -22.295 -38.064  0.00  0.00    -0.049 C 
ATOM     48  C   UNL A   1      39.897 -20.940 -38.295  0.00  0.00    -0.024 C 
ENDBRANCH  33  35
ENDBRANCH  32  33
ENDBRANCH  31  32
ENDBRANCH  30  31
ENDBRANCH  29  30
ENDBRANCH  28  29
ENDBRANCH  27  28
ENDBRANCH   3  27
TORSDOF 14
ENDMDL
MODEL 4
REMARK VINA RESULT:    -6.477     17.612     21.678
REMARK INTER + INTRA:         -17.760
REMARK INTER:                 -13.064
REMARK INTRA:                  -4.696
REMARK UNBOUND:                -5.982
REMARK  Name = cpd35.pdb
REMARK  16 active torsions:
REMARK  status: ('A' for Active; 'I' for Inactive)
REMARK    1  A    between atoms: C_1  and  C_2
REMARK    2  A    between atoms: C_6  and  N_7
REMARK    3  A    between atoms: N_7  and  C_8
REMARK    4  A    between atoms: C_13  and  C_14
REMARK    5  A    between atoms: N_16  and  C_17
REMARK    6  A    between atoms: C_17  and  C_18
REMARK    7  A    between atoms: C_18  and  C_19
REMARK    8  A    between atoms: N_21  and  C_22
REMARK    9  A    between atoms: C_22  and  C_23
REMARK   10  A    between atoms: C_23  and  C_24
REMARK   11  A    between atoms: C_24  and  C_25
REMARK   12  A    between atoms: C_25  and  C_26
REMARK   13  A    between atoms: C_26  and  C_27
REMARK   14  A    between atoms: C_27  and  N_28
REMARK   15  A    between atoms: N_28  and  C_29
REMARK   16  A    between atoms: C_43  and  C_44
REMARK                            x       y       z     vdW  Elec       q    Type
REMARK                         _______ _______ _______ _____ _____    ______ ____
ROOT
ATOM      1  C   UNL A   1      32.402 -40.315 -31.716  0.00  0.00    +0.215 C 
ATOM      2  O   UNL A   1      31.222 -40.153 -31.421  0.00  0.00    -0.276 OA
ATOM      3  N   UNL A   1      33.225 -39.284 -32.125  0.00  0.00    -0.315 N 
ATOM      4  H   UNL A   1      34.178 -39.453 -32.306  0.00  0.00    +0.000 HD
ENDROOT
BRANCH   1   5
ATOM      5  C   UNL A   1      33.057 -41.675 -31.684  0.00  0.00    +0.039 C 
BRANCH   5   6
ATOM      6  C   UNL A   1      33.194 -42.197 -30.259  0.00  0.00    +0.020 C 
BRANCH   6   9
ATOM      7  C   UNL A   1      34.452 -40.791 -28.682  0.00  0.00    +0.246 C 
ATOM      8  O   UNL A   1      35.478 -41.447 -28.833  0.00  0.00    -0.270 OA
ATOM      9  N   UNL A   1      33.254 -41.113 -29.295  0.00  0.00    -0.311 N 
ATOM     10  H   UNL A   1      32.439 -40.605 -29.077  0.00  0.00    +0.000 HD
BRANCH   7  16
ATOM     11  C   UNL A   1      35.513 -38.599 -28.065  0.00  0.00    +0.044 A 
ATOM     12  C   UNL A   1      35.447 -37.395 -27.345  0.00  0.00    -0.040 A 
ATOM     13  C   UNL A   1      34.449 -37.171 -26.395  0.00  0.00    -0.060 A 
ATOM     14  C   UNL A   1      33.475 -38.138 -26.161  0.00  0.00    -0.061 A 
ATOM     15  C   UNL A   1      33.484 -39.320 -26.900  0.00  0.00    -0.048 A 
ATOM     16  C   UNL A   1      34.476 -39.542 -27.869  0.00  0.00    +0.058 A 
BRANCH  11  17
ATOM     17  N   UNL A   1      36.498 -38.787 -29.073  0.00  0.00    -0.314 N 
ATOM     18  H   UNL A   1      36.198 -39.274 -29.875  0.00  0.00    +0.000 HD
BRANCH  17  24
ATOM     19  C   UNL A   1      40.176 -36.165 -31.212  0.00  0.00    -0.039 C 
ATOM     20  C   UNL A   1      39.662 -37.123 -30.172  0.00  0.00    -0.046 A 
ATOM     21  C   UNL A   1      40.576 -37.702 -29.280  0.00  0.00    -0.058 A 
ATOM     22  C   UNL A   1      40.151 -38.618 -28.323  0.00  0.00    -0.060 A 
ATOM     23  C   UNL A   1      38.804 -38.962 -28.241  0.00  0.00    -0.040 A 
ATOM     24  C   UNL A   1      37.856 -38.367 -29.083  0.00  0.00    +0.035 A 
ATOM     25  C   UNL A   1      38.286 -37.442 -30.065  0.00  0.00    -0.026 A 
ATOM     26  C   UNL A   1      37.284 -36.854 -31.029  0.00  0.00    -0.038 C 
ENDBRANCH  17  24
ENDBRANCH  11  17
ENDBRANCH   7  16
ENDBRANCH   6   9
ENDBRANCH   5   6
ENDBRANCH   1   5
BRANCH   3  27
ATOM     27  C   UNL A   1      32.676 -37.953 -32.285  0.00  0.00    +0.012 C 
BRANCH  27  28
ATOM     28  C   UNL A   1      33.359 -36.940 -31.370  0.00  0.00    -0.037 C 
BRANCH  28  29
ATOM     29  C   UNL A   1      32.696 -36.930 -29.990  0.00  0.00    -0.052 C 
BRANCH  29  30
ATOM     30  C   UNL A   1      31.173 -36.785 -30.054  0.00  0.00    -0.052 C 
BRANCH  30  31
ATOM     31  C   UNL A   1      30.582 -35.947 -28.915  0.00  0.00    -0.037 C 
BRANCH  31  32
ATOM     32  C   UNL A   1      31.628 -35.437 -27.924  0.00  0.00    +0.009 C 
BRANCH  32  33
ATOM     33  N   UNL A   1      31.567 -33.978 -27.738  0.00  0.00    -0.343 N 
ATOM     34  H   UNL A   1      31.382 -33.564 -26.864  0.00  0.00    +0.000 HD
BRANCH  33  35
ATOM     35  C   UNL A   1      31.795 -33.212 -28.913  0.00  0.00    +0.041 A 
ATOM     36  C   UNL A   1      30.739 -32.448 -29.454  0.00  0.00    -0.005 A 
ATOM     37  C   UNL A   1      30.975 -31.765 -30.649  0.00  0.00    +0.047 A 
ATOM     38  N   UNL A   1      32.148 -31.830 -31.321  0.00  0.00    -0.251 NA
ATOM     39  C   UNL A   1      33.157 -32.538 -30.801  0.00  0.00    +0.073 A 
ATOM     40  C   UNL A   1      34.355 -32.557 -31.503  0.00  0.00    -0.036 A 
ATOM     41  C   UNL A   1      35.471 -33.257 -31.047  0.00  0.00    -0.060 A 
ATOM     42  C   UNL A   1      35.395 -33.960 -29.857  0.00  0.00    -0.061 A 
ATOM     43  C   UNL A   1      34.200 -33.958 -29.136  0.00  0.00    -0.051 A 
ATOM     44  C   UNL A   1      33.052 -33.254 -29.591  0.00  0.00    +0.021 A 
ATOM     45  C   UNL A   1      29.907 -30.937 -31.316  0.00  0.00    -0.010 C 
ATOM     46  C   UNL A   1      28.820 -30.469 -30.356  0.00  0.00    -0.047 C 
ATOM     47  C   UNL A   1      28.319 -31.645 -29.534  0.00  0.00    -0.049 C 
ATOM     48  C   UNL A   1      29.452 -32.229 -28.691  0.00  0.00    -0.024 C 
ENDBRANCH  33  35
ENDBRANCH  32  33
ENDBRANCH  31  32
ENDBRANCH  30  31
ENDBRANCH  29  30
ENDBRANCH  28  29
ENDBRANCH  27  28
ENDBRANCH   3  27
TORSDOF 14
ENDMDL
MODEL 5
REMARK VINA RESULT:    -6.250      2.464      6.211
REMARK INTER + INTRA:         -17.347
REMARK INTER:                 -11.814
REMARK INTRA:                  -5.533
REMARK UNBOUND:                -5.982
REMARK  Name = cpd35.pdb
REMARK  16 active torsions:
REMARK  status: ('A' for Active; 'I' for Inactive)
REMARK    1  A    between atoms: C_1  and  C_2
REMARK    2  A    between atoms: C_6  and  N_7
REMARK    3  A    between atoms: N_7  and  C_8
REMARK    4  A    between atoms: C_13  and  C_14
REMARK    5  A    between atoms: N_16  and  C_17
REMARK    6  A    between atoms: C_17  and  C_18
REMARK    7  A    between atoms: C_18  and  C_19
REMARK    8  A    between atoms: N_21  and  C_22
REMARK    9  A    between atoms: C_22  and  C_23
REMARK   10  A    between atoms: C_23  and  C_24
REMARK   11  A    between atoms: C_24  and  C_25
REMARK   12  A    between atoms: C_25  and  C_26
REMARK   13  A    between atoms: C_26  and  C_27
REMARK   14  A    between atoms: C_27  and  N_28
REMARK   15  A    between atoms: N_28  and  C_29
REMARK   16  A    between atoms: C_43  and  C_44
REMARK                            x       y       z     vdW  Elec       q    Type
REMARK                         _______ _______ _______ _____ _____    ______ ____
ROOT
ATOM      1  C   UNL A   1      40.970 -18.778 -33.804  0.00  0.00    +0.215 C 
ATOM      2  O   UNL A   1      40.850 -17.573 -34.008  0.00  0.00    -0.276 OA
ATOM      3  N   UNL A   1      40.249 -19.734 -34.490  0.00  0.00    -0.315 N 
ATOM      4  H   UNL A   1      40.413 -20.691 -34.326  0.00  0.00    +0.000 HD
ENDROOT
BRANCH   1   5
ATOM      5  C   UNL A   1      41.908 -19.322 -32.753  0.00  0.00    +0.039 C 
BRANCH   5   6
ATOM      6  C   UNL A   1      42.690 -20.524 -33.269  0.00  0.00    +0.020 C 
BRANCH   6   9
ATOM      7  C   UNL A   1      43.878 -20.105 -35.381  0.00  0.00    +0.246 C 
ATOM      8  O   UNL A   1      42.941 -20.525 -36.054  0.00  0.00    -0.270 OA
ATOM      9  N   UNL A   1      43.879 -20.116 -33.998  0.00  0.00    -0.311 N 
ATOM     10  H   UNL A   1      44.688 -19.846 -33.505  0.00  0.00    +0.000 HD
BRANCH   7  16
ATOM     11  C   UNL A   1      45.184 -18.071 -36.064  0.00  0.00    +0.044 A 
ATOM     12  C   UNL A   1      46.353 -17.527 -36.622  0.00  0.00    -0.040 A 
ATOM     13  C   UNL A   1      47.313 -18.339 -37.230  0.00  0.00    -0.060 A 
ATOM     14  C   UNL A   1      47.138 -19.719 -37.271  0.00  0.00    -0.061 A 
ATOM     15  C   UNL A   1      46.014 -20.291 -36.677  0.00  0.00    -0.048 A 
ATOM     16  C   UNL A   1      45.055 -19.480 -36.049  0.00  0.00    +0.058 A 
BRANCH  11  17
ATOM     17  N   UNL A   1      44.247 -17.238 -35.393  0.00  0.00    -0.314 N 
ATOM     18  H   UNL A   1      43.431 -17.021 -35.900  0.00  0.00    +0.000 HD
BRANCH  17  24
ATOM     19  C   UNL A   1      43.301 -13.447 -32.278  0.00  0.00    -0.039 C 
ATOM     20  C   UNL A   1      43.906 -14.789 -32.588  0.00  0.00    -0.046 A 
ATOM     21  C   UNL A   1      44.668 -15.429 -31.599  0.00  0.00    -0.058 A 
ATOM     22  C   UNL A   1      45.274 -16.655 -31.852  0.00  0.00    -0.060 A 
ATOM     23  C   UNL A   1      45.120 -17.263 -33.095  0.00  0.00    -0.040 A 
ATOM     24  C   UNL A   1      44.326 -16.677 -34.090  0.00  0.00    +0.035 A 
ATOM     25  C   UNL A   1      43.717 -15.422 -33.840  0.00  0.00    -0.026 A 
ATOM     26  C   UNL A   1      42.924 -14.745 -34.932  0.00  0.00    -0.038 C 
ENDBRANCH  17  24
ENDBRANCH  11  17
ENDBRANCH   7  16
ENDBRANCH   6   9
ENDBRANCH   5   6
ENDBRANCH   1   5
BRANCH   3  27
ATOM     27  C   UNL A   1      39.249 -19.319 -35.454  0.00  0.00    +0.012 C 
BRANCH  27  28
ATOM     28  C   UNL A   1      39.703 -19.568 -36.890  0.00  0.00    -0.037 C 
BRANCH  28  29
ATOM     29  C   UNL A   1      39.109 -20.875 -37.422  0.00  0.00    -0.052 C 
BRANCH  29  30
ATOM     30  C   UNL A   1      39.515 -21.177 -38.868  0.00  0.00    -0.052 C 
BRANCH  30  31
ATOM     31  C   UNL A   1      40.815 -21.979 -38.991  0.00  0.00    -0.037 C 
BRANCH  31  32
ATOM     32  C   UNL A   1      41.905 -21.260 -39.785  0.00  0.00    +0.009 C 
BRANCH  32  33
ATOM     33  N   UNL A   1      43.149 -21.095 -39.016  0.00  0.00    -0.343 N 
ATOM     34  H   UNL A   1      43.314 -21.570 -38.169  0.00  0.00    +0.000 HD
BRANCH  33  35
ATOM     35  C   UNL A   1      44.094 -20.200 -39.585  0.00  0.00    +0.041 A 
ATOM     36  C   UNL A   1      43.850 -18.811 -39.527  0.00  0.00    -0.005 A 
ATOM     37  C   UNL A   1      44.761 -17.962 -40.160  0.00  0.00    +0.047 A 
ATOM     38  N   UNL A   1      45.837 -18.410 -40.846  0.00  0.00    -0.251 NA
ATOM     39  C   UNL A   1      46.082 -19.724 -40.886  0.00  0.00    +0.073 A 
ATOM     40  C   UNL A   1      47.213 -20.145 -41.574  0.00  0.00    -0.036 A 
ATOM     41  C   UNL A   1      47.566 -21.490 -41.671  0.00  0.00    -0.060 A 
ATOM     42  C   UNL A   1      46.770 -22.448 -41.066  0.00  0.00    -0.061 A 
ATOM     43  C   UNL A   1      45.627 -22.049 -40.372  0.00  0.00    -0.051 A 
ATOM     44  C   UNL A   1      45.251 -20.682 -40.270  0.00  0.00    +0.021 A 
ATOM     45  C   UNL A   1      44.579 -16.466 -40.172  0.00  0.00    -0.010 C 
ATOM     46  C   UNL A   1      43.707 -15.957 -39.031  0.00  0.00    -0.047 C 
ATOM     47  C   UNL A   1      42.425 -16.772 -38.959  0.00  0.00    -0.049 C 
ATOM     48  C   UNL A   1      42.741 -18.239 -38.671  0.00  0.00    -0.024 C 
ENDBRANCH  33  35
ENDBRANCH  32  33
ENDBRANCH  31  32
ENDBRANCH  30  31
ENDBRANCH  29  30
ENDBRANCH  28  29
ENDBRANCH  27  28
ENDBRANCH   3  27
TORSDOF 14
ENDMDL
MODEL 6
REMARK VINA RESULT:    -6.005      2.646      7.527
REMARK INTER + INTRA:         -16.902
REMARK INTER:                 -11.527
REMARK INTRA:                  -5.374
REMARK UNBOUND:                -5.982
REMARK  Name = cpd35.pdb
REMARK  16 active torsions:
REMARK  status: ('A' for Active; 'I' for Inactive)
REMARK    1  A    between atoms: C_1  and  C_2
REMARK    2  A    between atoms: C_6  and  N_7
REMARK    3  A    between atoms: N_7  and  C_8
REMARK    4  A    between atoms: C_13  and  C_14
REMARK    5  A    between atoms: N_16  and  C_17
REMARK    6  A    between atoms: C_17  and  C_18
REMARK    7  A    between atoms: C_18  and  C_19
REMARK    8  A    between atoms: N_21  and  C_22
REMARK    9  A    between atoms: C_22  and  C_23
REMARK   10  A    between atoms: C_23  and  C_24
REMARK   11  A    between atoms: C_24  and  C_25
REMARK   12  A    between atoms: C_25  and  C_26
REMARK   13  A    between atoms: C_26  and  C_27
REMARK   14  A    between atoms: C_27  and  N_28
REMARK   15  A    between atoms: N_28  and  C_29
REMARK   16  A    between atoms: C_43  and  C_44
REMARK                            x       y       z     vdW  Elec       q    Type
REMARK                         _______ _______ _______ _____ _____    ______ ____
ROOT
ATOM      1  C   UNL A   1      43.127 -15.761 -34.695  0.00  0.00    +0.215 C 
ATOM      2  O   UNL A   1      42.007 -15.290 -34.868  0.00  0.00    -0.276 OA
ATOM      3  N   UNL A   1      44.216 -15.423 -35.474  0.00  0.00    -0.315 N 
ATOM      4  H   UNL A   1      45.106 -15.791 -35.269  0.00  0.00    +0.000 HD
ENDROOT
BRANCH   1   5
ATOM      5  C   UNL A   1      43.409 -16.784 -33.620  0.00  0.00    +0.039 C 
BRANCH   5   6
ATOM      6  C   UNL A   1      42.196 -17.006 -32.726  0.00  0.00    +0.020 C 
BRANCH   6   9
ATOM      7  C   UNL A   1      41.674 -19.349 -33.260  0.00  0.00    +0.246 C 
ATOM      8  O   UNL A   1      42.780 -19.735 -32.895  0.00  0.00    -0.270 OA
ATOM      9  N   UNL A   1      41.306 -18.016 -33.273  0.00  0.00    -0.311 N 
ATOM     10  H   UNL A   1      40.437 -17.750 -33.653  0.00  0.00    +0.000 HD
BRANCH   7  16
ATOM     11  C   UNL A   1      40.827 -21.166 -34.775  0.00  0.00    +0.044 A 
ATOM     12  C   UNL A   1      39.859 -22.147 -35.047  0.00  0.00    -0.040 A 
ATOM     13  C   UNL A   1      38.690 -22.244 -34.288  0.00  0.00    -0.060 A 
ATOM     14  C   UNL A   1      38.475 -21.377 -33.221  0.00  0.00    -0.061 A 
ATOM     15  C   UNL A   1      39.443 -20.428 -32.894  0.00  0.00    -0.048 A 
ATOM     16  C   UNL A   1      40.628 -20.339 -33.644  0.00  0.00    +0.058 A 
BRANCH  11  17
ATOM     17  N   UNL A   1      42.040 -21.120 -35.515  0.00  0.00    -0.314 N 
ATOM     18  H   UNL A   1      42.866 -21.122 -34.979  0.00  0.00    +0.000 HD
BRANCH  17  24
ATOM     19  C   UNL A   1      43.080 -18.482 -39.630  0.00  0.00    -0.039 C 
ATOM     20  C   UNL A   1      42.680 -19.757 -38.939  0.00  0.00    -0.046 A 
ATOM     21  C   UNL A   1      42.361 -20.877 -39.721  0.00  0.00    -0.058 A 
ATOM     22  C   UNL A   1      41.953 -22.066 -39.126  0.00  0.00    -0.060 A 
ATOM     23  C   UNL A   1      41.866 -22.154 -37.739  0.00  0.00    -0.040 A 
ATOM     24  C   UNL A   1      42.223 -21.072 -36.924  0.00  0.00    +0.035 A 
ATOM     25  C   UNL A   1      42.628 -19.856 -37.527  0.00  0.00    -0.026 A 
ATOM     26  C   UNL A   1      42.940 -18.659 -36.661  0.00  0.00    -0.038 C 
ENDBRANCH  17  24
ENDBRANCH  11  17
ENDBRANCH   7  16
ENDBRANCH   6   9
ENDBRANCH   5   6
ENDBRANCH   1   5
BRANCH   3  27
ATOM     27  C   UNL A   1      44.038 -14.523 -36.596  0.00  0.00    +0.012 C 
BRANCH  27  28
ATOM     28  C   UNL A   1      43.870 -15.278 -37.912  0.00  0.00    -0.037 C 
BRANCH  28  29
ATOM     29  C   UNL A   1      44.274 -14.393 -39.094  0.00  0.00    -0.052 C 
BRANCH  29  30
ATOM     30  C   UNL A   1      45.792 -14.275 -39.266  0.00  0.00    -0.052 C 
BRANCH  30  31
ATOM     31  C   UNL A   1      46.321 -14.915 -40.554  0.00  0.00    -0.037 C 
BRANCH  31  32
ATOM     32  C   UNL A   1      46.020 -16.409 -40.663  0.00  0.00    +0.009 C 
BRANCH  32  33
ATOM     33  N   UNL A   1      47.143 -17.247 -40.210  0.00  0.00    -0.343 N 
ATOM     34  H   UNL A   1      48.083 -17.010 -40.384  0.00  0.00    +0.000 HD
BRANCH  33  35
ATOM     35  C   UNL A   1      46.770 -18.421 -39.502  0.00  0.00    +0.041 A 
ATOM     36  C   UNL A   1      46.818 -18.420 -38.091  0.00  0.00    -0.005 A 
ATOM     37  C   UNL A   1      46.516 -19.612 -37.429  0.00  0.00    +0.047 A 
ATOM     38  N   UNL A   1      46.215 -20.763 -38.074  0.00  0.00    -0.251 NA
ATOM     39  C   UNL A   1      46.150 -20.762 -39.410  0.00  0.00    +0.073 A 
ATOM     40  C   UNL A   1      45.808 -21.953 -40.036  0.00  0.00    -0.036 A 
ATOM     41  C   UNL A   1      45.705 -22.060 -41.423  0.00  0.00    -0.060 A 
ATOM     42  C   UNL A   1      45.948 -20.948 -42.212  0.00  0.00    -0.061 A 
ATOM     43  C   UNL A   1      46.296 -19.742 -41.604  0.00  0.00    -0.051 A 
ATOM     44  C   UNL A   1      46.412 -19.618 -40.193  0.00  0.00    +0.021 A 
ATOM     45  C   UNL A   1      46.557 -19.720 -35.927  0.00  0.00    -0.010 C 
ATOM     46  C   UNL A   1      46.397 -18.378 -35.222  0.00  0.00    -0.047 C 
ATOM     47  C   UNL A   1      47.347 -17.360 -35.832  0.00  0.00    -0.049 C 
ATOM     48  C   UNL A   1      47.019 -17.142 -37.309  0.00  0.00    -0.024 C 
ENDBRANCH  33  35
ENDBRANCH  32  33
ENDBRANCH  31  32
ENDBRANCH  30  31
ENDBRANCH  29  30
ENDBRANCH  28  29
ENDBRANCH  27  28
ENDBRANCH   3  27
TORSDOF 14
ENDMDL
MODEL 7
REMARK VINA RESULT:    -5.998      2.405      6.288
REMARK INTER + INTRA:         -16.889
REMARK INTER:                 -12.128
REMARK INTRA:                  -4.761
REMARK UNBOUND:                -5.982
REMARK  Name = cpd35.pdb
REMARK  16 active torsions:
REMARK  status: ('A' for Active; 'I' for Inactive)
REMARK    1  A    between atoms: C_1  and  C_2
REMARK    2  A    between atoms: C_6  and  N_7
REMARK    3  A    between atoms: N_7  and  C_8
REMARK    4  A    between atoms: C_13  and  C_14
REMARK    5  A    between atoms: N_16  and  C_17
REMARK    6  A    between atoms: C_17  and  C_18
REMARK    7  A    between atoms: C_18  and  C_19
REMARK    8  A    between atoms: N_21  and  C_22
REMARK    9  A    between atoms: C_22  and  C_23
REMARK   10  A    between atoms: C_23  and  C_24
REMARK   11  A    between atoms: C_24  and  C_25
REMARK   12  A    between atoms: C_25  and  C_26
REMARK   13  A    between atoms: C_26  and  C_27
REMARK   14  A    between atoms: C_27  and  N_28
REMARK   15  A    between atoms: N_28  and  C_29
REMARK   16  A    between atoms: C_43  and  C_44
REMARK                            x       y       z     vdW  Elec       q    Type
REMARK                         _______ _______ _______ _____ _____    ______ ____
ROOT
ATOM      1  C   UNL A   1      43.154 -14.993 -38.555  0.00  0.00    +0.215 C 
ATOM      2  O   UNL A   1      43.251 -13.845 -38.132  0.00  0.00    -0.276 OA
ATOM      3  N   UNL A   1      44.135 -15.948 -38.376  0.00  0.00    -0.315 N 
ATOM      4  H   UNL A   1      43.993 -16.869 -38.693  0.00  0.00    +0.000 HD
ENDROOT
BRANCH   1   5
ATOM      5  C   UNL A   1      41.951 -15.458 -39.342  0.00  0.00    +0.039 C 
BRANCH   5   6
ATOM      6  C   UNL A   1      40.932 -16.154 -38.448  0.00  0.00    +0.020 C 
BRANCH   6   9
ATOM      7  C   UNL A   1      41.516 -18.539 -38.318  0.00  0.00    +0.246 C 
ATOM      8  O   UNL A   1      42.475 -18.320 -37.585  0.00  0.00    -0.270 OA
ATOM      9  N   UNL A   1      40.726 -17.535 -38.848  0.00  0.00    -0.311 N 
ATOM     10  H   UNL A   1      40.020 -17.757 -39.498  0.00  0.00    +0.000 HD
BRANCH   7  16
ATOM     11  C   UNL A   1      41.880 -20.721 -39.510  0.00  0.00    +0.044 A 
ATOM     12  C   UNL A   1      41.514 -22.065 -39.691  0.00  0.00    -0.040 A 
ATOM     13  C   UNL A   1      40.373 -22.594 -39.085  0.00  0.00    -0.060 A 
ATOM     14  C   UNL A   1      39.583 -21.796 -38.262  0.00  0.00    -0.061 A 
ATOM     15  C   UNL A   1      39.952 -20.473 -38.021  0.00  0.00    -0.048 A 
ATOM     16  C   UNL A   1      41.109 -19.942 -38.615  0.00  0.00    +0.058 A 
BRANCH  11  17
ATOM     17  N   UNL A   1      43.079 -20.213 -40.083  0.00  0.00    -0.314 N 
ATOM     18  H   UNL A   1      42.974 -19.416 -40.651  0.00  0.00    +0.000 HD
BRANCH  17  24
ATOM     19  C   UNL A   1      46.908 -22.845 -41.923  0.00  0.00    -0.039 C 
ATOM     20  C   UNL A   1      46.256 -22.038 -40.834  0.00  0.00    -0.046 A 
ATOM     21  C   UNL A   1      46.934 -21.878 -39.616  0.00  0.00    -0.058 A 
ATOM     22  C   UNL A   1      46.355 -21.168 -38.569  0.00  0.00    -0.060 A 
ATOM     23  C   UNL A   1      45.093 -20.602 -38.727  0.00  0.00    -0.040 A 
ATOM     24  C   UNL A   1      44.407 -20.699 -39.945  0.00  0.00    +0.035 A 
ATOM     25  C   UNL A   1      44.989 -21.431 -41.010  0.00  0.00    -0.026 A 
ATOM     26  C   UNL A   1      44.224 -21.609 -42.300  0.00  0.00    -0.038 C 
ENDBRANCH  17  24
ENDBRANCH  11  17
ENDBRANCH   7  16
ENDBRANCH   6   9
ENDBRANCH   5   6
ENDBRANCH   1   5
BRANCH   3  27
ATOM     27  C   UNL A   1      45.374 -15.583 -37.719  0.00  0.00    +0.012 C 
BRANCH  27  28
ATOM     28  C   UNL A   1      45.530 -16.278 -36.369  0.00  0.00    -0.037 C 
BRANCH  28  29
ATOM     29  C   UNL A   1      46.643 -17.327 -36.431  0.00  0.00    -0.052 C 
BRANCH  29  30
ATOM     30  C   UNL A   1      46.942 -17.969 -35.073  0.00  0.00    -0.052 C 
BRANCH  30  31
ATOM     31  C   UNL A   1      46.753 -19.490 -35.051  0.00  0.00    -0.037 C 
BRANCH  31  32
ATOM     32  C   UNL A   1      45.294 -19.923 -34.909  0.00  0.00    +0.009 C 
BRANCH  32  33
ATOM     33  N   UNL A   1      44.786 -19.758 -33.538  0.00  0.00    -0.343 N 
ATOM     34  H   UNL A   1      45.231 -20.161 -32.757  0.00  0.00    +0.000 HD
BRANCH  33  35
ATOM     35  C   UNL A   1      43.607 -18.973 -33.423  0.00  0.00    +0.041 A 
ATOM     36  C   UNL A   1      42.366 -19.536 -33.791  0.00  0.00    -0.005 A 
ATOM     37  C   UNL A   1      41.237 -18.715 -33.736  0.00  0.00    +0.047 A 
ATOM     38  N   UNL A   1      41.285 -17.411 -33.382  0.00  0.00    -0.251 NA
ATOM     39  C   UNL A   1      42.457 -16.880 -33.015  0.00  0.00    +0.073 A 
ATOM     40  C   UNL A   1      42.463 -15.546 -32.628  0.00  0.00    -0.036 A 
ATOM     41  C   UNL A   1      43.627 -14.896 -32.221  0.00  0.00    -0.060 A 
ATOM     42  C   UNL A   1      44.823 -15.594 -32.195  0.00  0.00    -0.061 A 
ATOM     43  C   UNL A   1      44.842 -16.934 -32.582  0.00  0.00    -0.051 A 
ATOM     44  C   UNL A   1      43.665 -17.608 -33.006  0.00  0.00    +0.021 A 
ATOM     45  C   UNL A   1      39.870 -19.216 -34.126  0.00  0.00    -0.010 C 
ATOM     46  C   UNL A   1      39.734 -20.731 -34.032  0.00  0.00    -0.047 C 
ATOM     47  C   UNL A   1      40.902 -21.398 -34.741  0.00  0.00    -0.049 C 
ATOM     48  C   UNL A   1      42.222 -21.016 -34.070  0.00  0.00    -0.024 C 
ENDBRANCH  33  35
ENDBRANCH  32  33
ENDBRANCH  31  32
ENDBRANCH  30  31
ENDBRANCH  29  30
ENDBRANCH  28  29
ENDBRANCH  27  28
ENDBRANCH   3  27
TORSDOF 14
ENDMDL
MODEL 8
REMARK VINA RESULT:    -5.987      2.425      6.857
REMARK INTER + INTRA:         -16.868
REMARK INTER:                 -11.404
REMARK INTRA:                  -5.464
REMARK UNBOUND:                -5.982
REMARK  Name = cpd35.pdb
REMARK  16 active torsions:
REMARK  status: ('A' for Active; 'I' for Inactive)
REMARK    1  A    between atoms: C_1  and  C_2
REMARK    2  A    between atoms: C_6  and  N_7
REMARK    3  A    between atoms: N_7  and  C_8
REMARK    4  A    between atoms: C_13  and  C_14
REMARK    5  A    between atoms: N_16  and  C_17
REMARK    6  A    between atoms: C_17  and  C_18
REMARK    7  A    between atoms: C_18  and  C_19
REMARK    8  A    between atoms: N_21  and  C_22
REMARK    9  A    between atoms: C_22  and  C_23
REMARK   10  A    between atoms: C_23  and  C_24
REMARK   11  A    between atoms: C_24  and  C_25
REMARK   12  A    between atoms: C_25  and  C_26
REMARK   13  A    between atoms: C_26  and  C_27
REMARK   14  A    between atoms: C_27  and  N_28
REMARK   15  A    between atoms: N_28  and  C_29
REMARK   16  A    between atoms: C_43  and  C_44
REMARK                            x       y       z     vdW  Elec       q    Type
REMARK                         _______ _______ _______ _____ _____    ______ ____
ROOT
ATOM      1  C   UNL A   1      39.414 -18.411 -38.320  0.00  0.00    +0.215 C 
ATOM      2  O   UNL A   1      39.549 -17.453 -39.076  0.00  0.00    -0.276 OA
ATOM      3  N   UNL A   1      39.382 -18.287 -36.946  0.00  0.00    -0.315 N 
ATOM      4  H   UNL A   1      39.225 -19.078 -36.380  0.00  0.00    +0.000 HD
ENDROOT
BRANCH   1   5
ATOM      5  C   UNL A   1      39.299 -19.826 -38.833  0.00  0.00    +0.039 C 
BRANCH   5   6
ATOM      6  C   UNL A   1      40.649 -20.372 -39.281  0.00  0.00    +0.020 C 
BRANCH   6   9
ATOM      7  C   UNL A   1      42.981 -19.748 -38.812  0.00  0.00    +0.246 C 
ATOM      8  O   UNL A   1      43.279 -20.895 -38.490  0.00  0.00    -0.270 OA
ATOM      9  N   UNL A   1      41.697 -19.372 -39.162  0.00  0.00    -0.311 N 
ATOM     10  H   UNL A   1      41.491 -18.424 -39.330  0.00  0.00    +0.000 HD
BRANCH   7  16
ATOM     11  C   UNL A   1      45.152 -18.913 -39.761  0.00  0.00    +0.044 A 
ATOM     12  C   UNL A   1      46.077 -17.865 -39.898  0.00  0.00    -0.040 A 
ATOM     13  C   UNL A   1      45.959 -16.690 -39.153  0.00  0.00    -0.060 A 
ATOM     14  C   UNL A   1      44.896 -16.526 -38.269  0.00  0.00    -0.061 A 
ATOM     15  C   UNL A   1      43.933 -17.527 -38.152  0.00  0.00    -0.048 A 
ATOM     16  C   UNL A   1      44.038 -18.703 -38.914  0.00  0.00    +0.058 A 
BRANCH  11  17
ATOM     17  N   UNL A   1      45.250 -20.076 -40.573  0.00  0.00    -0.314 N 
ATOM     18  H   UNL A   1      44.480 -20.250 -41.162  0.00  0.00    +0.000 HD
BRANCH  17  24
ATOM     19  C   UNL A   1      47.242 -24.134 -42.704  0.00  0.00    -0.039 C 
ATOM     20  C   UNL A   1      47.246 -23.044 -41.667  0.00  0.00    -0.046 A 
ATOM     21  C   UNL A   1      48.250 -23.049 -40.687  0.00  0.00    -0.058 A 
ATOM     22  C   UNL A   1      48.273 -22.081 -39.689  0.00  0.00    -0.060 A 
ATOM     23  C   UNL A   1      47.296 -21.088 -39.661  0.00  0.00    -0.040 A 
ATOM     24  C   UNL A   1      46.307 -21.022 -40.651  0.00  0.00    +0.035 A 
ATOM     25  C   UNL A   1      46.274 -22.014 -41.663  0.00  0.00    -0.026 A 
ATOM     26  C   UNL A   1      45.166 -21.998 -42.689  0.00  0.00    -0.038 C 
ENDBRANCH  17  24
ENDBRANCH  11  17
ENDBRANCH   7  16
ENDBRANCH   6   9
ENDBRANCH   5   6
ENDBRANCH   1   5
BRANCH   3  27
ATOM     27  C   UNL A   1      39.580 -16.985 -36.341  0.00  0.00    +0.012 C 
BRANCH  27  28
ATOM     28  C   UNL A   1      41.052 -16.712 -36.044  0.00  0.00    -0.037 C 
BRANCH  28  29
ATOM     29  C   UNL A   1      41.423 -15.279 -36.434  0.00  0.00    -0.052 C 
BRANCH  29  30
ATOM     30  C   UNL A   1      42.228 -14.549 -35.354  0.00  0.00    -0.052 C 
BRANCH  30  31
ATOM     31  C   UNL A   1      43.463 -15.320 -34.876  0.00  0.00    -0.037 C 
BRANCH  31  32
ATOM     32  C   UNL A   1      43.441 -15.648 -33.384  0.00  0.00    +0.009 C 
BRANCH  32  33
ATOM     33  N   UNL A   1      44.360 -16.743 -33.032  0.00  0.00    -0.343 N 
ATOM     34  H   UNL A   1      45.030 -16.661 -32.314  0.00  0.00    +0.000 HD
BRANCH  33  35
ATOM     35  C   UNL A   1      44.208 -17.926 -33.803  0.00  0.00    +0.041 A 
ATOM     36  C   UNL A   1      43.052 -18.718 -33.632  0.00  0.00    -0.005 A 
ATOM     37  C   UNL A   1      42.968 -19.912 -34.351  0.00  0.00    +0.047 A 
ATOM     38  N   UNL A   1      43.949 -20.355 -35.170  0.00  0.00    -0.251 NA
ATOM     39  C   UNL A   1      45.037 -19.597 -35.350  0.00  0.00    +0.073 A 
ATOM     40  C   UNL A   1      46.010 -20.070 -36.222  0.00  0.00    -0.036 A 
ATOM     41  C   UNL A   1      47.179 -19.357 -36.486  0.00  0.00    -0.060 A 
ATOM     42  C   UNL A   1      47.387 -18.136 -35.866  0.00  0.00    -0.061 A 
ATOM     43  C   UNL A   1      46.425 -17.644 -34.983  0.00  0.00    -0.051 A 
ATOM     44  C   UNL A   1      45.232 -18.362 -34.698  0.00  0.00    +0.021 A 
ATOM     45  C   UNL A   1      41.784 -20.836 -34.223  0.00  0.00    -0.010 C 
ATOM     46  C   UNL A   1      40.523 -20.135 -33.732  0.00  0.00    -0.047 C 
ATOM     47  C   UNL A   1      40.843 -19.306 -32.498  0.00  0.00    -0.049 C 
ATOM     48  C   UNL A   1      41.866 -18.221 -32.834  0.00  0.00    -0.024 C 
ENDBRANCH  33  35
ENDBRANCH  32  33
ENDBRANCH  31  32
ENDBRANCH  30  31
ENDBRANCH  29  30
ENDBRANCH  28  29
ENDBRANCH  27  28
ENDBRANCH   3  27
TORSDOF 14
ENDMDL
MODEL 9
REMARK VINA RESULT:    -5.973      2.160      4.884
REMARK INTER + INTRA:         -16.844
REMARK INTER:                 -11.784
REMARK INTRA:                  -5.060
REMARK UNBOUND:                -5.982
REMARK  Name = cpd35.pdb
REMARK  16 active torsions:
REMARK  status: ('A' for Active; 'I' for Inactive)
REMARK    1  A    between atoms: C_1  and  C_2
REMARK    2  A    between atoms: C_6  and  N_7
REMARK    3  A    between atoms: N_7  and  C_8
REMARK    4  A    between atoms: C_13  and  C_14
REMARK    5  A    between atoms: N_16  and  C_17
REMARK    6  A    between atoms: C_17  and  C_18
REMARK    7  A    between atoms: C_18  and  C_19
REMARK    8  A    between atoms: N_21  and  C_22
REMARK    9  A    between atoms: C_22  and  C_23
REMARK   10  A    between atoms: C_23  and  C_24
REMARK   11  A    between atoms: C_24  and  C_25
REMARK   12  A    between atoms: C_25  and  C_26
REMARK   13  A    between atoms: C_26  and  C_27
REMARK   14  A    between atoms: C_27  and  N_28
REMARK   15  A    between atoms: N_28  and  C_29
REMARK   16  A    between atoms: C_43  and  C_44
REMARK                            x       y       z     vdW  Elec       q    Type
REMARK                         _______ _______ _______ _____ _____    ______ ____
ROOT
ATOM      1  C   UNL A   1      41.696 -15.465 -38.837  0.00  0.00    +0.215 C 
ATOM      2  O   UNL A   1      41.566 -15.009 -37.705  0.00  0.00    -0.276 OA
ATOM      3  N   UNL A   1      40.966 -16.539 -39.305  0.00  0.00    -0.315 N 
ATOM      4  H   UNL A   1      41.070 -16.841 -40.237  0.00  0.00    +0.000 HD
ENDROOT
BRANCH   1   5
ATOM      5  C   UNL A   1      42.698 -14.902 -39.817  0.00  0.00    +0.039 C 
BRANCH   5   6
ATOM      6  C   UNL A   1      44.039 -14.624 -39.150  0.00  0.00    +0.020 C 
BRANCH   6   9
ATOM      7  C   UNL A   1      45.805 -16.062 -38.222  0.00  0.00    +0.246 C 
ATOM      8  O   UNL A   1      46.676 -15.517 -38.893  0.00  0.00    -0.270 OA
ATOM      9  N   UNL A   1      44.464 -15.737 -38.318  0.00  0.00    -0.311 N 
ATOM     10  H   UNL A   1      43.794 -16.260 -37.820  0.00  0.00    +0.000 HD
BRANCH   7  16
ATOM     11  C   UNL A   1      46.735 -18.311 -37.597  0.00  0.00    +0.044 A 
ATOM     12  C   UNL A   1      47.158 -19.198 -36.594  0.00  0.00    -0.040 A 
ATOM     13  C   UNL A   1      46.950 -18.916 -35.242  0.00  0.00    -0.060 A 
ATOM     14  C   UNL A   1      46.337 -17.726 -34.861  0.00  0.00    -0.061 A 
ATOM     15  C   UNL A   1      45.956 -16.802 -35.834  0.00  0.00    -0.048 A 
ATOM     16  C   UNL A   1      46.179 -17.074 -37.194  0.00  0.00    +0.058 A 
BRANCH  11  17
ATOM     17  N   UNL A   1      47.010 -18.582 -38.966  0.00  0.00    -0.314 N 
ATOM     18  H   UNL A   1      47.626 -17.955 -39.409  0.00  0.00    +0.000 HD
BRANCH  17  24
ATOM     19  C   UNL A   1      44.132 -20.096 -42.761  0.00  0.00    -0.039 C 
ATOM     20  C   UNL A   1      45.059 -20.370 -41.609  0.00  0.00    -0.046 A 
ATOM     21  C   UNL A   1      45.331 -21.703 -41.267  0.00  0.00    -0.058 A 
ATOM     22  C   UNL A   1      46.156 -22.005 -40.188  0.00  0.00    -0.060 A 
ATOM     23  C   UNL A   1      46.726 -20.978 -39.441  0.00  0.00    -0.040 A 
ATOM     24  C   UNL A   1      46.516 -19.636 -39.783  0.00  0.00    +0.035 A 
ATOM     25  C   UNL A   1      45.668 -19.324 -40.874  0.00  0.00    -0.026 A 
ATOM     26  C   UNL A   1      45.371 -17.881 -41.202  0.00  0.00    -0.038 C 
ENDBRANCH  17  24
ENDBRANCH  11  17
ENDBRANCH   7  16
ENDBRANCH   6   9
ENDBRANCH   5   6
ENDBRANCH   1   5
BRANCH   3  27
ATOM     27  C   UNL A   1      40.044 -17.217 -38.416  0.00  0.00    +0.012 C 
BRANCH  27  28
ATOM     28  C   UNL A   1      40.727 -18.334 -37.631  0.00  0.00    -0.037 C 
BRANCH  28  29
ATOM     29  C   UNL A   1      41.642 -19.152 -38.546  0.00  0.00    -0.052 C 
BRANCH  29  30
ATOM     30  C   UNL A   1      43.104 -19.156 -38.089  0.00  0.00    -0.052 C 
BRANCH  30  31
ATOM     31  C   UNL A   1      43.546 -20.473 -37.442  0.00  0.00    -0.037 C 
BRANCH  31  32
ATOM     32  C   UNL A   1      42.407 -21.239 -36.770  0.00  0.00    +0.009 C 
BRANCH  32  33
ATOM     33  N   UNL A   1      42.583 -21.353 -35.313  0.00  0.00    -0.343 N 
ATOM     34  H   UNL A   1      43.392 -21.743 -34.908  0.00  0.00    +0.000 HD
BRANCH  33  35
ATOM     35  C   UNL A   1      41.502 -20.859 -34.536  0.00  0.00    +0.041 A 
ATOM     36  C   UNL A   1      41.626 -19.603 -33.901  0.00  0.00    -0.005 A 
ATOM     37  C   UNL A   1      40.575 -19.180 -33.085  0.00  0.00    +0.047 A 
ATOM     38  N   UNL A   1      39.470 -19.925 -32.853  0.00  0.00    -0.251 NA
ATOM     39  C   UNL A   1      39.341 -21.106 -33.468  0.00  0.00    +0.073 A 
ATOM     40  C   UNL A   1      38.180 -21.829 -33.229  0.00  0.00    -0.036 A 
ATOM     41  C   UNL A   1      37.941 -23.068 -33.824  0.00  0.00    -0.060 A 
ATOM     42  C   UNL A   1      38.885 -23.603 -34.684  0.00  0.00    -0.061 A 
ATOM     43  C   UNL A   1      40.060 -22.896 -34.936  0.00  0.00    -0.051 A 
ATOM     44  C   UNL A   1      40.321 -21.636 -34.332  0.00  0.00    +0.021 A 
ATOM     45  C   UNL A   1      40.619 -17.865 -32.350  0.00  0.00    -0.010 C 
ATOM     46  C   UNL A   1      41.569 -16.854 -32.979  0.00  0.00    -0.047 C 
ATOM     47  C   UNL A   1      42.918 -17.507 -33.236  0.00  0.00    -0.049 C 
ATOM     48  C   UNL A   1      42.771 -18.668 -34.219  0.00  0.00    -0.024 C 
ENDBRANCH  33  35
ENDBRANCH  32  33
ENDBRANCH  31  32
ENDBRANCH  30  31
ENDBRANCH  29  30
ENDBRANCH  28  29
ENDBRANCH  27  28
ENDBRANCH   3  27
TORSDOF 14
ENDMDL
MODEL 10
REMARK VINA RESULT:    -5.969      2.447      6.654
REMARK INTER + INTRA:         -16.837
REMARK INTER:                 -11.686
REMARK INTRA:                  -5.151
REMARK UNBOUND:                -5.982
REMARK  Name = cpd35.pdb
REMARK  16 active torsions:
REMARK  status: ('A' for Active; 'I' for Inactive)
REMARK    1  A    between atoms: C_1  and  C_2
REMARK    2  A    between atoms: C_6  and  N_7
REMARK    3  A    between atoms: N_7  and  C_8
REMARK    4  A    between atoms: C_13  and  C_14
REMARK    5  A    between atoms: N_16  and  C_17
REMARK    6  A    between atoms: C_17  and  C_18
REMARK    7  A    between atoms: C_18  and  C_19
REMARK    8  A    between atoms: N_21  and  C_22
REMARK    9  A    between atoms: C_22  and  C_23
REMARK   10  A    between atoms: C_23  and  C_24
REMARK   11  A    between atoms: C_24  and  C_25
REMARK   12  A    between atoms: C_25  and  C_26
REMARK   13  A    between atoms: C_26  and  C_27
REMARK   14  A    between atoms: C_27  and  N_28
REMARK   15  A    between atoms: N_28  and  C_29
REMARK   16  A    between atoms: C_43  and  C_44
REMARK                            x       y       z     vdW  Elec       q    Type
REMARK                         _______ _______ _______ _____ _____    ______ ____
ROOT
ATOM      1  C   UNL A   1      39.343 -18.358 -38.345  0.00  0.00    +0.215 C 
ATOM      2  O   UNL A   1      39.530 -17.352 -39.023  0.00  0.00    -0.276 OA
ATOM      3  N   UNL A   1      39.283 -18.337 -36.966  0.00  0.00    -0.315 N 
ATOM      4  H   UNL A   1      39.083 -19.161 -36.466  0.00  0.00    +0.000 HD
ENDROOT
BRANCH   1   5
ATOM      5  C   UNL A   1      39.187 -19.725 -38.967  0.00  0.00    +0.039 C 
BRANCH   5   6
ATOM      6  C   UNL A   1      40.526 -20.289 -39.424  0.00  0.00    +0.020 C 
BRANCH   6   9
ATOM      7  C   UNL A   1      42.863 -19.821 -38.817  0.00  0.00    +0.246 C 
ATOM      8  O   UNL A   1      43.096 -21.003 -38.587  0.00  0.00    -0.270 OA
ATOM      9  N   UNL A   1      41.612 -19.355 -39.179  0.00  0.00    -0.311 N 
ATOM     10  H   UNL A   1      41.456 -18.387 -39.272  0.00  0.00    +0.000 HD
BRANCH   7  16
ATOM     11  C   UNL A   1      45.125 -19.034 -39.576  0.00  0.00    +0.044 A 
ATOM     12  C   UNL A   1      46.102 -18.025 -39.591  0.00  0.00    -0.040 A 
ATOM     13  C   UNL A   1      45.987 -16.892 -38.783  0.00  0.00    -0.060 A 
ATOM     14  C   UNL A   1      44.877 -16.730 -37.958  0.00  0.00    -0.061 A 
ATOM     15  C   UNL A   1      43.866 -17.690 -37.964  0.00  0.00    -0.048 A 
ATOM     16  C   UNL A   1      43.969 -18.822 -38.789  0.00  0.00    +0.058 A 
BRANCH  11  17
ATOM     17  N   UNL A   1      45.224 -20.151 -40.452  0.00  0.00    -0.314 N 
ATOM     18  H   UNL A   1      44.469 -20.275 -41.070  0.00  0.00    +0.000 HD
BRANCH  17  24
ATOM     19  C   UNL A   1      47.238 -24.075 -42.801  0.00  0.00    -0.039 C 
ATOM     20  C   UNL A   1      47.213 -23.070 -41.682  0.00  0.00    -0.046 A 
ATOM     21  C   UNL A   1      48.168 -23.175 -40.660  0.00  0.00    -0.058 A 
ATOM     22  C   UNL A   1      48.162 -22.288 -39.589  0.00  0.00    -0.060 A 
ATOM     23  C   UNL A   1      47.205 -21.278 -39.528  0.00  0.00    -0.040 A 
ATOM     24  C   UNL A   1      46.266 -21.112 -40.555  0.00  0.00    +0.035 A 
ATOM     25  C   UNL A   1      46.262 -22.021 -41.642  0.00  0.00    -0.026 A 
ATOM     26  C   UNL A   1      45.206 -21.900 -42.714  0.00  0.00    -0.038 C 
ENDBRANCH  17  24
ENDBRANCH  11  17
ENDBRANCH   7  16
ENDBRANCH   6   9
ENDBRANCH   5   6
ENDBRANCH   1   5
BRANCH   3  27
ATOM     27  C   UNL A   1      39.515 -17.093 -36.261  0.00  0.00    +0.012 C 
BRANCH  27  28
ATOM     28  C   UNL A   1      40.986 -16.911 -35.893  0.00  0.00    -0.037 C 
BRANCH  28  29
ATOM     29  C   UNL A   1      41.453 -15.493 -36.233  0.00  0.00    -0.052 C 
BRANCH  29  30
ATOM     30  C   UNL A   1      42.262 -14.840 -35.108  0.00  0.00    -0.052 C 
BRANCH  30  31
ATOM     31  C   UNL A   1      43.372 -15.734 -34.544  0.00  0.00    -0.037 C 
BRANCH  31  32
ATOM     32  C   UNL A   1      43.219 -16.033 -33.053  0.00  0.00    +0.009 C 
BRANCH  32  33
ATOM     33  N   UNL A   1      44.076 -17.145 -32.609  0.00  0.00    -0.343 N 
ATOM     34  H   UNL A   1      44.643 -17.087 -31.805  0.00  0.00    +0.000 HD
BRANCH  33  35
ATOM     35  C   UNL A   1      44.026 -18.307 -33.426  0.00  0.00    +0.041 A 
ATOM     36  C   UNL A   1      45.109 -18.592 -34.286  0.00  0.00    -0.005 A 
ATOM     37  C   UNL A   1      44.996 -19.701 -35.128  0.00  0.00    +0.047 A 
ATOM     38  N   UNL A   1      43.895 -20.484 -35.179  0.00  0.00    -0.251 NA
ATOM     39  C   UNL A   1      42.875 -20.228 -34.351  0.00  0.00    +0.073 A 
ATOM     40  C   UNL A   1      41.774 -21.072 -34.411  0.00  0.00    -0.036 A 
ATOM     41  C   UNL A   1      40.661 -20.898 -33.588  0.00  0.00    -0.060 A 
ATOM     42  C   UNL A   1      40.642 -19.855 -32.678  0.00  0.00    -0.061 A 
ATOM     43  C   UNL A   1      41.736 -18.992 -32.604  0.00  0.00    -0.051 A 
ATOM     44  C   UNL A   1      42.875 -19.152 -33.440  0.00  0.00    +0.021 A 
ATOM     45  C   UNL A   1      46.088 -20.079 -36.095  0.00  0.00    -0.010 C 
ATOM     46  C   UNL A   1      47.458 -19.541 -35.698  0.00  0.00    -0.047 C 
ATOM     47  C   UNL A   1      47.354 -18.060 -35.373  0.00  0.00    -0.049 C 
ATOM     48  C   UNL A   1      46.416 -17.837 -34.187  0.00  0.00    -0.024 C 
ENDBRANCH  33  35
ENDBRANCH  32  33
ENDBRANCH  31  32
ENDBRANCH  30  31
ENDBRANCH  29  30
ENDBRANCH  28  29
ENDBRANCH  27  28
ENDBRANCH   3  27
TORSDOF 14
ENDMDL
MODEL 11
REMARK VINA RESULT:    -5.950      1.422      3.575
REMARK INTER + INTRA:         -16.801
REMARK INTER:                 -11.911
REMARK INTRA:                  -4.890
REMARK UNBOUND:                -5.982
REMARK  Name = cpd35.pdb
REMARK  16 active torsions:
REMARK  status: ('A' for Active; 'I' for Inactive)
REMARK    1  A    between atoms: C_1  and  C_2
REMARK    2  A    between atoms: C_6  and  N_7
REMARK    3  A    between atoms: N_7  and  C_8
REMARK    4  A    between atoms: C_13  and  C_14
REMARK    5  A    between atoms: N_16  and  C_17
REMARK    6  A    between atoms: C_17  and  C_18
REMARK    7  A    between atoms: C_18  and  C_19
REMARK    8  A    between atoms: N_21  and  C_22
REMARK    9  A    between atoms: C_22  and  C_23
REMARK   10  A    between atoms: C_23  and  C_24
REMARK   11  A    between atoms: C_24  and  C_25
REMARK   12  A    between atoms: C_25  and  C_26
REMARK   13  A    between atoms: C_26  and  C_27
REMARK   14  A    between atoms: C_27  and  N_28
REMARK   15  A    between atoms: N_28  and  C_29
REMARK   16  A    between atoms: C_43  and  C_44
REMARK                            x       y       z     vdW  Elec       q    Type
REMARK                         _______ _______ _______ _____ _____    ______ ____
ROOT
ATOM      1  C   UNL A   1      44.024 -19.061 -35.193  0.00  0.00    +0.215 C 
ATOM      2  O   UNL A   1      43.003 -19.500 -35.714  0.00  0.00    -0.276 OA
ATOM      3  N   UNL A   1      44.189 -17.732 -34.860  0.00  0.00    -0.315 N 
ATOM      4  H   UNL A   1      45.007 -17.433 -34.400  0.00  0.00    +0.000 HD
ENDROOT
BRANCH   1   5
ATOM      5  C   UNL A   1      45.213 -19.943 -34.893  0.00  0.00    +0.039 C 
BRANCH   5   6
ATOM      6  C   UNL A   1      46.212 -19.947 -36.043  0.00  0.00    +0.020 C 
BRANCH   6   9
ATOM      7  C   UNL A   1      45.814 -19.588 -38.443  0.00  0.00    +0.246 C 
ATOM      8  O   UNL A   1      46.457 -18.543 -38.448  0.00  0.00    -0.270 OA
ATOM      9  N   UNL A   1      45.584 -20.327 -37.297  0.00  0.00    -0.311 N 
ATOM     10  H   UNL A   1      44.992 -21.114 -37.330  0.00  0.00    +0.000 HD
BRANCH   7  16
ATOM     11  C   UNL A   1      44.544 -19.348 -40.598  0.00  0.00    +0.044 A 
ATOM     12  C   UNL A   1      44.164 -19.895 -41.834  0.00  0.00    -0.040 A 
ATOM     13  C   UNL A   1      44.442 -21.226 -42.155  0.00  0.00    -0.060 A 
ATOM     14  C   UNL A   1      45.131 -22.033 -41.254  0.00  0.00    -0.061 A 
ATOM     15  C   UNL A   1      45.568 -21.501 -40.042  0.00  0.00    -0.048 A 
ATOM     16  C   UNL A   1      45.306 -20.158 -39.723  0.00  0.00    +0.058 A 
BRANCH  11  17
ATOM     17  N   UNL A   1      44.310 -17.974 -40.311  0.00  0.00    -0.314 N 
ATOM     18  H   UNL A   1      45.103 -17.392 -40.345  0.00  0.00    +0.000 HD
BRANCH  17  24
ATOM     19  C   UNL A   1      41.155 -14.154 -40.962  0.00  0.00    -0.039 C 
ATOM     20  C   UNL A   1      41.577 -15.422 -40.272  0.00  0.00    -0.046 A 
ATOM     21  C   UNL A   1      40.804 -15.894 -39.200  0.00  0.00    -0.058 A 
ATOM     22  C   UNL A   1      41.175 -17.044 -38.510  0.00  0.00    -0.060 A 
ATOM     23  C   UNL A   1      42.319 -17.742 -38.888  0.00  0.00    -0.040 A 
ATOM     24  C   UNL A   1      43.087 -17.328 -39.984  0.00  0.00    +0.035 A 
ATOM     25  C   UNL A   1      42.719 -16.151 -40.682  0.00  0.00    -0.026 A 
ATOM     26  C   UNL A   1      43.584 -15.652 -41.814  0.00  0.00    -0.038 C 
ENDBRANCH  17  24
ENDBRANCH  11  17
ENDBRANCH   7  16
ENDBRANCH   6   9
ENDBRANCH   5   6
ENDBRANCH   1   5
BRANCH   3  27
ATOM     27  C   UNL A   1      43.149 -16.779 -35.191  0.00  0.00    +0.012 C 
BRANCH  27  28
ATOM     28  C   UNL A   1      42.399 -16.298 -33.951  0.00  0.00    -0.037 C 
BRANCH  28  29
ATOM     29  C   UNL A   1      41.068 -17.040 -33.807  0.00  0.00    -0.052 C 
BRANCH  29  30
ATOM     30  C   UNL A   1      40.239 -17.044 -35.095  0.00  0.00    -0.052 C 
BRANCH  30  31
ATOM     31  C   UNL A   1      39.649 -18.414 -35.448  0.00  0.00    -0.037 C 
BRANCH  31  32
ATOM     32  C   UNL A   1      38.625 -18.367 -36.581  0.00  0.00    +0.009 C 
BRANCH  32  33
ATOM     33  N   UNL A   1      38.036 -19.685 -36.866  0.00  0.00    -0.343 N 
ATOM     34  H   UNL A   1      37.095 -19.797 -37.136  0.00  0.00    +0.000 HD
BRANCH  33  35
ATOM     35  C   UNL A   1      38.924 -20.785 -36.722  0.00  0.00    +0.041 A 
ATOM     36  C   UNL A   1      38.957 -21.489 -35.499  0.00  0.00    -0.005 A 
ATOM     37  C   UNL A   1      39.892 -22.518 -35.365  0.00  0.00    +0.047 A 
ATOM     38  N   UNL A   1      40.779 -22.844 -36.333  0.00  0.00    -0.251 NA
ATOM     39  C   UNL A   1      40.737 -22.191 -37.500  0.00  0.00    +0.073 A 
ATOM     40  C   UNL A   1      41.643 -22.574 -38.481  0.00  0.00    -0.036 A 
ATOM     41  C   UNL A   1      41.680 -21.965 -39.735  0.00  0.00    -0.060 A 
ATOM     42  C   UNL A   1      40.789 -20.945 -40.024  0.00  0.00    -0.061 A 
ATOM     43  C   UNL A   1      39.872 -20.542 -39.052  0.00  0.00    -0.051 A 
ATOM     44  C   UNL A   1      39.826 -21.148 -37.768  0.00  0.00    +0.021 A 
ATOM     45  C   UNL A   1      40.020 -23.316 -34.094  0.00  0.00    -0.010 C 
ATOM     46  C   UNL A   1      38.755 -23.301 -33.243  0.00  0.00    -0.047 C 
ATOM     47  C   UNL A   1      38.267 -21.871 -33.073  0.00  0.00    -0.049 C 
ATOM     48  C   UNL A   1      37.912 -21.263 -34.429  0.00  0.00    -0.024 C 
ENDBRANCH  33  35
ENDBRANCH  32  33
ENDBRANCH  31  32
ENDBRANCH  30  31
ENDBRANCH  29  30
ENDBRANCH  28  29
ENDBRANCH  27  28
ENDBRANCH   3  27
TORSDOF 14
ENDMDL
MODEL 12
REMARK VINA RESULT:    -5.868      2.229      5.700
REMARK INTER + INTRA:         -16.652
REMARK INTER:                 -10.462
REMARK INTRA:                  -6.190
REMARK UNBOUND:                -5.982
REMARK  Name = cpd35.pdb
REMARK  16 active torsions:
REMARK  status: ('A' for Active; 'I' for Inactive)
REMARK    1  A    between atoms: C_1  and  C_2
REMARK    2  A    between atoms: C_6  and  N_7
REMARK    3  A    between atoms: N_7  and  C_8
REMARK    4  A    between atoms: C_13  and  C_14
REMARK    5  A    between atoms: N_16  and  C_17
REMARK    6  A    between atoms: C_17  and  C_18
REMARK    7  A    between atoms: C_18  and  C_19
REMARK    8  A    between atoms: N_21  and  C_22
REMARK    9  A    between atoms: C_22  and  C_23
REMARK   10  A    between atoms: C_23  and  C_24
REMARK   11  A    between atoms: C_24  and  C_25
REMARK   12  A    between atoms: C_25  and  C_26
REMARK   13  A    between atoms: C_26  and  C_27
REMARK   14  A    between atoms: C_27  and  N_28
REMARK   15  A    between atoms: N_28  and  C_29
REMARK   16  A    between atoms: C_43  and  C_44
REMARK                            x       y       z     vdW  Elec       q    Type
REMARK                         _______ _______ _______ _____ _____    ______ ____
ROOT
ATOM      1  C   UNL A   1      39.432 -17.454 -37.614  0.00  0.00    +0.215 C 
ATOM      2  O   UNL A   1      40.179 -17.401 -36.642  0.00  0.00    -0.276 OA
ATOM      3  N   UNL A   1      38.513 -18.466 -37.803  0.00  0.00    -0.315 N 
ATOM      4  H   UNL A   1      37.901 -18.442 -38.575  0.00  0.00    +0.000 HD
ENDROOT
BRANCH   1   5
ATOM      5  C   UNL A   1      39.473 -16.419 -38.713  0.00  0.00    +0.039 C 
BRANCH   5   6
ATOM      6  C   UNL A   1      40.651 -16.646 -39.652  0.00  0.00    +0.020 C 
BRANCH   6   9
ATOM      7  C   UNL A   1      43.045 -16.086 -39.634  0.00  0.00    +0.246 C 
ATOM      8  O   UNL A   1      43.061 -15.880 -40.843  0.00  0.00    -0.270 OA
ATOM      9  N   UNL A   1      41.921 -16.525 -38.958  0.00  0.00    -0.311 N 
ATOM     10  H   UNL A   1      41.982 -16.756 -38.002  0.00  0.00    +0.000 HD
BRANCH   7  16
ATOM     11  C   UNL A   1      45.460 -16.483 -39.063  0.00  0.00    +0.044 A 
ATOM     12  C   UNL A   1      46.595 -16.109 -38.326  0.00  0.00    -0.040 A 
ATOM     13  C   UNL A   1      46.520 -15.154 -37.310  0.00  0.00    -0.060 A 
ATOM     14  C   UNL A   1      45.308 -14.531 -37.024  0.00  0.00    -0.061 A 
ATOM     15  C   UNL A   1      44.176 -14.843 -37.775  0.00  0.00    -0.048 A 
ATOM     16  C   UNL A   1      44.252 -15.790 -38.810  0.00  0.00    +0.058 A 
BRANCH  11  17
ATOM     17  N   UNL A   1      45.565 -17.410 -40.136  0.00  0.00    -0.314 N 
ATOM     18  H   UNL A   1      45.689 -17.015 -41.029  0.00  0.00    +0.000 HD
BRANCH  17  24
ATOM     19  C   UNL A   1      43.931 -21.716 -42.076  0.00  0.00    -0.039 C 
ATOM     20  C   UNL A   1      44.664 -20.930 -41.023  0.00  0.00    -0.046 A 
ATOM     21  C   UNL A   1      45.197 -21.613 -39.920  0.00  0.00    -0.058 A 
ATOM     22  C   UNL A   1      45.853 -20.924 -38.906  0.00  0.00    -0.060 A 
ATOM     23  C   UNL A   1      45.993 -19.540 -38.985  0.00  0.00    -0.040 A 
ATOM     24  C   UNL A   1      45.517 -18.830 -40.095  0.00  0.00    +0.035 A 
ATOM     25  C   UNL A   1      44.839 -19.528 -41.125  0.00  0.00    -0.026 A 
ATOM     26  C   UNL A   1      44.253 -18.763 -42.287  0.00  0.00    -0.038 C 
ENDBRANCH  17  24
ENDBRANCH  11  17
ENDBRANCH   7  16
ENDBRANCH   6   9
ENDBRANCH   5   6
ENDBRANCH   1   5
BRANCH   3  27
ATOM     27  C   UNL A   1      38.454 -19.563 -36.859  0.00  0.00    +0.012 C 
BRANCH  27  28
ATOM     28  C   UNL A   1      37.522 -19.260 -35.689  0.00  0.00    -0.037 C 
BRANCH  28  29
ATOM     29  C   UNL A   1      37.563 -20.395 -34.662  0.00  0.00    -0.052 C 
BRANCH  29  30
ATOM     30  C   UNL A   1      38.372 -21.607 -35.135  0.00  0.00    -0.052 C 
BRANCH  30  31
ATOM     31  C   UNL A   1      39.248 -22.231 -34.044  0.00  0.00    -0.037 C 
BRANCH  31  32
ATOM     32  C   UNL A   1      40.620 -21.571 -33.908  0.00  0.00    +0.009 C 
BRANCH  32  33
ATOM     33  N   UNL A   1      41.601 -22.103 -34.869  0.00  0.00    -0.343 N 
ATOM     34  H   UNL A   1      41.898 -23.042 -34.855  0.00  0.00    +0.000 HD
BRANCH  33  35
ATOM     35  C   UNL A   1      42.087 -21.163 -35.816  0.00  0.00    +0.041 A 
ATOM     36  C   UNL A   1      42.972 -20.149 -35.390  0.00  0.00    -0.005 A 
ATOM     37  C   UNL A   1      43.373 -19.197 -36.329  0.00  0.00    +0.047 A 
ATOM     38  N   UNL A   1      42.930 -19.185 -37.608  0.00  0.00    -0.251 NA
ATOM     39  C   UNL A   1      42.107 -20.155 -38.020  0.00  0.00    +0.073 A 
ATOM     40  C   UNL A   1      41.697 -20.127 -39.347  0.00  0.00    -0.036 A 
ATOM     41  C   UNL A   1      40.846 -21.093 -39.881  0.00  0.00    -0.060 A 
ATOM     42  C   UNL A   1      40.388 -22.120 -39.072  0.00  0.00    -0.061 A 
ATOM     43  C   UNL A   1      40.784 -22.166 -37.735  0.00  0.00    -0.051 A 
ATOM     44  C   UNL A   1      41.646 -21.185 -37.174  0.00  0.00    +0.021 A 
ATOM     45  C   UNL A   1      44.301 -18.065 -35.969  0.00  0.00    -0.010 C 
ATOM     46  C   UNL A   1      45.159 -18.356 -34.744  0.00  0.00    -0.047 C 
ATOM     47  C   UNL A   1      44.283 -18.871 -33.613  0.00  0.00    -0.049 C 
ATOM     48  C   UNL A   1      43.604 -20.180 -34.016  0.00  0.00    -0.024 C 
ENDBRANCH  33  35
ENDBRANCH  32  33
ENDBRANCH  31  32
ENDBRANCH  30  31
ENDBRANCH  29  30
ENDBRANCH  28  29
ENDBRANCH  27  28
ENDBRANCH   3  27
TORSDOF 14
ENDMDL
MODEL 13
REMARK VINA RESULT:    -5.810      2.156      5.460
REMARK INTER + INTRA:         -16.548
REMARK INTER:                 -11.695
REMARK INTRA:                  -4.853
REMARK UNBOUND:                -5.982
REMARK  Name = cpd35.pdb
REMARK  16 active torsions:
REMARK  status: ('A' for Active; 'I' for Inactive)
REMARK    1  A    between atoms: C_1  and  C_2
REMARK    2  A    between atoms: C_6  and  N_7
REMARK    3  A    between atoms: N_7  and  C_8
REMARK    4  A    between atoms: C_13  and  C_14
REMARK    5  A    between atoms: N_16  and  C_17
REMARK    6  A    between atoms: C_17  and  C_18
REMARK    7  A    between atoms: C_18  and  C_19
REMARK    8  A    between atoms: N_21  and  C_22
REMARK    9  A    between atoms: C_22  and  C_23
REMARK   10  A    between atoms: C_23  and  C_24
REMARK   11  A    between atoms: C_24  and  C_25
REMARK   12  A    between atoms: C_25  and  C_26
REMARK   13  A    between atoms: C_26  and  C_27
REMARK   14  A    between atoms: C_27  and  N_28
REMARK   15  A    between atoms: N_28  and  C_29
REMARK   16  A    between atoms: C_43  and  C_44
REMARK                            x       y       z     vdW  Elec       q    Type
REMARK                         _______ _______ _______ _____ _____    ______ ____
ROOT
ATOM      1  C   UNL A   1      42.024 -15.658 -39.415  0.00  0.00    +0.215 C 
ATOM      2  O   UNL A   1      42.049 -14.918 -38.436  0.00  0.00    -0.276 OA
ATOM      3  N   UNL A   1      41.144 -16.715 -39.537  0.00  0.00    -0.315 N 
ATOM      4  H   UNL A   1      41.128 -17.253 -40.362  0.00  0.00    +0.000 HD
ENDROOT
BRANCH   1   5
ATOM      5  C   UNL A   1      42.982 -15.491 -40.570  0.00  0.00    +0.039 C 
BRANCH   5   6
ATOM      6  C   UNL A   1      44.429 -15.456 -40.097  0.00  0.00    +0.020 C 
BRANCH   6   9
ATOM      7  C   UNL A   1      46.031 -16.810 -38.813  0.00  0.00    +0.246 C 
ATOM      8  O   UNL A   1      46.993 -16.199 -39.266  0.00  0.00    -0.270 OA
ATOM      9  N   UNL A   1      44.727 -16.561 -39.202  0.00  0.00    -0.311 N 
ATOM     10  H   UNL A   1      43.998 -17.135 -38.872  0.00  0.00    +0.000 HD
BRANCH   7  16
ATOM     11  C   UNL A   1      46.816 -19.072 -38.051  0.00  0.00    +0.044 A 
ATOM     12  C   UNL A   1      47.069 -19.961 -36.993  0.00  0.00    -0.040 A 
ATOM     13  C   UNL A   1      46.669 -19.667 -35.688  0.00  0.00    -0.060 A 
ATOM     14  C   UNL A   1      46.028 -18.464 -35.405  0.00  0.00    -0.061 A 
ATOM     15  C   UNL A   1      45.813 -17.539 -36.426  0.00  0.00    -0.048 A 
ATOM     16  C   UNL A   1      46.229 -17.823 -37.738  0.00  0.00    +0.058 A 
BRANCH  11  17
ATOM     17  N   UNL A   1      47.285 -19.356 -39.363  0.00  0.00    -0.314 N 
ATOM     18  H   UNL A   1      47.794 -18.634 -39.798  0.00  0.00    +0.000 HD
BRANCH  17  24
ATOM     19  C   UNL A   1      44.697 -21.954 -42.758  0.00  0.00    -0.039 C 
ATOM     20  C   UNL A   1      45.811 -21.823 -41.756  0.00  0.00    -0.046 A 
ATOM     21  C   UNL A   1      46.616 -22.942 -41.494  0.00  0.00    -0.058 A 
ATOM     22  C   UNL A   1      47.636 -22.878 -40.551  0.00  0.00    -0.060 A 
ATOM     23  C   UNL A   1      47.872 -21.691 -39.862  0.00  0.00    -0.040 A 
ATOM     24  C   UNL A   1      47.120 -20.540 -40.132  0.00  0.00    +0.035 A 
ATOM     25  C   UNL A   1      46.073 -20.605 -41.084  0.00  0.00    -0.026 A 
ATOM     26  C   UNL A   1      45.206 -19.392 -41.326  0.00  0.00    -0.038 C 
ENDBRANCH  17  24
ENDBRANCH  11  17
ENDBRANCH   7  16
ENDBRANCH   6   9
ENDBRANCH   5   6
ENDBRANCH   1   5
BRANCH   3  27
ATOM     27  C   UNL A   1      40.245 -17.026 -38.445  0.00  0.00    +0.012 C 
BRANCH  27  28
ATOM     28  C   UNL A   1      40.871 -17.998 -37.449  0.00  0.00    -0.037 C 
BRANCH  28  29
ATOM     29  C   UNL A   1      41.468 -19.204 -38.179  0.00  0.00    -0.052 C 
BRANCH  29  30
ATOM     30  C   UNL A   1      42.946 -19.436 -37.850  0.00  0.00    -0.052 C 
BRANCH  30  31
ATOM     31  C   UNL A   1      43.205 -20.700 -37.023  0.00  0.00    -0.037 C 
BRANCH  31  32
ATOM     32  C   UNL A   1      41.945 -21.282 -36.383  0.00  0.00    +0.009 C 
BRANCH  32  33
ATOM     33  N   UNL A   1      41.992 -21.250 -34.912  0.00  0.00    -0.343 N 
ATOM     34  H   UNL A   1      42.627 -21.794 -34.391  0.00  0.00    +0.000 HD
BRANCH  33  35
ATOM     35  C   UNL A   1      41.055 -20.375 -34.299  0.00  0.00    +0.041 A 
ATOM     36  C   UNL A   1      39.752 -20.844 -34.024  0.00  0.00    -0.005 A 
ATOM     37  C   UNL A   1      38.834 -19.938 -33.489  0.00  0.00    +0.047 A 
ATOM     38  N   UNL A   1      39.125 -18.637 -33.255  0.00  0.00    -0.251 NA
ATOM     39  C   UNL A   1      40.365 -18.195 -33.497  0.00  0.00    +0.073 A 
ATOM     40  C   UNL A   1      40.636 -16.862 -33.216  0.00  0.00    -0.036 A 
ATOM     41  C   UNL A   1      41.895 -16.301 -33.424  0.00  0.00    -0.060 A 
ATOM     42  C   UNL A   1      42.918 -17.089 -33.924  0.00  0.00    -0.061 A 
ATOM     43  C   UNL A   1      42.668 -18.430 -34.216  0.00  0.00    -0.051 A 
ATOM     44  C   UNL A   1      41.388 -19.015 -34.017  0.00  0.00    +0.021 A 
ATOM     45  C   UNL A   1      37.414 -20.335 -33.178  0.00  0.00    -0.010 C 
ATOM     46  C   UNL A   1      37.240 -21.834 -32.965  0.00  0.00    -0.047 C 
ATOM     47  C   UNL A   1      37.899 -22.595 -34.104  0.00  0.00    -0.049 C 
ATOM     48  C   UNL A   1      39.400 -22.310 -34.139  0.00  0.00    -0.024 C 
ENDBRANCH  33  35
ENDBRANCH  32  33
ENDBRANCH  31  32
ENDBRANCH  30  31
ENDBRANCH  29  30
ENDBRANCH  28  29
ENDBRANCH  27  28
ENDBRANCH   3  27
TORSDOF 14
ENDMDL
MODEL 14
REMARK VINA RESULT:    -5.787      2.825      6.916
REMARK INTER + INTRA:         -16.504
REMARK INTER:                 -10.822
REMARK INTRA:                  -5.683
REMARK UNBOUND:                -5.982
REMARK  Name = cpd35.pdb
REMARK  16 active torsions:
REMARK  status: ('A' for Active; 'I' for Inactive)
REMARK    1  A    between atoms: C_1  and  C_2
REMARK    2  A    between atoms: C_6  and  N_7
REMARK    3  A    between atoms: N_7  and  C_8
REMARK    4  A    between atoms: C_13  and  C_14
REMARK    5  A    between atoms: N_16  and  C_17
REMARK    6  A    between atoms: C_17  and  C_18
REMARK    7  A    between atoms: C_18  and  C_19
REMARK    8  A    between atoms: N_21  and  C_22
REMARK    9  A    between atoms: C_22  and  C_23
REMARK   10  A    between atoms: C_23  and  C_24
REMARK   11  A    between atoms: C_24  and  C_25
REMARK   12  A    between atoms: C_25  and  C_26
REMARK   13  A    between atoms: C_26  and  C_27
REMARK   14  A    between atoms: C_27  and  N_28
REMARK   15  A    between atoms: N_28  and  C_29
REMARK   16  A    between atoms: C_43  and  C_44
REMARK                            x       y       z     vdW  Elec       q    Type
REMARK                         _______ _______ _______ _____ _____    ______ ____
ROOT
ATOM      1  C   UNL A   1      40.708 -20.128 -33.514  0.00  0.00    +0.215 C 
ATOM      2  O   UNL A   1      41.476 -21.068 -33.335  0.00  0.00    -0.276 OA
ATOM      3  N   UNL A   1      40.295 -19.720 -34.767  0.00  0.00    -0.315 N 
ATOM      4  H   UNL A   1      39.640 -18.991 -34.860  0.00  0.00    +0.000 HD
ENDROOT
BRANCH   1   5
ATOM      5  C   UNL A   1      40.162 -19.311 -32.368  0.00  0.00    +0.039 C 
BRANCH   5   6
ATOM      6  C   UNL A   1      39.767 -17.910 -32.817  0.00  0.00    +0.020 C 
BRANCH   6   9
ATOM      7  C   UNL A   1      41.284 -16.360 -33.975  0.00  0.00    +0.246 C 
ATOM      8  O   UNL A   1      40.769 -16.585 -35.066  0.00  0.00    -0.270 OA
ATOM      9  N   UNL A   1      40.903 -17.005 -32.812  0.00  0.00    -0.311 N 
ATOM     10  H   UNL A   1      41.404 -16.851 -31.978  0.00  0.00    +0.000 HD
BRANCH   7  16
ATOM     11  C   UNL A   1      43.407 -15.262 -34.750  0.00  0.00    +0.044 A 
ATOM     12  C   UNL A   1      44.310 -14.191 -34.649  0.00  0.00    -0.040 A 
ATOM     13  C   UNL A   1      44.200 -13.242 -33.630  0.00  0.00    -0.060 A 
ATOM     14  C   UNL A   1      43.166 -13.329 -32.702  0.00  0.00    -0.061 A 
ATOM     15  C   UNL A   1      42.223 -14.350 -32.810  0.00  0.00    -0.048 A 
ATOM     16  C   UNL A   1      42.321 -15.296 -33.844  0.00  0.00    +0.058 A 
BRANCH  11  17
ATOM     17  N   UNL A   1      43.495 -16.183 -35.829  0.00  0.00    -0.314 N 
ATOM     18  H   UNL A   1      42.977 -15.948 -36.633  0.00  0.00    +0.000 HD
BRANCH  17  24
ATOM     19  C   UNL A   1      47.213 -18.843 -37.849  0.00  0.00    -0.039 C 
ATOM     20  C   UNL A   1      46.018 -18.709 -36.944  0.00  0.00    -0.046 A 
ATOM     21  C   UNL A   1      45.555 -19.846 -36.267  0.00  0.00    -0.058 A 
ATOM     22  C   UNL A   1      44.434 -19.777 -35.446  0.00  0.00    -0.060 A 
ATOM     23  C   UNL A   1      43.765 -18.566 -35.285  0.00  0.00    -0.040 A 
ATOM     24  C   UNL A   1      44.228 -17.399 -35.907  0.00  0.00    +0.035 A 
ATOM     25  C   UNL A   1      45.363 -17.468 -36.752  0.00  0.00    -0.026 A 
ATOM     26  C   UNL A   1      45.823 -16.233 -37.488  0.00  0.00    -0.038 C 
ENDBRANCH  17  24
ENDBRANCH  11  17
ENDBRANCH   7  16
ENDBRANCH   6   9
ENDBRANCH   5   6
ENDBRANCH   1   5
BRANCH   3  27
ATOM     27  C   UNL A   1      40.833 -20.373 -35.943  0.00  0.00    +0.012 C 
BRANCH  27  28
ATOM     28  C   UNL A   1      39.823 -21.324 -36.580  0.00  0.00    -0.037 C 
BRANCH  28  29
ATOM     29  C   UNL A   1      39.206 -20.694 -37.831  0.00  0.00    -0.052 C 
BRANCH  29  30
ATOM     30  C   UNL A   1      39.922 -21.098 -39.124  0.00  0.00    -0.052 C 
BRANCH  30  31
ATOM     31  C   UNL A   1      40.926 -22.242 -38.945  0.00  0.00    -0.037 C 
BRANCH  31  32
ATOM     32  C   UNL A   1      42.239 -22.027 -39.696  0.00  0.00    +0.009 C 
BRANCH  32  33
ATOM     33  N   UNL A   1      43.224 -21.268 -38.909  0.00  0.00    -0.343 N 
ATOM     34  H   UNL A   1      43.338 -21.397 -37.939  0.00  0.00    +0.000 HD
BRANCH  33  35
ATOM     35  C   UNL A   1      43.998 -20.335 -39.650  0.00  0.00    +0.041 A 
ATOM     36  C   UNL A   1      43.534 -19.008 -39.785  0.00  0.00    -0.005 A 
ATOM     37  C   UNL A   1      44.280 -18.136 -40.582  0.00  0.00    +0.047 A 
ATOM     38  N   UNL A   1      45.396 -18.511 -41.248  0.00  0.00    -0.251 NA
ATOM     39  C   UNL A   1      45.848 -19.762 -41.106  0.00  0.00    +0.073 A 
ATOM     40  C   UNL A   1      47.013 -20.102 -41.781  0.00  0.00    -0.036 A 
ATOM     41  C   UNL A   1      47.575 -21.376 -41.697  0.00  0.00    -0.060 A 
ATOM     42  C   UNL A   1      46.960 -22.342 -40.917  0.00  0.00    -0.061 A 
ATOM     43  C   UNL A   1      45.786 -22.023 -40.233  0.00  0.00    -0.051 A 
ATOM     44  C   UNL A   1      45.198 -20.731 -40.314  0.00  0.00    +0.021 A 
ATOM     45  C   UNL A   1      43.860 -16.706 -40.804  0.00  0.00    -0.010 C 
ATOM     46  C   UNL A   1      42.947 -16.169 -39.708  0.00  0.00    -0.047 C 
ATOM     47  C   UNL A   1      41.816 -17.152 -39.453  0.00  0.00    -0.049 C 
ATOM     48  C   UNL A   1      42.371 -18.491 -38.968  0.00  0.00    -0.024 C 
ENDBRANCH  33  35
ENDBRANCH  32  33
ENDBRANCH  31  32
ENDBRANCH  30  31
ENDBRANCH  29  30
ENDBRANCH  28  29
ENDBRANCH  27  28
ENDBRANCH   3  27
TORSDOF 14
ENDMDL
MODEL 15
REMARK VINA RESULT:    -5.755      2.093      6.016
REMARK INTER + INTRA:         -16.447
REMARK INTER:                 -10.778
REMARK INTRA:                  -5.669
REMARK UNBOUND:                -5.982
REMARK  Name = cpd35.pdb
REMARK  16 active torsions:
REMARK  status: ('A' for Active; 'I' for Inactive)
REMARK    1  A    between atoms: C_1  and  C_2
REMARK    2  A    between atoms: C_6  and  N_7
REMARK    3  A    between atoms: N_7  and  C_8
REMARK    4  A    between atoms: C_13  and  C_14
REMARK    5  A    between atoms: N_16  and  C_17
REMARK    6  A    between atoms: C_17  and  C_18
REMARK    7  A    between atoms: C_18  and  C_19
REMARK    8  A    between atoms: N_21  and  C_22
REMARK    9  A    between atoms: C_22  and  C_23
REMARK   10  A    between atoms: C_23  and  C_24
REMARK   11  A    between atoms: C_24  and  C_25
REMARK   12  A    between atoms: C_25  and  C_26
REMARK   13  A    between atoms: C_26  and  C_27
REMARK   14  A    between atoms: C_27  and  N_28
REMARK   15  A    between atoms: N_28  and  C_29
REMARK   16  A    between atoms: C_43  and  C_44
REMARK                            x       y       z     vdW  Elec       q    Type
REMARK                         _______ _______ _______ _____ _____    ______ ____
ROOT
ATOM      1  C   UNL A   1      42.906 -19.657 -33.861  0.00  0.00    +0.215 C 
ATOM      2  O   UNL A   1      42.974 -19.508 -35.077  0.00  0.00    -0.276 OA
ATOM      3  N   UNL A   1      43.458 -18.768 -32.960  0.00  0.00    -0.315 N 
ATOM      4  H   UNL A   1      43.338 -18.904 -31.992  0.00  0.00    +0.000 HD
ENDROOT
BRANCH   1   5
ATOM      5  C   UNL A   1      42.227 -20.853 -33.238  0.00  0.00    +0.039 C 
BRANCH   5   6
ATOM      6  C   UNL A   1      40.893 -21.153 -33.909  0.00  0.00    +0.020 C 
BRANCH   6   9
ATOM      7  C   UNL A   1      40.185 -21.083 -36.263  0.00  0.00    +0.246 C 
ATOM      8  O   UNL A   1      39.177 -20.436 -35.996  0.00  0.00    -0.270 OA
ATOM      9  N   UNL A   1      41.067 -21.537 -35.299  0.00  0.00    -0.311 N 
ATOM     10  H   UNL A   1      41.816 -22.123 -35.556  0.00  0.00    +0.000 HD
BRANCH   7  16
ATOM     11  C   UNL A   1      41.092 -20.305 -38.473  0.00  0.00    +0.044 A 
ATOM     12  C   UNL A   1      41.506 -20.620 -39.778  0.00  0.00    -0.040 A 
ATOM     13  C   UNL A   1      41.302 -21.892 -40.317  0.00  0.00    -0.060 A 
ATOM     14  C   UNL A   1      40.701 -22.888 -39.553  0.00  0.00    -0.061 A 
ATOM     15  C   UNL A   1      40.329 -22.619 -38.236  0.00  0.00    -0.048 A 
ATOM     16  C   UNL A   1      40.548 -21.347 -37.684  0.00  0.00    +0.058 A 
BRANCH  11  17
ATOM     17  N   UNL A   1      41.363 -19.025 -37.916  0.00  0.00    -0.314 N 
ATOM     18  H   UNL A   1      42.017 -19.012 -37.180  0.00  0.00    +0.000 HD
BRANCH  17  24
ATOM     19  C   UNL A   1      39.191 -14.732 -36.565  0.00  0.00    -0.039 C 
ATOM     20  C   UNL A   1      39.706 -15.687 -37.607  0.00  0.00    -0.046 A 
ATOM     21  C   UNL A   1      39.524 -15.368 -38.961  0.00  0.00    -0.058 A 
ATOM     22  C   UNL A   1      39.953 -16.237 -39.959  0.00  0.00    -0.060 A 
ATOM     23  C   UNL A   1      40.578 -17.433 -39.617  0.00  0.00    -0.040 A 
ATOM     24  C   UNL A   1      40.820 -17.762 -38.277  0.00  0.00    +0.035 A 
ATOM     25  C   UNL A   1      40.374 -16.885 -37.257  0.00  0.00    -0.026 A 
ATOM     26  C   UNL A   1      40.560 -17.267 -35.808  0.00  0.00    -0.038 C 
ENDBRANCH  17  24
ENDBRANCH  11  17
ENDBRANCH   7  16
ENDBRANCH   6   9
ENDBRANCH   5   6
ENDBRANCH   1   5
BRANCH   3  27
ATOM     27  C   UNL A   1      44.216 -17.634 -33.450  0.00  0.00    +0.012 C 
BRANCH  27  28
ATOM     28  C   UNL A   1      45.646 -18.020 -33.819  0.00  0.00    -0.037 C 
BRANCH  28  29
ATOM     29  C   UNL A   1      46.043 -17.394 -35.158  0.00  0.00    -0.052 C 
BRANCH  29  30
ATOM     30  C   UNL A   1      47.302 -18.020 -35.767  0.00  0.00    -0.052 C 
BRANCH  30  31
ATOM     31  C   UNL A   1      47.114 -18.513 -37.206  0.00  0.00    -0.037 C 
BRANCH  31  32
ATOM     32  C   UNL A   1      46.197 -19.730 -37.321  0.00  0.00    +0.009 C 
BRANCH  32  33
ATOM     33  N   UNL A   1      44.827 -19.370 -37.723  0.00  0.00    -0.343 N 
ATOM     34  H   UNL A   1      44.060 -19.446 -37.110  0.00  0.00    +0.000 HD
BRANCH  33  35
ATOM     35  C   UNL A   1      44.694 -18.904 -39.059  0.00  0.00    +0.041 A 
ATOM     36  C   UNL A   1      44.307 -17.566 -39.287  0.00  0.00    -0.005 A 
ATOM     37  C   UNL A   1      44.114 -17.161 -40.610  0.00  0.00    +0.047 A 
ATOM     38  N   UNL A   1      44.250 -17.994 -41.667  0.00  0.00    -0.251 NA
ATOM     39  C   UNL A   1      44.636 -19.257 -41.455  0.00  0.00    +0.073 A 
ATOM     40  C   UNL A   1      44.794 -20.074 -42.567  0.00  0.00    -0.036 A 
ATOM     41  C   UNL A   1      45.199 -21.404 -42.460  0.00  0.00    -0.060 A 
ATOM     42  C   UNL A   1      45.456 -21.938 -41.208  0.00  0.00    -0.061 A 
ATOM     43  C   UNL A   1      45.301 -21.137 -40.077  0.00  0.00    -0.051 A 
ATOM     44  C   UNL A   1      44.882 -19.782 -40.170  0.00  0.00    +0.021 A 
ATOM     45  C   UNL A   1      43.683 -15.760 -40.957  0.00  0.00    -0.010 C 
ATOM     46  C   UNL A   1      44.013 -14.741 -39.873  0.00  0.00    -0.047 C 
ATOM     47  C   UNL A   1      43.542 -15.256 -38.523  0.00  0.00    -0.049 C 
ATOM     48  C   UNL A   1      44.265 -16.554 -38.164  0.00  0.00    -0.024 C 
ENDBRANCH  33  35
ENDBRANCH  32  33
ENDBRANCH  31  32
ENDBRANCH  30  31
ENDBRANCH  29  30
ENDBRANCH  28  29
ENDBRANCH  27  28
ENDBRANCH   3  27
TORSDOF 14
ENDMDL
MODEL 16
REMARK VINA RESULT:    -5.717      1.929      6.939
REMARK INTER + INTRA:         -16.377
REMARK INTER:                 -11.319
REMARK INTRA:                  -5.058
REMARK UNBOUND:                -5.982
REMARK  Name = cpd35.pdb
REMARK  16 active torsions:
REMARK  status: ('A' for Active; 'I' for Inactive)
REMARK    1  A    between atoms: C_1  and  C_2
REMARK    2  A    between atoms: C_6  and  N_7
REMARK    3  A    between atoms: N_7  and  C_8
REMARK    4  A    between atoms: C_13  and  C_14
REMARK    5  A    between atoms: N_16  and  C_17
REMARK    6  A    between atoms: C_17  and  C_18
REMARK    7  A    between atoms: C_18  and  C_19
REMARK    8  A    between atoms: N_21  and  C_22
REMARK    9  A    between atoms: C_22  and  C_23
REMARK   10  A    between atoms: C_23  and  C_24
REMARK   11  A    between atoms: C_24  and  C_25
REMARK   12  A    between atoms: C_25  and  C_26
REMARK   13  A    between atoms: C_26  and  C_27
REMARK   14  A    between atoms: C_27  and  N_28
REMARK   15  A    between atoms: N_28  and  C_29
REMARK   16  A    between atoms: C_43  and  C_44
REMARK                            x       y       z     vdW  Elec       q    Type
REMARK                         _______ _______ _______ _____ _____    ______ ____
ROOT
ATOM      1  C   UNL A   1      47.198 -18.291 -36.570  0.00  0.00    +0.215 C 
ATOM      2  O   UNL A   1      47.251 -19.079 -37.509  0.00  0.00    -0.276 OA
ATOM      3  N   UNL A   1      47.157 -16.921 -36.737  0.00  0.00    -0.315 N 
ATOM      4  H   UNL A   1      47.067 -16.329 -35.956  0.00  0.00    +0.000 HD
ENDROOT
BRANCH   1   5
ATOM      5  C   UNL A   1      47.201 -18.755 -35.133  0.00  0.00    +0.039 C 
BRANCH   5   6
ATOM      6  C   UNL A   1      45.961 -19.578 -34.807  0.00  0.00    +0.020 C 
BRANCH   6   9
ATOM      7  C   UNL A   1      43.742 -18.519 -34.736  0.00  0.00    +0.246 C 
ATOM      8  O   UNL A   1      43.710 -18.546 -33.510  0.00  0.00    -0.270 OA
ATOM      9  N   UNL A   1      44.781 -19.056 -35.476  0.00  0.00    -0.311 N 
ATOM     10  H   UNL A   1      44.721 -19.085 -36.458  0.00  0.00    +0.000 HD
BRANCH   7  16
ATOM     11  C   UNL A   1      41.318 -18.204 -35.317  0.00  0.00    +0.044 A 
ATOM     12  C   UNL A   1      40.331 -17.459 -35.982  0.00  0.00    -0.040 A 
ATOM     13  C   UNL A   1      40.669 -16.433 -36.868  0.00  0.00    -0.060 A 
ATOM     14  C   UNL A   1      42.005 -16.112 -37.089  0.00  0.00    -0.061 A 
ATOM     15  C   UNL A   1      43.005 -16.800 -36.402  0.00  0.00    -0.048 A 
ATOM     16  C   UNL A   1      42.668 -17.820 -35.497  0.00  0.00    +0.058 A 
BRANCH  11  17
ATOM     17  N   UNL A   1      40.958 -19.202 -34.370  0.00  0.00    -0.314 N 
ATOM     18  H   UNL A   1      41.169 -18.994 -33.432  0.00  0.00    +0.000 HD
BRANCH  17  24
ATOM     19  C   UNL A   1      37.330 -22.460 -33.274  0.00  0.00    -0.039 C 
ATOM     20  C   UNL A   1      38.583 -22.069 -34.008  0.00  0.00    -0.046 A 
ATOM     21  C   UNL A   1      39.207 -23.020 -34.830  0.00  0.00    -0.058 A 
ATOM     22  C   UNL A   1      40.385 -22.713 -35.502  0.00  0.00    -0.060 A 
ATOM     23  C   UNL A   1      40.953 -21.449 -35.368  0.00  0.00    -0.040 A 
ATOM     24  C   UNL A   1      40.333 -20.459 -34.595  0.00  0.00    +0.035 A 
ATOM     25  C   UNL A   1      39.138 -20.771 -33.900  0.00  0.00    -0.026 A 
ATOM     26  C   UNL A   1      38.504 -19.736 -33.002  0.00  0.00    -0.038 C 
ENDBRANCH  17  24
ENDBRANCH  11  17
ENDBRANCH   7  16
ENDBRANCH   6   9
ENDBRANCH   5   6
ENDBRANCH   1   5
BRANCH   3  27
ATOM     27  C   UNL A   1      47.246 -16.362 -38.071  0.00  0.00    +0.012 C 
BRANCH  27  28
ATOM     28  C   UNL A   1      46.227 -15.247 -38.292  0.00  0.00    -0.037 C 
BRANCH  28  29
ATOM     29  C   UNL A   1      46.435 -14.594 -39.661  0.00  0.00    -0.052 C 
BRANCH  29  30
ATOM     30  C   UNL A   1      45.533 -15.181 -40.751  0.00  0.00    -0.052 C 
BRANCH  30  31
ATOM     31  C   UNL A   1      44.080 -15.384 -40.309  0.00  0.00    -0.037 C 
BRANCH  31  32
ATOM     32  C   UNL A   1      43.558 -16.800 -40.554  0.00  0.00    +0.009 C 
BRANCH  32  33
ATOM     33  N   UNL A   1      44.087 -17.773 -39.585  0.00  0.00    -0.343 N 
ATOM     34  H   UNL A   1      44.505 -17.499 -38.736  0.00  0.00    +0.000 HD
BRANCH  33  35
ATOM     35  C   UNL A   1      43.951 -19.135 -39.964  0.00  0.00    +0.041 A 
ATOM     36  C   UNL A   1      44.996 -19.760 -40.679  0.00  0.00    -0.005 A 
ATOM     37  C   UNL A   1      44.799 -21.077 -41.100  0.00  0.00    +0.047 A 
ATOM     38  N   UNL A   1      43.653 -21.761 -40.885  0.00  0.00    -0.251 NA
ATOM     39  C   UNL A   1      42.668 -21.179 -40.191  0.00  0.00    +0.073 A 
ATOM     40  C   UNL A   1      41.518 -21.923 -39.963  0.00  0.00    -0.036 A 
ATOM     41  C   UNL A   1      40.435 -21.415 -39.246  0.00  0.00    -0.060 A 
ATOM     42  C   UNL A   1      40.498 -20.128 -38.738  0.00  0.00    -0.061 A 
ATOM     43  C   UNL A   1      41.643 -19.361 -38.958  0.00  0.00    -0.051 A 
ATOM     44  C   UNL A   1      42.752 -19.862 -39.693  0.00  0.00    +0.021 A 
ATOM     45  C   UNL A   1      45.846 -21.825 -41.885  0.00  0.00    -0.010 C 
ATOM     46  C   UNL A   1      47.253 -21.273 -41.692  0.00  0.00    -0.047 C 
ATOM     47  C   UNL A   1      47.245 -19.765 -41.883  0.00  0.00    -0.049 C 
ATOM     48  C   UNL A   1      46.347 -19.100 -40.840  0.00  0.00    -0.024 C 
ENDBRANCH  33  35
ENDBRANCH  32  33
ENDBRANCH  31  32
ENDBRANCH  30  31
ENDBRANCH  29  30
ENDBRANCH  28  29
ENDBRANCH  27  28
ENDBRANCH   3  27
TORSDOF 14
ENDMDL
MODEL 17
REMARK VINA RESULT:    -5.689      2.053      4.119
REMARK INTER + INTRA:         -16.327
REMARK INTER:                 -11.104
REMARK INTRA:                  -5.223
REMARK UNBOUND:                -5.982
REMARK  Name = cpd35.pdb
REMARK  16 active torsions:
REMARK  status: ('A' for Active; 'I' for Inactive)
REMARK    1  A    between atoms: C_1  and  C_2
REMARK    2  A    between atoms: C_6  and  N_7
REMARK    3  A    between atoms: N_7  and  C_8
REMARK    4  A    between atoms: C_13  and  C_14
REMARK    5  A    between atoms: N_16  and  C_17
REMARK    6  A    between atoms: C_17  and  C_18
REMARK    7  A    between atoms: C_18  and  C_19
REMARK    8  A    between atoms: N_21  and  C_22
REMARK    9  A    between atoms: C_22  and  C_23
REMARK   10  A    between atoms: C_23  and  C_24
REMARK   11  A    between atoms: C_24  and  C_25
REMARK   12  A    between atoms: C_25  and  C_26
REMARK   13  A    between atoms: C_26  and  C_27
REMARK   14  A    between atoms: C_27  and  N_28
REMARK   15  A    between atoms: N_28  and  C_29
REMARK   16  A    between atoms: C_43  and  C_44
REMARK                            x       y       z     vdW  Elec       q    Type
REMARK                         _______ _______ _______ _____ _____    ______ ____
ROOT
ATOM      1  C   UNL A   1      42.962 -14.264 -37.995  0.00  0.00    +0.215 C 
ATOM      2  O   UNL A   1      42.668 -13.724 -36.932  0.00  0.00    -0.276 OA
ATOM      3  N   UNL A   1      42.403 -15.455 -38.415  0.00  0.00    -0.315 N 
ATOM      4  H   UNL A   1      42.635 -15.827 -39.297  0.00  0.00    +0.000 HD
ENDROOT
BRANCH   1   5
ATOM      5  C   UNL A   1      43.993 -13.681 -38.932  0.00  0.00    +0.039 C 
BRANCH   5   6
ATOM      6  C   UNL A   1      45.411 -13.982 -38.463  0.00  0.00    +0.020 C 
BRANCH   6   9
ATOM      7  C   UNL A   1      46.515 -16.165 -38.210  0.00  0.00    +0.246 C 
ATOM      8  O   UNL A   1      47.305 -15.931 -39.119  0.00  0.00    -0.270 OA
ATOM      9  N   UNL A   1      45.503 -15.295 -37.846  0.00  0.00    -0.311 N 
ATOM     10  H   UNL A   1      44.843 -15.565 -37.167  0.00  0.00    +0.000 HD
BRANCH   7  16
ATOM     11  C   UNL A   1      46.886 -18.643 -38.028  0.00  0.00    +0.044 A 
ATOM     12  C   UNL A   1      47.115 -19.766 -37.215  0.00  0.00    -0.040 A 
ATOM     13  C   UNL A   1      47.033 -19.683 -35.824  0.00  0.00    -0.060 A 
ATOM     14  C   UNL A   1      46.745 -18.467 -35.211  0.00  0.00    -0.061 A 
ATOM     15  C   UNL A   1      46.567 -17.325 -35.990  0.00  0.00    -0.048 A 
ATOM     16  C   UNL A   1      46.666 -17.400 -37.389  0.00  0.00    +0.058 A 
BRANCH  11  17
ATOM     17  N   UNL A   1      47.036 -18.729 -39.440  0.00  0.00    -0.314 N 
ATOM     18  H   UNL A   1      47.932 -18.514 -39.786  0.00  0.00    +0.000 HD
BRANCH  17  24
ATOM     19  C   UNL A   1      45.217 -22.070 -42.680  0.00  0.00    -0.039 C 
ATOM     20  C   UNL A   1      45.220 -20.708 -42.042  0.00  0.00    -0.046 A 
ATOM     21  C   UNL A   1      44.329 -19.737 -42.522  0.00  0.00    -0.058 A 
ATOM     22  C   UNL A   1      44.319 -18.454 -41.986  0.00  0.00    -0.060 A 
ATOM     23  C   UNL A   1      45.197 -18.125 -40.956  0.00  0.00    -0.040 A 
ATOM     24  C   UNL A   1      46.068 -19.082 -40.419  0.00  0.00    +0.035 A 
ATOM     25  C   UNL A   1      46.088 -20.387 -40.970  0.00  0.00    -0.026 A 
ATOM     26  C   UNL A   1      47.077 -21.403 -40.451  0.00  0.00    -0.038 C 
ENDBRANCH  17  24
ENDBRANCH  11  17
ENDBRANCH   7  16
ENDBRANCH   6   9
ENDBRANCH   5   6
ENDBRANCH   1   5
BRANCH   3  27
ATOM     27  C   UNL A   1      41.474 -16.152 -37.549  0.00  0.00    +0.012 C 
BRANCH  27  28
ATOM     28  C   UNL A   1      42.006 -17.517 -37.122  0.00  0.00    -0.037 C 
BRANCH  28  29
ATOM     29  C   UNL A   1      42.793 -18.168 -38.263  0.00  0.00    -0.052 C 
BRANCH  29  30
ATOM     30  C   UNL A   1      43.413 -19.514 -37.876  0.00  0.00    -0.052 C 
BRANCH  30  31
ATOM     31  C   UNL A   1      43.000 -20.672 -38.791  0.00  0.00    -0.037 C 
BRANCH  31  32
ATOM     32  C   UNL A   1      41.817 -20.340 -39.701  0.00  0.00    +0.009 C 
BRANCH  32  33
ATOM     33  N   UNL A   1      40.593 -21.065 -39.323  0.00  0.00    -0.343 N 
ATOM     34  H   UNL A   1      40.308 -21.893 -39.773  0.00  0.00    +0.000 HD
BRANCH  33  35
ATOM     35  C   UNL A   1      39.852 -20.480 -38.261  0.00  0.00    +0.041 A 
ATOM     36  C   UNL A   1      39.119 -19.297 -38.502  0.00  0.00    -0.005 A 
ATOM     37  C   UNL A   1      38.462 -18.708 -37.419  0.00  0.00    +0.047 A 
ATOM     38  N   UNL A   1      38.522 -19.197 -36.159  0.00  0.00    -0.251 NA
ATOM     39  C   UNL A   1      39.199 -20.328 -35.933  0.00  0.00    +0.073 A 
ATOM     40  C   UNL A   1      39.213 -20.816 -34.633  0.00  0.00    -0.036 A 
ATOM     41  C   UNL A   1      39.882 -21.990 -34.288  0.00  0.00    -0.060 A 
ATOM     42  C   UNL A   1      40.557 -22.702 -35.266  0.00  0.00    -0.061 A 
ATOM     43  C   UNL A   1      40.559 -22.228 -36.579  0.00  0.00    -0.051 A 
ATOM     44  C   UNL A   1      39.887 -21.030 -36.944  0.00  0.00    +0.021 A 
ATOM     45  C   UNL A   1      37.669 -17.434 -37.568  0.00  0.00    -0.010 C 
ATOM     46  C   UNL A   1      37.198 -17.181 -38.995  0.00  0.00    -0.047 C 
ATOM     47  C   UNL A   1      38.363 -17.344 -39.958  0.00  0.00    -0.049 C 
ATOM     48  C   UNL A   1      38.905 -18.772 -39.904  0.00  0.00    -0.024 C 
ENDBRANCH  33  35
ENDBRANCH  32  33
ENDBRANCH  31  32
ENDBRANCH  30  31
ENDBRANCH  29  30
ENDBRANCH  28  29
ENDBRANCH  27  28
ENDBRANCH   3  27
TORSDOF 14
ENDMDL
MODEL 18
REMARK VINA RESULT:    -5.661      2.406      5.542
REMARK INTER + INTRA:         -16.276
REMARK INTER:                  -9.565
REMARK INTRA:                  -6.711
REMARK UNBOUND:                -5.982
REMARK  Name = cpd35.pdb
REMARK  16 active torsions:
REMARK  status: ('A' for Active; 'I' for Inactive)
REMARK    1  A    between atoms: C_1  and  C_2
REMARK    2  A    between atoms: C_6  and  N_7
REMARK    3  A    between atoms: N_7  and  C_8
REMARK    4  A    between atoms: C_13  and  C_14
REMARK    5  A    between atoms: N_16  and  C_17
REMARK    6  A    between atoms: C_17  and  C_18
REMARK    7  A    between atoms: C_18  and  C_19
REMARK    8  A    between atoms: N_21  and  C_22
REMARK    9  A    between atoms: C_22  and  C_23
REMARK   10  A    between atoms: C_23  and  C_24
REMARK   11  A    between atoms: C_24  and  C_25
REMARK   12  A    between atoms: C_25  and  C_26
REMARK   13  A    between atoms: C_26  and  C_27
REMARK   14  A    between atoms: C_27  and  N_28
REMARK   15  A    between atoms: N_28  and  C_29
REMARK   16  A    between atoms: C_43  and  C_44
REMARK                            x       y       z     vdW  Elec       q    Type
REMARK                         _______ _______ _______ _____ _____    ______ ____
ROOT
ATOM      1  C   UNL A   1      43.091 -12.846 -38.338  0.00  0.00    +0.215 C 
ATOM      2  O   UNL A   1      42.466 -11.823 -38.599  0.00  0.00    -0.276 OA
ATOM      3  N   UNL A   1      43.456 -13.772 -39.295  0.00  0.00    -0.315 N 
ATOM      4  H   UNL A   1      43.998 -14.555 -39.046  0.00  0.00    +0.000 HD
ENDROOT
BRANCH   1   5
ATOM      5  C   UNL A   1      43.496 -13.199 -36.926  0.00  0.00    +0.039 C 
BRANCH   5   6
ATOM      6  C   UNL A   1      44.981 -13.527 -36.835  0.00  0.00    +0.020 C 
BRANCH   6   9
ATOM      7  C   UNL A   1      45.563 -15.869 -37.310  0.00  0.00    +0.246 C 
ATOM      8  O   UNL A   1      45.616 -15.666 -38.519  0.00  0.00    -0.270 OA
ATOM      9  N   UNL A   1      45.201 -14.895 -36.397  0.00  0.00    -0.311 N 
ATOM     10  H   UNL A   1      45.092 -15.129 -35.446  0.00  0.00    +0.000 HD
BRANCH   7  16
ATOM     11  C   UNL A   1      45.295 -18.363 -37.168  0.00  0.00    +0.044 A 
ATOM     12  C   UNL A   1      45.771 -19.596 -36.693  0.00  0.00    -0.040 A 
ATOM     13  C   UNL A   1      46.816 -19.663 -35.769  0.00  0.00    -0.060 A 
ATOM     14  C   UNL A   1      47.427 -18.496 -35.318  0.00  0.00    -0.061 A 
ATOM     15  C   UNL A   1      47.011 -17.261 -35.813  0.00  0.00    -0.048 A 
ATOM     16  C   UNL A   1      45.972 -17.191 -36.756  0.00  0.00    +0.058 A 
BRANCH  11  17
ATOM     17  N   UNL A   1      44.273 -18.314 -38.157  0.00  0.00    -0.314 N 
ATOM     18  H   UNL A   1      43.737 -17.488 -38.173  0.00  0.00    +0.000 HD
BRANCH  17  24
ATOM     19  C   UNL A   1      44.688 -20.117 -42.799  0.00  0.00    -0.039 C 
ATOM     20  C   UNL A   1      44.090 -20.134 -41.418  0.00  0.00    -0.046 A 
ATOM     21  C   UNL A   1      43.075 -21.060 -41.135  0.00  0.00    -0.058 A 
ATOM     22  C   UNL A   1      42.471 -21.090 -39.883  0.00  0.00    -0.060 A 
ATOM     23  C   UNL A   1      42.878 -20.199 -38.893  0.00  0.00    -0.040 A 
ATOM     24  C   UNL A   1      43.921 -19.293 -39.125  0.00  0.00    +0.035 A 
ATOM     25  C   UNL A   1      44.532 -19.252 -40.402  0.00  0.00    -0.026 A 
ATOM     26  C   UNL A   1      45.603 -18.227 -40.686  0.00  0.00    -0.038 C 
ENDBRANCH  17  24
ENDBRANCH  11  17
ENDBRANCH   7  16
ENDBRANCH   6   9
ENDBRANCH   5   6
ENDBRANCH   1   5
BRANCH   3  27
ATOM     27  C   UNL A   1      43.036 -13.581 -40.669  0.00  0.00    +0.012 C 
BRANCH  27  28
ATOM     28  C   UNL A   1      42.480 -14.866 -41.278  0.00  0.00    -0.037 C 
BRANCH  28  29
ATOM     29  C   UNL A   1      42.468 -15.991 -40.240  0.00  0.00    -0.052 C 
BRANCH  29  30
ATOM     30  C   UNL A   1      41.058 -16.494 -39.914  0.00  0.00    -0.052 C 
BRANCH  30  31
ATOM     31  C   UNL A   1      40.519 -15.997 -38.568  0.00  0.00    -0.037 C 
BRANCH  31  32
ATOM     32  C   UNL A   1      41.428 -16.329 -37.385  0.00  0.00    +0.009 C 
BRANCH  32  33
ATOM     33  N   UNL A   1      40.700 -16.960 -36.272  0.00  0.00    -0.343 N 
ATOM     34  H   UNL A   1      39.876 -16.576 -35.894  0.00  0.00    +0.000 HD
BRANCH  33  35
ATOM     35  C   UNL A   1      41.275 -18.165 -35.784  0.00  0.00    +0.041 A 
ATOM     36  C   UNL A   1      40.711 -19.402 -36.165  0.00  0.00    -0.005 A 
ATOM     37  C   UNL A   1      41.252 -20.563 -35.609  0.00  0.00    +0.047 A 
ATOM     38  N   UNL A   1      42.261 -20.553 -34.708  0.00  0.00    -0.251 NA
ATOM     39  C   UNL A   1      42.810 -19.383 -34.360  0.00  0.00    +0.073 A 
ATOM     40  C   UNL A   1      43.864 -19.415 -33.455  0.00  0.00    -0.036 A 
ATOM     41  C   UNL A   1      44.512 -18.255 -33.031  0.00  0.00    -0.060 A 
ATOM     42  C   UNL A   1      44.102 -17.027 -33.521  0.00  0.00    -0.061 A 
ATOM     43  C   UNL A   1      43.043 -16.971 -34.429  0.00  0.00    -0.051 A 
ATOM     44  C   UNL A   1      42.368 -18.143 -34.866  0.00  0.00    +0.021 A 
ATOM     45  C   UNL A   1      40.709 -21.930 -35.937  0.00  0.00    -0.010 C 
ATOM     46  C   UNL A   1      39.964 -21.979 -37.265  0.00  0.00    -0.047 C 
ATOM     47  C   UNL A   1      38.958 -20.841 -37.333  0.00  0.00    -0.049 C 
ATOM     48  C   UNL A   1      39.672 -19.492 -37.261  0.00  0.00    -0.024 C 
ENDBRANCH  33  35
ENDBRANCH  32  33
ENDBRANCH  31  32
ENDBRANCH  30  31
ENDBRANCH  29  30
ENDBRANCH  28  29
ENDBRANCH  27  28
ENDBRANCH   3  27
TORSDOF 14
ENDMDL
MODEL 19
REMARK VINA RESULT:    -5.432      2.102      5.693
REMARK INTER + INTRA:         -15.859
REMARK INTER:                 -11.087
REMARK INTRA:                  -4.772
REMARK UNBOUND:                -5.982
REMARK  Name = cpd35.pdb
REMARK  16 active torsions:
REMARK  status: ('A' for Active; 'I' for Inactive)
REMARK    1  A    between atoms: C_1  and  C_2
REMARK    2  A    between atoms: C_6  and  N_7
REMARK    3  A    between atoms: N_7  and  C_8
REMARK    4  A    between atoms: C_13  and  C_14
REMARK    5  A    between atoms: N_16  and  C_17
REMARK    6  A    between atoms: C_17  and  C_18
REMARK    7  A    between atoms: C_18  and  C_19
REMARK    8  A    between atoms: N_21  and  C_22
REMARK    9  A    between atoms: C_22  and  C_23
REMARK   10  A    between atoms: C_23  and  C_24
REMARK   11  A    between atoms: C_24  and  C_25
REMARK   12  A    between atoms: C_25  and  C_26
REMARK   13  A    between atoms: C_26  and  C_27
REMARK   14  A    between atoms: C_27  and  N_28
REMARK   15  A    between atoms: N_28  and  C_29
REMARK   16  A    between atoms: C_43  and  C_44
REMARK                            x       y       z     vdW  Elec       q    Type
REMARK                         _______ _______ _______ _____ _____    ______ ____
ROOT
ATOM      1  C   UNL A   1      45.145 -14.159 -40.966  0.00  0.00    +0.215 C 
ATOM      2  O   UNL A   1      44.904 -13.055 -41.446  0.00  0.00    -0.276 OA
ATOM      3  N   UNL A   1      44.271 -15.225 -41.053  0.00  0.00    -0.315 N 
ATOM      4  H   UNL A   1      44.527 -16.105 -40.694  0.00  0.00    +0.000 HD
ENDROOT
BRANCH   1   5
ATOM      5  C   UNL A   1      46.419 -14.442 -40.206  0.00  0.00    +0.039 C 
BRANCH   5   6
ATOM      6  C   UNL A   1      46.798 -15.915 -40.278  0.00  0.00    +0.020 C 
BRANCH   6   9
ATOM      7  C   UNL A   1      45.992 -17.134 -38.300  0.00  0.00    +0.246 C 
ATOM      8  O   UNL A   1      44.845 -17.188 -38.735  0.00  0.00    -0.270 OA
ATOM      9  N   UNL A   1      47.017 -16.477 -38.956  0.00  0.00    -0.311 N 
ATOM     10  H   UNL A   1      47.899 -16.390 -38.526  0.00  0.00    +0.000 HD
BRANCH   7  16
ATOM     11  C   UNL A   1      45.904 -19.187 -36.855  0.00  0.00    +0.044 A 
ATOM     12  C   UNL A   1      46.341 -19.865 -35.706  0.00  0.00    -0.040 A 
ATOM     13  C   UNL A   1      47.112 -19.223 -34.734  0.00  0.00    -0.060 A 
ATOM     14  C   UNL A   1      47.486 -17.893 -34.903  0.00  0.00    -0.061 A 
ATOM     15  C   UNL A   1      47.111 -17.211 -36.060  0.00  0.00    -0.048 A 
ATOM     16  C   UNL A   1      46.351 -17.859 -37.048  0.00  0.00    +0.058 A 
BRANCH  11  17
ATOM     17  N   UNL A   1      45.174 -19.872 -37.866  0.00  0.00    -0.314 N 
ATOM     18  H   UNL A   1      44.199 -19.911 -37.734  0.00  0.00    +0.000 HD
BRANCH  17  24
ATOM     19  C   UNL A   1      44.319 -21.674 -42.448  0.00  0.00    -0.039 C 
ATOM     20  C   UNL A   1      45.214 -21.437 -41.262  0.00  0.00    -0.046 A 
ATOM     21  C   UNL A   1      46.511 -21.970 -41.280  0.00  0.00    -0.058 A 
ATOM     22  C   UNL A   1      47.362 -21.804 -40.193  0.00  0.00    -0.060 A 
ATOM     23  C   UNL A   1      46.930 -21.096 -39.074  0.00  0.00    -0.040 A 
ATOM     24  C   UNL A   1      45.659 -20.508 -39.041  0.00  0.00    +0.035 A 
ATOM     25  C   UNL A   1      44.786 -20.684 -40.142  0.00  0.00    -0.026 A 
ATOM     26  C   UNL A   1      43.386 -20.121 -40.083  0.00  0.00    -0.038 C 
ENDBRANCH  17  24
ENDBRANCH  11  17
ENDBRANCH   7  16
ENDBRANCH   6   9
ENDBRANCH   5   6
ENDBRANCH   1   5
BRANCH   3  27
ATOM     27  C   UNL A   1      42.977 -15.038 -41.677  0.00  0.00    +0.012 C 
BRANCH  27  28
ATOM     28  C   UNL A   1      41.911 -14.625 -40.665  0.00  0.00    -0.037 C 
BRANCH  28  29
ATOM     29  C   UNL A   1      41.935 -15.555 -39.449  0.00  0.00    -0.052 C 
BRANCH  29  30
ATOM     30  C   UNL A   1      41.413 -16.962 -39.757  0.00  0.00    -0.052 C 
BRANCH  30  31
ATOM     31  C   UNL A   1      40.113 -17.314 -39.025  0.00  0.00    -0.037 C 
BRANCH  31  32
ATOM     32  C   UNL A   1      40.326 -17.759 -37.578  0.00  0.00    +0.009 C 
BRANCH  32  33
ATOM     33  N   UNL A   1      41.549 -18.561 -37.408  0.00  0.00    -0.343 N 
ATOM     34  H   UNL A   1      42.249 -18.610 -38.099  0.00  0.00    +0.000 HD
BRANCH  33  35
ATOM     35  C   UNL A   1      41.643 -19.260 -36.175  0.00  0.00    +0.041 A 
ATOM     36  C   UNL A   1      42.447 -18.731 -35.143  0.00  0.00    -0.005 A 
ATOM     37  C   UNL A   1      42.577 -19.479 -33.970  0.00  0.00    +0.047 A 
ATOM     38  N   UNL A   1      41.998 -20.689 -33.795  0.00  0.00    -0.251 NA
ATOM     39  C   UNL A   1      41.219 -21.184 -34.764  0.00  0.00    +0.073 A 
ATOM     40  C   UNL A   1      40.617 -22.414 -34.536  0.00  0.00    -0.036 A 
ATOM     41  C   UNL A   1      39.781 -23.017 -35.475  0.00  0.00    -0.060 A 
ATOM     42  C   UNL A   1      39.535 -22.376 -36.678  0.00  0.00    -0.061 A 
ATOM     43  C   UNL A   1      40.132 -21.141 -36.930  0.00  0.00    -0.051 A 
ATOM     44  C   UNL A   1      40.991 -20.517 -35.985  0.00  0.00    +0.021 A 
ATOM     45  C   UNL A   1      43.428 -19.011 -32.818  0.00  0.00    -0.010 C 
ATOM     46  C   UNL A   1      43.648 -17.503 -32.806  0.00  0.00    -0.047 C 
ATOM     47  C   UNL A   1      44.095 -17.037 -34.182  0.00  0.00    -0.049 C 
ATOM     48  C   UNL A   1      43.015 -17.331 -35.222  0.00  0.00    -0.024 C 
ENDBRANCH  33  35
ENDBRANCH  32  33
ENDBRANCH  31  32
ENDBRANCH  30  31
ENDBRANCH  29  30
ENDBRANCH  28  29
ENDBRANCH  27  28
ENDBRANCH   3  27
TORSDOF 14
ENDMDL
MODEL 20
REMARK VINA RESULT:    -5.298      1.955      5.573
REMARK INTER + INTRA:         -15.615
REMARK INTER:                  -9.003
REMARK INTRA:                  -6.612
REMARK UNBOUND:                -5.982
REMARK  Name = cpd35.pdb
REMARK  16 active torsions:
REMARK  status: ('A' for Active; 'I' for Inactive)
REMARK    1  A    between atoms: C_1  and  C_2
REMARK    2  A    between atoms: C_6  and  N_7
REMARK    3  A    between atoms: N_7  and  C_8
REMARK    4  A    between atoms: C_13  and  C_14
REMARK    5  A    between atoms: N_16  and  C_17
REMARK    6  A    between atoms: C_17  and  C_18
REMARK    7  A    between atoms: C_18  and  C_19
REMARK    8  A    between atoms: N_21  and  C_22
REMARK    9  A    between atoms: C_22  and  C_23
REMARK   10  A    between atoms: C_23  and  C_24
REMARK   11  A    between atoms: C_24  and  C_25
REMARK   12  A    between atoms: C_25  and  C_26
REMARK   13  A    between atoms: C_26  and  C_27
REMARK   14  A    between atoms: C_27  and  N_28
REMARK   15  A    between atoms: N_28  and  C_29
REMARK   16  A    between atoms: C_43  and  C_44
REMARK                            x       y       z     vdW  Elec       q    Type
REMARK                         _______ _______ _______ _____ _____    ______ ____
ROOT
ATOM      1  C   UNL A   1      45.319 -17.689 -40.729  0.00  0.00    +0.215 C 
ATOM      2  O   UNL A   1      44.399 -18.099 -41.430  0.00  0.00    -0.276 OA
ATOM      3  N   UNL A   1      45.358 -16.410 -40.209  0.00  0.00    -0.315 N 
ATOM      4  H   UNL A   1      46.094 -16.140 -39.613  0.00  0.00    +0.000 HD
ENDROOT
BRANCH   1   5
ATOM      5  C   UNL A   1      46.514 -18.548 -40.393  0.00  0.00    +0.039 C 
BRANCH   5   6
ATOM      6  C   UNL A   1      46.166 -19.615 -39.364  0.00  0.00    +0.020 C 
BRANCH   6   9
ATOM      7  C   UNL A   1      45.518 -19.755 -36.995  0.00  0.00    +0.246 C 
ATOM      8  O   UNL A   1      45.886 -20.923 -36.908  0.00  0.00    -0.270 OA
ATOM      9  N   UNL A   1      45.559 -19.037 -38.177  0.00  0.00    -0.311 N 
ATOM     10  H   UNL A   1      45.174 -18.131 -38.215  0.00  0.00    +0.000 HD
BRANCH   7  16
ATOM     11  C   UNL A   1      43.979 -19.512 -35.024  0.00  0.00    +0.044 A 
ATOM     12  C   UNL A   1      43.649 -18.842 -33.835  0.00  0.00    -0.040 A 
ATOM     13  C   UNL A   1      44.311 -17.672 -33.453  0.00  0.00    -0.060 A 
ATOM     14  C   UNL A   1      45.338 -17.160 -34.242  0.00  0.00    -0.061 A 
ATOM     15  C   UNL A   1      45.723 -17.834 -35.400  0.00  0.00    -0.048 A 
ATOM     16  C   UNL A   1      45.071 -19.020 -35.778  0.00  0.00    +0.058 A 
BRANCH  11  17
ATOM     17  N   UNL A   1      43.340 -20.735 -35.367  0.00  0.00    -0.314 N 
ATOM     18  H   UNL A   1      43.879 -21.548 -35.235  0.00  0.00    +0.000 HD
BRANCH  17  24
ATOM     19  C   UNL A   1      38.681 -22.410 -34.687  0.00  0.00    -0.039 C 
ATOM     20  C   UNL A   1      39.765 -21.819 -35.546  0.00  0.00    -0.046 A 
ATOM     21  C   UNL A   1      39.499 -21.593 -36.905  0.00  0.00    -0.058 A 
ATOM     22  C   UNL A   1      40.482 -21.080 -37.745  0.00  0.00    -0.060 A 
ATOM     23  C   UNL A   1      41.742 -20.777 -37.236  0.00  0.00    -0.040 A 
ATOM     24  C   UNL A   1      42.029 -20.944 -35.874  0.00  0.00    +0.035 A 
ATOM     25  C   UNL A   1      41.034 -21.477 -35.018  0.00  0.00    -0.026 A 
ATOM     26  C   UNL A   1      41.357 -21.734 -33.566  0.00  0.00    -0.038 C 
ENDBRANCH  17  24
ENDBRANCH  11  17
ENDBRANCH   7  16
ENDBRANCH   6   9
ENDBRANCH   5   6
ENDBRANCH   1   5
BRANCH   3  27
ATOM     27  C   UNL A   1      44.309 -15.470 -40.548  0.00  0.00    +0.012 C 
BRANCH  27  28
ATOM     28  C   UNL A   1      43.281 -15.334 -39.428  0.00  0.00    -0.037 C 
BRANCH  28  29
ATOM     29  C   UNL A   1      43.840 -15.890 -38.116  0.00  0.00    -0.052 C 
BRANCH  29  30
ATOM     30  C   UNL A   1      43.579 -14.976 -36.915  0.00  0.00    -0.052 C 
BRANCH  30  31
ATOM     31  C   UNL A   1      42.097 -14.839 -36.551  0.00  0.00    -0.037 C 
BRANCH  31  32
ATOM     32  C   UNL A   1      41.649 -15.787 -35.439  0.00  0.00    +0.009 C 
BRANCH  32  33
ATOM     33  N   UNL A   1      41.535 -17.182 -35.897  0.00  0.00    -0.343 N 
ATOM     34  H   UNL A   1      42.322 -17.736 -36.106  0.00  0.00    +0.000 HD
BRANCH  33  35
ATOM     35  C   UNL A   1      40.205 -17.669 -36.015  0.00  0.00    +0.041 A 
ATOM     36  C   UNL A   1      39.555 -17.602 -37.267  0.00  0.00    -0.005 A 
ATOM     37  C   UNL A   1      38.225 -18.021 -37.332  0.00  0.00    +0.047 A 
ATOM     38  N   UNL A   1      37.529 -18.452 -36.255  0.00  0.00    -0.251 NA
ATOM     39  C   UNL A   1      38.148 -18.535 -35.072  0.00  0.00    +0.073 A 
ATOM     40  C   UNL A   1      37.411 -19.011 -33.995  0.00  0.00    -0.036 A 
ATOM     41  C   UNL A   1      37.961 -19.143 -32.720  0.00  0.00    -0.060 A 
ATOM     42  C   UNL A   1      39.284 -18.793 -32.509  0.00  0.00    -0.061 A 
ATOM     43  C   UNL A   1      40.042 -18.309 -33.576  0.00  0.00    -0.051 A 
ATOM     44  C   UNL A   1      39.495 -18.163 -34.879  0.00  0.00    +0.021 A 
ATOM     45  C   UNL A   1      37.438 -17.972 -38.616  0.00  0.00    -0.010 C 
ATOM     46  C   UNL A   1      38.316 -17.978 -39.862  0.00  0.00    -0.047 C 
ATOM     47  C   UNL A   1      39.411 -16.932 -39.724  0.00  0.00    -0.049 C 
ATOM     48  C   UNL A   1      40.310 -17.254 -38.531  0.00  0.00    -0.024 C 
ENDBRANCH  33  35
ENDBRANCH  32  33
ENDBRANCH  31  32
ENDBRANCH  30  31
ENDBRANCH  29  30
ENDBRANCH  28  29
ENDBRANCH  27  28
ENDBRANCH   3  27
TORSDOF 14
ENDMDL
