MODEL 1
REMARK VINA RESULT:    -7.381      0.000      0.000
REMARK INTER + INTRA:          -9.167
REMARK INTER:                  -8.675
REMARK INTRA:                  -0.491
REMARK UNBOUND:                -0.491
REMARK  Name = cpd161.pdb
REMARK  5 active torsions:
REMARK  status: ('A' for Active; 'I' for Inactive)
REMARK    1  A    between atoms: C_1  and  C_2
REMARK    2  A    between atoms: C_2  and  C_3
REMARK    3  A    between atoms: C_2  and  C_4
REMARK    4  A    between atoms: C_8  and  C_9
REMARK    5  A    between atoms: C_9  and  C_11
REMARK                            x       y       z     vdW  Elec       q    Type
REMARK                         _______ _______ _______ _____ _____    ______ ____
ROOT
ATOM      1  C   UNL A   1      37.923 -36.200 -30.952  0.00  0.00    -0.044 A 
ATOM      2  C   UNL A   1      38.147 -34.992 -31.623  0.00  0.00    -0.058 A 
ATOM      3  C   UNL A   1      39.444 -34.573 -31.921  0.00  0.00    -0.061 A 
ATOM      4  C   UNL A   1      40.542 -35.347 -31.543  0.00  0.00    -0.051 A 
ATOM      5  C   UNL A   1      40.348 -36.550 -30.857  0.00  0.00    +0.027 A 
ATOM      6  C   UNL A   1      39.037 -36.966 -30.568  0.00  0.00    -0.048 A 
ENDROOT
BRANCH   1   8
ATOM      7  C   UNL A   1      36.083 -36.267 -29.183  0.00  0.00    -0.059 C 
ATOM      8  C   UNL A   1      36.528 -36.683 -30.588  0.00  0.00    -0.021 C 
ATOM      9  C   UNL A   1      36.433 -38.201 -30.756  0.00  0.00    -0.059 C 
ENDBRANCH   1   8
BRANCH   5  10
ATOM     10  C   UNL A   1      41.481 -37.418 -30.405  0.00  0.00    +0.265 C 
ATOM     11  O   UNL A   1      41.503 -37.796 -29.232  0.00  0.00    -0.283 OA
BRANCH  10  12
ATOM     12  C   UNL A   1      42.548 -37.790 -31.421  0.00  0.00    +0.455 C 
ATOM     13  F   UNL A   1      43.570 -36.888 -31.452  0.00  0.00    -0.163 F 
ATOM     14  F   UNL A   1      43.120 -38.999 -31.154  0.00  0.00    -0.163 F 
ATOM     15  F   UNL A   1      42.075 -37.870 -32.695  0.00  0.00    -0.163 F 
ENDBRANCH  10  12
ENDBRANCH   5  10
TORSDOF 3
ENDMDL
MODEL 2
REMARK VINA RESULT:    -7.264      2.123      2.920
REMARK INTER + INTRA:          -9.029
REMARK INTER:                  -8.758
REMARK INTRA:                  -0.272
REMARK UNBOUND:                -0.491
REMARK  Name = cpd161.pdb
REMARK  5 active torsions:
REMARK  status: ('A' for Active; 'I' for Inactive)
REMARK    1  A    between atoms: C_1  and  C_2
REMARK    2  A    between atoms: C_2  and  C_3
REMARK    3  A    between atoms: C_2  and  C_4
REMARK    4  A    between atoms: C_8  and  C_9
REMARK    5  A    between atoms: C_9  and  C_11
REMARK                            x       y       z     vdW  Elec       q    Type
REMARK                         _______ _______ _______ _____ _____    ______ ____
ROOT
ATOM      1  C   UNL A   1      38.210 -37.717 -29.155  0.00  0.00    -0.044 A 
ATOM      2  C   UNL A   1      39.303 -38.190 -28.419  0.00  0.00    -0.058 A 
ATOM      3  C   UNL A   1      40.608 -37.887 -28.809  0.00  0.00    -0.061 A 
ATOM      4  C   UNL A   1      40.846 -37.117 -29.949  0.00  0.00    -0.051 A 
ATOM      5  C   UNL A   1      39.772 -36.645 -30.711  0.00  0.00    +0.027 A 
ATOM      6  C   UNL A   1      38.461 -36.950 -30.305  0.00  0.00    -0.048 A 
ENDROOT
BRANCH   1   8
ATOM      7  C   UNL A   1      36.400 -37.610 -27.357  0.00  0.00    -0.059 C 
ATOM      8  C   UNL A   1      36.773 -38.042 -28.778  0.00  0.00    -0.021 C 
ATOM      9  C   UNL A   1      36.497 -39.533 -28.979  0.00  0.00    -0.059 C 
ENDBRANCH   1   8
BRANCH   5  10
ATOM     10  C   UNL A   1      39.956 -35.831 -31.954  0.00  0.00    +0.265 C 
ATOM     11  O   UNL A   1      39.162 -34.916 -32.183  0.00  0.00    -0.283 OA
BRANCH  10  12
ATOM     12  C   UNL A   1      41.116 -36.177 -32.873  0.00  0.00    +0.455 C 
ATOM     13  F   UNL A   1      42.206 -35.389 -32.649  0.00  0.00    -0.163 F 
ATOM     14  F   UNL A   1      41.540 -37.462 -32.713  0.00  0.00    -0.163 F 
ATOM     15  F   UNL A   1      40.815 -36.040 -34.194  0.00  0.00    -0.163 F 
ENDBRANCH  10  12
ENDBRANCH   5  10
TORSDOF 3
ENDMDL
MODEL 3
REMARK VINA RESULT:    -7.109      1.511      2.290
REMARK INTER + INTRA:          -8.847
REMARK INTER:                  -8.679
REMARK INTRA:                  -0.169
REMARK UNBOUND:                -0.491
REMARK  Name = cpd161.pdb
REMARK  5 active torsions:
REMARK  status: ('A' for Active; 'I' for Inactive)
REMARK    1  A    between atoms: C_1  and  C_2
REMARK    2  A    between atoms: C_2  and  C_3
REMARK    3  A    between atoms: C_2  and  C_4
REMARK    4  A    between atoms: C_8  and  C_9
REMARK    5  A    between atoms: C_9  and  C_11
REMARK                            x       y       z     vdW  Elec       q    Type
REMARK                         _______ _______ _______ _____ _____    ______ ____
ROOT
ATOM      1  C   UNL A   1      37.810 -36.788 -29.965  0.00  0.00    -0.044 A 
ATOM      2  C   UNL A   1      38.073 -37.613 -28.865  0.00  0.00    -0.058 A 
ATOM      3  C   UNL A   1      39.372 -38.040 -28.589  0.00  0.00    -0.061 A 
ATOM      4  C   UNL A   1      40.432 -37.660 -29.415  0.00  0.00    -0.051 A 
ATOM      5  C   UNL A   1      40.196 -36.850 -30.530  0.00  0.00    +0.027 A 
ATOM      6  C   UNL A   1      38.884 -36.420 -30.794  0.00  0.00    -0.048 A 
ENDROOT
BRANCH   1   8
ATOM      7  C   UNL A   1      36.356 -34.884 -30.847  0.00  0.00    -0.059 C 
ATOM      8  C   UNL A   1      36.407 -36.319 -30.314  0.00  0.00    -0.021 C 
ATOM      9  C   UNL A   1      35.479 -36.479 -29.108  0.00  0.00    -0.059 C 
ENDBRANCH   1   8
BRANCH   5  10
ATOM     10  C   UNL A   1      41.282 -36.423 -31.467  0.00  0.00    +0.265 C 
ATOM     11  O   UNL A   1      41.366 -35.230 -31.769  0.00  0.00    -0.283 OA
BRANCH  10  12
ATOM     12  C   UNL A   1      42.229 -37.485 -32.000  0.00  0.00    +0.455 C 
ATOM     13  F   UNL A   1      43.537 -37.162 -31.795  0.00  0.00    -0.163 F 
ATOM     14  F   UNL A   1      42.040 -38.696 -31.403  0.00  0.00    -0.163 F 
ATOM     15  F   UNL A   1      42.097 -37.700 -33.338  0.00  0.00    -0.163 F 
ENDBRANCH  10  12
ENDBRANCH   5  10
TORSDOF 3
ENDMDL
MODEL 4
REMARK VINA RESULT:    -6.668      3.736      5.566
REMARK INTER + INTRA:          -8.329
REMARK INTER:                  -8.065
REMARK INTRA:                  -0.264
REMARK UNBOUND:                -0.491
REMARK  Name = cpd161.pdb
REMARK  5 active torsions:
REMARK  status: ('A' for Active; 'I' for Inactive)
REMARK    1  A    between atoms: C_1  and  C_2
REMARK    2  A    between atoms: C_2  and  C_3
REMARK    3  A    between atoms: C_2  and  C_4
REMARK    4  A    between atoms: C_8  and  C_9
REMARK    5  A    between atoms: C_9  and  C_11
REMARK                            x       y       z     vdW  Elec       q    Type
REMARK                         _______ _______ _______ _____ _____    ______ ____
ROOT
ATOM      1  C   UNL A   1      40.309 -37.192 -30.421  0.00  0.00    -0.044 A 
ATOM      2  C   UNL A   1      40.564 -37.827 -29.199  0.00  0.00    -0.058 A 
ATOM      3  C   UNL A   1      39.514 -38.212 -28.365  0.00  0.00    -0.061 A 
ATOM      4  C   UNL A   1      38.190 -37.958 -28.729  0.00  0.00    -0.051 A 
ATOM      5  C   UNL A   1      37.908 -37.311 -29.936  0.00  0.00    +0.027 A 
ATOM      6  C   UNL A   1      38.973 -36.934 -30.773  0.00  0.00    -0.048 A 
ENDROOT
BRANCH   1   8
ATOM      7  C   UNL A   1      40.919 -36.012 -32.601  0.00  0.00    -0.059 C 
ATOM      8  C   UNL A   1      41.423 -36.736 -31.350  0.00  0.00    -0.021 C 
ATOM      9  C   UNL A   1      42.311 -37.922 -31.733  0.00  0.00    -0.059 C 
ENDBRANCH   1   8
BRANCH   5  10
ATOM     10  C   UNL A   1      36.514 -36.991 -30.378  0.00  0.00    +0.265 C 
ATOM     11  O   UNL A   1      35.733 -37.921 -30.590  0.00  0.00    -0.283 OA
BRANCH  10  12
ATOM     12  C   UNL A   1      36.132 -35.529 -30.545  0.00  0.00    +0.455 C 
ATOM     13  F   UNL A   1      37.221 -34.723 -30.697  0.00  0.00    -0.163 F 
ATOM     14  F   UNL A   1      35.350 -35.319 -31.640  0.00  0.00    -0.163 F 
ATOM     15  F   UNL A   1      35.438 -35.031 -29.484  0.00  0.00    -0.163 F 
ENDBRANCH  10  12
ENDBRANCH   5  10
TORSDOF 3
ENDMDL
MODEL 5
REMARK VINA RESULT:    -6.638      3.650      5.566
REMARK INTER + INTRA:          -8.294
REMARK INTER:                  -7.750
REMARK INTRA:                  -0.543
REMARK UNBOUND:                -0.491
REMARK  Name = cpd161.pdb
REMARK  5 active torsions:
REMARK  status: ('A' for Active; 'I' for Inactive)
REMARK    1  A    between atoms: C_1  and  C_2
REMARK    2  A    between atoms: C_2  and  C_3
REMARK    3  A    between atoms: C_2  and  C_4
REMARK    4  A    between atoms: C_8  and  C_9
REMARK    5  A    between atoms: C_9  and  C_11
REMARK                            x       y       z     vdW  Elec       q    Type
REMARK                         _______ _______ _______ _____ _____    ______ ____
ROOT
ATOM      1  C   UNL A   1      40.510 -36.861 -30.683  0.00  0.00    -0.044 A 
ATOM      2  C   UNL A   1      41.083 -37.694 -29.715  0.00  0.00    -0.058 A 
ATOM      3  C   UNL A   1      40.286 -38.339 -28.769  0.00  0.00    -0.061 A 
ATOM      4  C   UNL A   1      38.901 -38.154 -28.765  0.00  0.00    -0.051 A 
ATOM      5  C   UNL A   1      38.305 -37.315 -29.711  0.00  0.00    +0.027 A 
ATOM      6  C   UNL A   1      39.117 -36.675 -30.665  0.00  0.00    -0.048 A 
ENDROOT
BRANCH   1   8
ATOM      7  C   UNL A   1      41.191 -36.676 -33.137  0.00  0.00    -0.059 C 
ATOM      8  C   UNL A   1      41.344 -36.122 -31.718  0.00  0.00    -0.021 C 
ATOM      9  C   UNL A   1      42.816 -36.108 -31.300  0.00  0.00    -0.059 C 
ENDBRANCH   1   8
BRANCH   5  10
ATOM     10  C   UNL A   1      36.831 -37.057 -29.752  0.00  0.00    +0.265 C 
ATOM     11  O   UNL A   1      36.417 -35.945 -29.415  0.00  0.00    -0.283 OA
BRANCH  10  12
ATOM     12  C   UNL A   1      35.918 -38.182 -30.208  0.00  0.00    +0.455 C 
ATOM     13  F   UNL A   1      34.679 -37.734 -30.559  0.00  0.00    -0.163 F 
ATOM     14  F   UNL A   1      36.406 -38.837 -31.300  0.00  0.00    -0.163 F 
ATOM     15  F   UNL A   1      35.720 -39.134 -29.255  0.00  0.00    -0.163 F 
ENDBRANCH  10  12
ENDBRANCH   5  10
TORSDOF 3
ENDMDL
MODEL 6
REMARK VINA RESULT:    -6.578      3.659      5.358
REMARK INTER + INTRA:          -8.223
REMARK INTER:                  -7.983
REMARK INTRA:                  -0.239
REMARK UNBOUND:                -0.491
REMARK  Name = cpd161.pdb
REMARK  5 active torsions:
REMARK  status: ('A' for Active; 'I' for Inactive)
REMARK    1  A    between atoms: C_1  and  C_2
REMARK    2  A    between atoms: C_2  and  C_3
REMARK    3  A    between atoms: C_2  and  C_4
REMARK    4  A    between atoms: C_8  and  C_9
REMARK    5  A    between atoms: C_9  and  C_11
REMARK                            x       y       z     vdW  Elec       q    Type
REMARK                         _______ _______ _______ _____ _____    ______ ____
ROOT
ATOM      1  C   UNL A   1      40.879 -36.706 -31.124  0.00  0.00    -0.044 A 
ATOM      2  C   UNL A   1      40.553 -36.101 -32.344  0.00  0.00    -0.058 A 
ATOM      3  C   UNL A   1      39.231 -35.766 -32.641  0.00  0.00    -0.061 A 
ATOM      4  C   UNL A   1      38.209 -36.040 -31.729  0.00  0.00    -0.051 A 
ATOM      5  C   UNL A   1      38.505 -36.658 -30.510  0.00  0.00    +0.027 A 
ATOM      6  C   UNL A   1      39.841 -36.985 -30.218  0.00  0.00    -0.048 A 
ENDROOT
BRANCH   1   8
ATOM      7  C   UNL A   1      43.365 -36.165 -31.341  0.00  0.00    -0.059 C 
ATOM      8  C   UNL A   1      42.302 -37.107 -30.770  0.00  0.00    -0.021 C 
ATOM      9  C   UNL A   1      42.569 -38.550 -31.205  0.00  0.00    -0.059 C 
ENDBRANCH   1   8
BRANCH   5  10
ATOM     10  C   UNL A   1      37.457 -36.998 -29.498  0.00  0.00    +0.265 C 
ATOM     11  O   UNL A   1      37.692 -37.893 -28.682  0.00  0.00    -0.283 OA
BRANCH  10  12
ATOM     12  C   UNL A   1      36.152 -36.221 -29.528  0.00  0.00    +0.455 C 
ATOM     13  F   UNL A   1      35.237 -36.778 -30.371  0.00  0.00    -0.163 F 
ATOM     14  F   UNL A   1      35.553 -36.164 -28.305  0.00  0.00    -0.163 F 
ATOM     15  F   UNL A   1      36.304 -34.930 -29.934  0.00  0.00    -0.163 F 
ENDBRANCH  10  12
ENDBRANCH   5  10
TORSDOF 3
ENDMDL
MODEL 7
REMARK VINA RESULT:    -6.551      3.502      5.084
REMARK INTER + INTRA:          -8.191
REMARK INTER:                  -7.659
REMARK INTRA:                  -0.533
REMARK UNBOUND:                -0.491
REMARK  Name = cpd161.pdb
REMARK  5 active torsions:
REMARK  status: ('A' for Active; 'I' for Inactive)
REMARK    1  A    between atoms: C_1  and  C_2
REMARK    2  A    between atoms: C_2  and  C_3
REMARK    3  A    between atoms: C_2  and  C_4
REMARK    4  A    between atoms: C_8  and  C_9
REMARK    5  A    between atoms: C_9  and  C_11
REMARK                            x       y       z     vdW  Elec       q    Type
REMARK                         _______ _______ _______ _____ _____    ______ ____
ROOT
ATOM      1  C   UNL A   1      40.421 -36.708 -31.044  0.00  0.00    -0.044 A 
ATOM      2  C   UNL A   1      39.769 -35.686 -31.744  0.00  0.00    -0.058 A 
ATOM      3  C   UNL A   1      38.430 -35.389 -31.487  0.00  0.00    -0.061 A 
ATOM      4  C   UNL A   1      37.714 -36.117 -30.534  0.00  0.00    -0.051 A 
ATOM      5  C   UNL A   1      38.335 -37.154 -29.832  0.00  0.00    +0.027 A 
ATOM      6  C   UNL A   1      39.687 -37.440 -30.094  0.00  0.00    -0.048 A 
ENDROOT
BRANCH   1   8
ATOM      7  C   UNL A   1      42.860 -35.957 -30.982  0.00  0.00    -0.059 C 
ATOM      8  C   UNL A   1      41.871 -37.080 -31.308  0.00  0.00    -0.021 C 
ATOM      9  C   UNL A   1      42.043 -37.546 -32.755  0.00  0.00    -0.059 C 
ENDBRANCH   1   8
BRANCH   5  10
ATOM     10  C   UNL A   1      37.622 -37.985 -28.813  0.00  0.00    +0.265 C 
ATOM     11  O   UNL A   1      38.043 -37.989 -27.654  0.00  0.00    -0.283 OA
BRANCH  10  12
ATOM     12  C   UNL A   1      36.410 -38.785 -29.261  0.00  0.00    +0.455 C 
ATOM     13  F   UNL A   1      36.518 -39.210 -30.552  0.00  0.00    -0.163 F 
ATOM     14  F   UNL A   1      36.220 -39.906 -28.509  0.00  0.00    -0.163 F 
ATOM     15  F   UNL A   1      35.245 -38.082 -29.191  0.00  0.00    -0.163 F 
ENDBRANCH  10  12
ENDBRANCH   5  10
TORSDOF 3
ENDMDL
MODEL 8
REMARK VINA RESULT:    -6.500     35.188     36.262
REMARK INTER + INTRA:          -8.132
REMARK INTER:                  -7.588
REMARK INTRA:                  -0.543
REMARK UNBOUND:                -0.491
REMARK  Name = cpd161.pdb
REMARK  5 active torsions:
REMARK  status: ('A' for Active; 'I' for Inactive)
REMARK    1  A    between atoms: C_1  and  C_2
REMARK    2  A    between atoms: C_2  and  C_3
REMARK    3  A    between atoms: C_2  and  C_4
REMARK    4  A    between atoms: C_8  and  C_9
REMARK    5  A    between atoms: C_9  and  C_11
REMARK                            x       y       z     vdW  Elec       q    Type
REMARK                         _______ _______ _______ _____ _____    ______ ____
ROOT
ATOM      1  C   UNL A   1      63.344 -23.457  -6.349  0.00  0.00    -0.044 A 
ATOM      2  C   UNL A   1      63.400 -23.031  -7.681  0.00  0.00    -0.058 A 
ATOM      3  C   UNL A   1      63.868 -23.882  -8.682  0.00  0.00    -0.061 A 
ATOM      4  C   UNL A   1      64.302 -25.172  -8.368  0.00  0.00    -0.051 A 
ATOM      5  C   UNL A   1      64.273 -25.618  -7.043  0.00  0.00    +0.027 A 
ATOM      6  C   UNL A   1      63.792 -24.754  -6.044  0.00  0.00    -0.048 A 
ENDROOT
BRANCH   1   8
ATOM      7  C   UNL A   1      63.388 -21.120  -5.322  0.00  0.00    -0.059 C 
ATOM      8  C   UNL A   1      62.862 -22.554  -5.225  0.00  0.00    -0.021 C 
ATOM      9  C   UNL A   1      63.213 -23.166  -3.867  0.00  0.00    -0.059 C 
ENDBRANCH   1   8
BRANCH   5  10
ATOM     10  C   UNL A   1      64.740 -26.979  -6.635  0.00  0.00    +0.265 C 
ATOM     11  O   UNL A   1      65.949 -27.223  -6.666  0.00  0.00    -0.283 OA
BRANCH  10  12
ATOM     12  C   UNL A   1      63.697 -27.996  -6.201  0.00  0.00    +0.455 C 
ATOM     13  F   UNL A   1      62.610 -28.006  -7.024  0.00  0.00    -0.163 F 
ATOM     14  F   UNL A   1      64.182 -29.270  -6.202  0.00  0.00    -0.163 F 
ATOM     15  F   UNL A   1      63.219 -27.775  -4.946  0.00  0.00    -0.163 F 
ENDBRANCH  10  12
ENDBRANCH   5  10
TORSDOF 3
ENDMDL
MODEL 9
REMARK VINA RESULT:    -6.405      4.910      6.572
REMARK INTER + INTRA:          -8.019
REMARK INTER:                  -7.483
REMARK INTRA:                  -0.536
REMARK UNBOUND:                -0.491
REMARK  Name = cpd161.pdb
REMARK  5 active torsions:
REMARK  status: ('A' for Active; 'I' for Inactive)
REMARK    1  A    between atoms: C_1  and  C_2
REMARK    2  A    between atoms: C_2  and  C_3
REMARK    3  A    between atoms: C_2  and  C_4
REMARK    4  A    between atoms: C_8  and  C_9
REMARK    5  A    between atoms: C_9  and  C_11
REMARK                            x       y       z     vdW  Elec       q    Type
REMARK                         _______ _______ _______ _____ _____    ______ ____
ROOT
ATOM      1  C   UNL A   1      38.303 -36.172 -30.793  0.00  0.00    -0.044 A 
ATOM      2  C   UNL A   1      38.085 -36.876 -29.604  0.00  0.00    -0.058 A 
ATOM      3  C   UNL A   1      36.854 -36.810 -28.952  0.00  0.00    -0.061 A 
ATOM      4  C   UNL A   1      35.820 -36.028 -29.471  0.00  0.00    -0.051 A 
ATOM      5  C   UNL A   1      36.015 -35.301 -30.649  0.00  0.00    +0.027 A 
ATOM      6  C   UNL A   1      37.258 -35.381 -31.301  0.00  0.00    -0.048 A 
ENDROOT
BRANCH   1   8
ATOM      7  C   UNL A   1      40.671 -37.123 -30.876  0.00  0.00    -0.059 C 
ATOM      8  C   UNL A   1      39.636 -36.198 -31.523  0.00  0.00    -0.021 C 
ATOM      9  C   UNL A   1      40.193 -34.779 -31.661  0.00  0.00    -0.059 C 
ENDBRANCH   1   8
BRANCH   5  10
ATOM     10  C   UNL A   1      34.957 -34.428 -31.249  0.00  0.00    +0.265 C 
ATOM     11  O   UNL A   1      34.185 -34.919 -32.074  0.00  0.00    -0.283 OA
BRANCH  10  12
ATOM     12  C   UNL A   1      34.890 -32.975 -30.807  0.00  0.00    +0.455 C 
ATOM     13  F   UNL A   1      35.611 -32.153 -31.621  0.00  0.00    -0.163 F 
ATOM     14  F   UNL A   1      33.617 -32.489 -30.811  0.00  0.00    -0.163 F 
ATOM     15  F   UNL A   1      35.368 -32.773 -29.548  0.00  0.00    -0.163 F 
ENDBRANCH  10  12
ENDBRANCH   5  10
TORSDOF 3
ENDMDL
MODEL 10
REMARK VINA RESULT:    -6.386      2.135      3.067
REMARK INTER + INTRA:          -7.998
REMARK INTER:                  -7.701
REMARK INTRA:                  -0.297
REMARK UNBOUND:                -0.491
REMARK  Name = cpd161.pdb
REMARK  5 active torsions:
REMARK  status: ('A' for Active; 'I' for Inactive)
REMARK    1  A    between atoms: C_1  and  C_2
REMARK    2  A    between atoms: C_2  and  C_3
REMARK    3  A    between atoms: C_2  and  C_4
REMARK    4  A    between atoms: C_8  and  C_9
REMARK    5  A    between atoms: C_9  and  C_11
REMARK                            x       y       z     vdW  Elec       q    Type
REMARK                         _______ _______ _______ _____ _____    ______ ____
ROOT
ATOM      1  C   UNL A   1      36.558 -35.562 -30.318  0.00  0.00    -0.044 A 
ATOM      2  C   UNL A   1      36.633 -36.835 -29.740  0.00  0.00    -0.058 A 
ATOM      3  C   UNL A   1      37.810 -37.580 -29.809  0.00  0.00    -0.061 A 
ATOM      4  C   UNL A   1      38.932 -37.072 -30.467  0.00  0.00    -0.051 A 
ATOM      5  C   UNL A   1      38.880 -35.810 -31.067  0.00  0.00    +0.027 A 
ATOM      6  C   UNL A   1      37.691 -35.065 -30.986  0.00  0.00    -0.048 A 
ENDROOT
BRANCH   1   8
ATOM      7  C   UNL A   1      34.063 -35.451 -30.849  0.00  0.00    -0.059 C 
ATOM      8  C   UNL A   1      35.289 -34.726 -30.286  0.00  0.00    -0.021 C 
ATOM      9  C   UNL A   1      35.511 -33.398 -31.013  0.00  0.00    -0.059 C 
ENDBRANCH   1   8
BRANCH   5  10
ATOM     10  C   UNL A   1      40.038 -35.215 -31.805  0.00  0.00    +0.265 C 
ATOM     11  O   UNL A   1      39.825 -34.290 -32.591  0.00  0.00    -0.283 OA
BRANCH  10  12
ATOM     12  C   UNL A   1      41.423 -35.784 -31.545  0.00  0.00    +0.455 C 
ATOM     13  F   UNL A   1      42.387 -35.155 -32.277  0.00  0.00    -0.163 F 
ATOM     14  F   UNL A   1      41.800 -35.661 -30.241  0.00  0.00    -0.163 F 
ATOM     15  F   UNL A   1      41.526 -37.108 -31.844  0.00  0.00    -0.163 F 
ENDBRANCH  10  12
ENDBRANCH   5  10
TORSDOF 3
ENDMDL
MODEL 11
REMARK VINA RESULT:    -6.273      4.532      5.719
REMARK INTER + INTRA:          -7.864
REMARK INTER:                  -7.369
REMARK INTRA:                  -0.495
REMARK UNBOUND:                -0.491
REMARK  Name = cpd161.pdb
REMARK  5 active torsions:
REMARK  status: ('A' for Active; 'I' for Inactive)
REMARK    1  A    between atoms: C_1  and  C_2
REMARK    2  A    between atoms: C_2  and  C_3
REMARK    3  A    between atoms: C_2  and  C_4
REMARK    4  A    between atoms: C_8  and  C_9
REMARK    5  A    between atoms: C_9  and  C_11
REMARK                            x       y       z     vdW  Elec       q    Type
REMARK                         _______ _______ _______ _____ _____    ______ ____
ROOT
ATOM      1  C   UNL A   1      38.346 -37.056 -29.936  0.00  0.00    -0.044 A 
ATOM      2  C   UNL A   1      39.381 -36.858 -30.858  0.00  0.00    -0.058 A 
ATOM      3  C   UNL A   1      39.286 -35.863 -31.831  0.00  0.00    -0.061 A 
ATOM      4  C   UNL A   1      38.149 -35.055 -31.910  0.00  0.00    -0.051 A 
ATOM      5  C   UNL A   1      37.094 -35.243 -31.012  0.00  0.00    +0.027 A 
ATOM      6  C   UNL A   1      37.203 -36.244 -30.031  0.00  0.00    -0.048 A 
ENDROOT
BRANCH   1   8
ATOM      7  C   UNL A   1      37.415 -37.921 -27.722  0.00  0.00    -0.059 C 
ATOM      8  C   UNL A   1      38.398 -38.143 -28.874  0.00  0.00    -0.021 C 
ATOM      9  C   UNL A   1      39.826 -38.296 -28.344  0.00  0.00    -0.059 C 
ENDBRANCH   1   8
BRANCH   5  10
ATOM     10  C   UNL A   1      35.840 -34.427 -31.053  0.00  0.00    +0.265 C 
ATOM     11  O   UNL A   1      35.890 -33.249 -30.693  0.00  0.00    -0.283 OA
BRANCH  10  12
ATOM     12  C   UNL A   1      34.564 -35.096 -31.538  0.00  0.00    +0.455 C 
ATOM     13  F   UNL A   1      33.966 -34.400 -32.547  0.00  0.00    -0.163 F 
ATOM     14  F   UNL A   1      34.787 -36.349 -32.024  0.00  0.00    -0.163 F 
ATOM     15  F   UNL A   1      33.624 -35.231 -30.563  0.00  0.00    -0.163 F 
ENDBRANCH  10  12
ENDBRANCH   5  10
TORSDOF 3
ENDMDL
MODEL 12
REMARK VINA RESULT:    -6.057      3.601      4.487
REMARK INTER + INTRA:          -7.611
REMARK INTER:                  -7.056
REMARK INTRA:                  -0.555
REMARK UNBOUND:                -0.491
REMARK  Name = cpd161.pdb
REMARK  5 active torsions:
REMARK  status: ('A' for Active; 'I' for Inactive)
REMARK    1  A    between atoms: C_1  and  C_2
REMARK    2  A    between atoms: C_2  and  C_3
REMARK    3  A    between atoms: C_2  and  C_4
REMARK    4  A    between atoms: C_8  and  C_9
REMARK    5  A    between atoms: C_9  and  C_11
REMARK                            x       y       z     vdW  Elec       q    Type
REMARK                         _______ _______ _______ _____ _____    ______ ____
ROOT
ATOM      1  C   UNL A   1      36.473 -35.321 -30.545  0.00  0.00    -0.044 A 
ATOM      2  C   UNL A   1      37.507 -35.086 -31.459  0.00  0.00    -0.058 A 
ATOM      3  C   UNL A   1      38.653 -35.882 -31.456  0.00  0.00    -0.061 A 
ATOM      4  C   UNL A   1      38.793 -36.919 -30.532  0.00  0.00    -0.051 A 
ATOM      5  C   UNL A   1      37.782 -37.165 -29.597  0.00  0.00    +0.027 A 
ATOM      6  C   UNL A   1      36.628 -36.362 -29.614  0.00  0.00    -0.048 A 
ENDROOT
BRANCH   1   8
ATOM      7  C   UNL A   1      35.478 -32.979 -30.763  0.00  0.00    -0.059 C 
ATOM      8  C   UNL A   1      35.217 -34.465 -30.499  0.00  0.00    -0.021 C 
ATOM      9  C   UNL A   1      34.494 -34.657 -29.164  0.00  0.00    -0.059 C 
ENDBRANCH   1   8
BRANCH   5  10
ATOM     10  C   UNL A   1      37.876 -38.246 -28.567  0.00  0.00    +0.265 C 
ATOM     11  O   UNL A   1      38.627 -38.080 -27.604  0.00  0.00    -0.283 OA
BRANCH  10  12
ATOM     12  C   UNL A   1      37.036 -39.498 -28.762  0.00  0.00    +0.455 C 
ATOM     13  F   UNL A   1      35.910 -39.491 -27.994  0.00  0.00    -0.163 F 
ATOM     14  F   UNL A   1      36.615 -39.645 -30.050  0.00  0.00    -0.163 F 
ATOM     15  F   UNL A   1      37.700 -40.645 -28.449  0.00  0.00    -0.163 F 
ENDBRANCH  10  12
ENDBRANCH   5  10
TORSDOF 3
ENDMDL
MODEL 13
REMARK VINA RESULT:    -6.030     19.159     20.983
REMARK INTER + INTRA:          -7.579
REMARK INTER:                  -7.054
REMARK INTRA:                  -0.525
REMARK UNBOUND:                -0.491
REMARK  Name = cpd161.pdb
REMARK  5 active torsions:
REMARK  status: ('A' for Active; 'I' for Inactive)
REMARK    1  A    between atoms: C_1  and  C_2
REMARK    2  A    between atoms: C_2  and  C_3
REMARK    3  A    between atoms: C_2  and  C_4
REMARK    4  A    between atoms: C_8  and  C_9
REMARK    5  A    between atoms: C_9  and  C_11
REMARK                            x       y       z     vdW  Elec       q    Type
REMARK                         _______ _______ _______ _____ _____    ______ ____
ROOT
ATOM      1  C   UNL A   1      45.360 -18.359 -41.339  0.00  0.00    -0.044 A 
ATOM      2  C   UNL A   1      44.286 -18.605 -42.204  0.00  0.00    -0.058 A 
ATOM      3  C   UNL A   1      44.219 -19.790 -42.936  0.00  0.00    -0.061 A 
ATOM      4  C   UNL A   1      45.231 -20.747 -42.829  0.00  0.00    -0.051 A 
ATOM      5  C   UNL A   1      46.322 -20.520 -41.985  0.00  0.00    +0.027 A 
ATOM      6  C   UNL A   1      46.376 -19.325 -41.246  0.00  0.00    -0.048 A 
ENDROOT
BRANCH   1   8
ATOM      7  C   UNL A   1      44.399 -16.041 -40.867  0.00  0.00    -0.059 C 
ATOM      8  C   UNL A   1      45.483 -17.072 -40.540  0.00  0.00    -0.021 C 
ATOM      9  C   UNL A   1      46.876 -16.465 -40.724  0.00  0.00    -0.059 C 
ENDBRANCH   1   8
BRANCH   5  10
ATOM     10  C   UNL A   1      47.449 -21.493 -41.837  0.00  0.00    +0.265 C 
ATOM     11  O   UNL A   1      48.603 -21.092 -42.008  0.00  0.00    -0.283 OA
BRANCH  10  12
ATOM     12  C   UNL A   1      47.113 -22.932 -41.482  0.00  0.00    +0.455 C 
ATOM     13  F   UNL A   1      46.080 -23.019 -40.597  0.00  0.00    -0.163 F 
ATOM     14  F   UNL A   1      46.739 -23.662 -42.571  0.00  0.00    -0.163 F 
ATOM     15  F   UNL A   1      48.153 -23.605 -40.917  0.00  0.00    -0.163 F 
ENDBRANCH  10  12
ENDBRANCH   5  10
TORSDOF 3
ENDMDL
MODEL 14
REMARK VINA RESULT:    -5.981      4.902      6.111
REMARK INTER + INTRA:          -7.521
REMARK INTER:                  -6.975
REMARK INTRA:                  -0.545
REMARK UNBOUND:                -0.491
REMARK  Name = cpd161.pdb
REMARK  5 active torsions:
REMARK  status: ('A' for Active; 'I' for Inactive)
REMARK    1  A    between atoms: C_1  and  C_2
REMARK    2  A    between atoms: C_2  and  C_3
REMARK    3  A    between atoms: C_2  and  C_4
REMARK    4  A    between atoms: C_8  and  C_9
REMARK    5  A    between atoms: C_9  and  C_11
REMARK                            x       y       z     vdW  Elec       q    Type
REMARK                         _______ _______ _______ _____ _____    ______ ____
ROOT
ATOM      1  C   UNL A   1      37.934 -36.998 -29.556  0.00  0.00    -0.044 A 
ATOM      2  C   UNL A   1      38.890 -36.647 -30.516  0.00  0.00    -0.058 A 
ATOM      3  C   UNL A   1      38.579 -35.745 -31.534  0.00  0.00    -0.061 A 
ATOM      4  C   UNL A   1      37.302 -35.188 -31.620  0.00  0.00    -0.051 A 
ATOM      5  C   UNL A   1      36.322 -35.533 -30.684  0.00  0.00    +0.027 A 
ATOM      6  C   UNL A   1      36.649 -36.437 -29.658  0.00  0.00    -0.048 A 
ENDROOT
BRANCH   1   8
ATOM      7  C   UNL A   1      39.688 -38.435 -28.383  0.00  0.00    -0.059 C 
ATOM      8  C   UNL A   1      38.224 -37.993 -28.443  0.00  0.00    -0.021 C 
ATOM      9  C   UNL A   1      37.298 -39.206 -28.563  0.00  0.00    -0.059 C 
ENDBRANCH   1   8
BRANCH   5  10
ATOM     10  C   UNL A   1      34.929 -34.989 -30.729  0.00  0.00    +0.265 C 
ATOM     11  O   UNL A   1      33.990 -35.777 -30.862  0.00  0.00    -0.283 OA
BRANCH  10  12
ATOM     12  C   UNL A   1      34.742 -33.485 -30.607  0.00  0.00    +0.455 C 
ATOM     13  F   UNL A   1      35.682 -32.910 -29.804  0.00  0.00    -0.163 F 
ATOM     14  F   UNL A   1      34.834 -32.851 -31.810  0.00  0.00    -0.163 F 
ATOM     15  F   UNL A   1      33.534 -33.134 -30.087  0.00  0.00    -0.163 F 
ENDBRANCH  10  12
ENDBRANCH   5  10
TORSDOF 3
ENDMDL
MODEL 15
REMARK VINA RESULT:    -5.965      4.516      6.358
REMARK INTER + INTRA:          -7.502
REMARK INTER:                  -6.945
REMARK INTRA:                  -0.557
REMARK UNBOUND:                -0.491
REMARK  Name = cpd161.pdb
REMARK  5 active torsions:
REMARK  status: ('A' for Active; 'I' for Inactive)
REMARK    1  A    between atoms: C_1  and  C_2
REMARK    2  A    between atoms: C_2  and  C_3
REMARK    3  A    between atoms: C_2  and  C_4
REMARK    4  A    between atoms: C_8  and  C_9
REMARK    5  A    between atoms: C_9  and  C_11
REMARK                            x       y       z     vdW  Elec       q    Type
REMARK                         _______ _______ _______ _____ _____    ______ ____
ROOT
ATOM      1  C   UNL A   1      38.590 -37.001 -30.052  0.00  0.00    -0.044 A 
ATOM      2  C   UNL A   1      38.480 -37.739 -28.868  0.00  0.00    -0.058 A 
ATOM      3  C   UNL A   1      37.310 -37.698 -28.109  0.00  0.00    -0.061 A 
ATOM      4  C   UNL A   1      36.231 -36.908 -28.514  0.00  0.00    -0.051 A 
ATOM      5  C   UNL A   1      36.321 -36.148 -29.684  0.00  0.00    +0.027 A 
ATOM      6  C   UNL A   1      37.502 -36.203 -30.445  0.00  0.00    -0.048 A 
ENDROOT
BRANCH   1   8
ATOM      7  C   UNL A   1      41.143 -37.066 -30.071  0.00  0.00    -0.059 C 
ATOM      8  C   UNL A   1      39.855 -37.000 -30.896  0.00  0.00    -0.021 C 
ATOM      9  C   UNL A   1      39.871 -35.783 -31.824  0.00  0.00    -0.059 C 
ENDBRANCH   1   8
BRANCH   5  10
ATOM     10  C   UNL A   1      35.211 -35.266 -30.165  0.00  0.00    +0.265 C 
ATOM     11  O   UNL A   1      35.251 -34.064 -29.891  0.00  0.00    -0.283 OA
BRANCH  10  12
ATOM     12  C   UNL A   1      34.088 -35.899 -30.970  0.00  0.00    +0.455 C 
ATOM     13  F   UNL A   1      32.950 -36.056 -30.235  0.00  0.00    -0.163 F 
ATOM     14  F   UNL A   1      33.739 -35.150 -32.053  0.00  0.00    -0.163 F 
ATOM     15  F   UNL A   1      34.401 -37.134 -31.450  0.00  0.00    -0.163 F 
ENDBRANCH  10  12
ENDBRANCH   5  10
TORSDOF 3
ENDMDL
MODEL 16
REMARK VINA RESULT:    -5.927      5.329      7.109
REMARK INTER + INTRA:          -7.458
REMARK INTER:                  -6.903
REMARK INTRA:                  -0.555
REMARK UNBOUND:                -0.491
REMARK  Name = cpd161.pdb
REMARK  5 active torsions:
REMARK  status: ('A' for Active; 'I' for Inactive)
REMARK    1  A    between atoms: C_1  and  C_2
REMARK    2  A    between atoms: C_2  and  C_3
REMARK    3  A    between atoms: C_2  and  C_4
REMARK    4  A    between atoms: C_8  and  C_9
REMARK    5  A    between atoms: C_9  and  C_11
REMARK                            x       y       z     vdW  Elec       q    Type
REMARK                         _______ _______ _______ _____ _____    ______ ____
ROOT
ATOM      1  C   UNL A   1      37.193 -36.989 -29.410  0.00  0.00    -0.044 A 
ATOM      2  C   UNL A   1      36.898 -37.501 -28.141  0.00  0.00    -0.058 A 
ATOM      3  C   UNL A   1      35.697 -37.182 -27.506  0.00  0.00    -0.061 A 
ATOM      4  C   UNL A   1      34.774 -36.335 -28.123  0.00  0.00    -0.051 A 
ATOM      5  C   UNL A   1      35.050 -35.797 -29.384  0.00  0.00    +0.027 A 
ATOM      6  C   UNL A   1      36.260 -36.130 -30.017  0.00  0.00    -0.048 A 
ENDROOT
BRANCH   1   8
ATOM      7  C   UNL A   1      39.618 -37.759 -29.191  0.00  0.00    -0.059 C 
ATOM      8  C   UNL A   1      38.499 -37.292 -30.127  0.00  0.00    -0.021 C 
ATOM      9  C   UNL A   1      38.950 -36.079 -30.943  0.00  0.00    -0.059 C 
ENDBRANCH   1   8
BRANCH   5  10
ATOM     10  C   UNL A   1      34.115 -34.868 -30.092  0.00  0.00    +0.265 C 
ATOM     11  O   UNL A   1      33.571 -35.255 -31.129  0.00  0.00    -0.283 OA
BRANCH  10  12
ATOM     12  C   UNL A   1      33.883 -33.490 -29.495  0.00  0.00    +0.455 C 
ATOM     13  F   UNL A   1      33.024 -33.523 -28.436  0.00  0.00    -0.163 F 
ATOM     14  F   UNL A   1      35.032 -32.924 -29.031  0.00  0.00    -0.163 F 
ATOM     15  F   UNL A   1      33.356 -32.601 -30.382  0.00  0.00    -0.163 F 
ENDBRANCH  10  12
ENDBRANCH   5  10
TORSDOF 3
ENDMDL
MODEL 17
REMARK VINA RESULT:    -5.889     18.502     19.239
REMARK INTER + INTRA:          -7.413
REMARK INTER:                  -6.880
REMARK INTRA:                  -0.533
REMARK UNBOUND:                -0.491
REMARK  Name = cpd161.pdb
REMARK  5 active torsions:
REMARK  status: ('A' for Active; 'I' for Inactive)
REMARK    1  A    between atoms: C_1  and  C_2
REMARK    2  A    between atoms: C_2  and  C_3
REMARK    3  A    between atoms: C_2  and  C_4
REMARK    4  A    between atoms: C_8  and  C_9
REMARK    5  A    between atoms: C_9  and  C_11
REMARK                            x       y       z     vdW  Elec       q    Type
REMARK                         _______ _______ _______ _____ _____    ______ ____
ROOT
ATOM      1  C   UNL A   1      44.320 -20.857 -40.234  0.00  0.00    -0.044 A 
ATOM      2  C   UNL A   1      43.799 -20.176 -41.340  0.00  0.00    -0.058 A 
ATOM      3  C   UNL A   1      44.279 -20.433 -42.625  0.00  0.00    -0.061 A 
ATOM      4  C   UNL A   1      45.299 -21.366 -42.826  0.00  0.00    -0.051 A 
ATOM      5  C   UNL A   1      45.848 -22.049 -41.736  0.00  0.00    +0.027 A 
ATOM      6  C   UNL A   1      45.352 -21.787 -40.447  0.00  0.00    -0.048 A 
ENDROOT
BRANCH   1   8
ATOM      7  C   UNL A   1      42.655 -19.627 -38.739  0.00  0.00    -0.059 C 
ATOM      8  C   UNL A   1      43.841 -20.591 -38.815  0.00  0.00    -0.021 C 
ATOM      9  C   UNL A   1      45.000 -20.090 -37.950  0.00  0.00    -0.059 C 
ENDBRANCH   1   8
BRANCH   5  10
ATOM     10  C   UNL A   1      46.955 -23.046 -41.878  0.00  0.00    +0.265 C 
ATOM     11  O   UNL A   1      46.729 -24.097 -42.483  0.00  0.00    -0.283 OA
BRANCH  10  12
ATOM     12  C   UNL A   1      48.305 -22.712 -41.267  0.00  0.00    +0.455 C 
ATOM     13  F   UNL A   1      48.335 -22.936 -39.922  0.00  0.00    -0.163 F 
ATOM     14  F   UNL A   1      49.315 -23.459 -41.796  0.00  0.00    -0.163 F 
ATOM     15  F   UNL A   1      48.667 -21.411 -41.441  0.00  0.00    -0.163 F 
ENDBRANCH  10  12
ENDBRANCH   5  10
TORSDOF 3
ENDMDL
MODEL 18
REMARK VINA RESULT:    -5.634     17.698     19.187
REMARK INTER + INTRA:          -7.114
REMARK INTER:                  -6.595
REMARK INTRA:                  -0.519
REMARK UNBOUND:                -0.491
REMARK  Name = cpd161.pdb
REMARK  5 active torsions:
REMARK  status: ('A' for Active; 'I' for Inactive)
REMARK    1  A    between atoms: C_1  and  C_2
REMARK    2  A    between atoms: C_2  and  C_3
REMARK    3  A    between atoms: C_2  and  C_4
REMARK    4  A    between atoms: C_8  and  C_9
REMARK    5  A    between atoms: C_9  and  C_11
REMARK                            x       y       z     vdW  Elec       q    Type
REMARK                         _______ _______ _______ _____ _____    ______ ____
ROOT
ATOM      1  C   UNL A   1      44.213 -21.132 -40.210  0.00  0.00    -0.044 A 
ATOM      2  C   UNL A   1      43.370 -21.358 -41.305  0.00  0.00    -0.058 A 
ATOM      3  C   UNL A   1      43.898 -21.701 -42.550  0.00  0.00    -0.061 A 
ATOM      4  C   UNL A   1      45.279 -21.812 -42.727  0.00  0.00    -0.051 A 
ATOM      5  C   UNL A   1      46.144 -21.576 -41.654  0.00  0.00    +0.027 A 
ATOM      6  C   UNL A   1      45.601 -21.238 -40.402  0.00  0.00    -0.048 A 
ENDROOT
BRANCH   1   8
ATOM      7  C   UNL A   1      42.412 -21.489 -38.435  0.00  0.00    -0.059 C 
ATOM      8  C   UNL A   1      43.681 -20.735 -38.842  0.00  0.00    -0.021 C 
ATOM      9  C   UNL A   1      43.452 -19.223 -38.781  0.00  0.00    -0.059 C 
ENDBRANCH   1   8
BRANCH   5  10
ATOM     10  C   UNL A   1      47.633 -21.659 -41.779  0.00  0.00    +0.265 C 
ATOM     11  O   UNL A   1      48.260 -20.635 -42.058  0.00  0.00    -0.283 OA
BRANCH  10  12
ATOM     12  C   UNL A   1      48.298 -23.007 -41.556  0.00  0.00    +0.455 C 
ATOM     13  F   UNL A   1      49.575 -22.885 -41.096  0.00  0.00    -0.163 F 
ATOM     14  F   UNL A   1      47.636 -23.767 -40.639  0.00  0.00    -0.163 F 
ATOM     15  F   UNL A   1      48.374 -23.763 -42.687  0.00  0.00    -0.163 F 
ENDBRANCH  10  12
ENDBRANCH   5  10
TORSDOF 3
ENDMDL
MODEL 19
REMARK VINA RESULT:    -5.591     19.981     21.232
REMARK INTER + INTRA:          -7.063
REMARK INTER:                  -6.514
REMARK INTRA:                  -0.548
REMARK UNBOUND:                -0.491
REMARK  Name = cpd161.pdb
REMARK  5 active torsions:
REMARK  status: ('A' for Active; 'I' for Inactive)
REMARK    1  A    between atoms: C_1  and  C_2
REMARK    2  A    between atoms: C_2  and  C_3
REMARK    3  A    between atoms: C_2  and  C_4
REMARK    4  A    between atoms: C_8  and  C_9
REMARK    5  A    between atoms: C_9  and  C_11
REMARK                            x       y       z     vdW  Elec       q    Type
REMARK                         _______ _______ _______ _____ _____    ______ ____
ROOT
ATOM      1  C   UNL A   1      46.185 -21.754 -41.542  0.00  0.00    -0.044 A 
ATOM      2  C   UNL A   1      45.323 -21.711 -42.644  0.00  0.00    -0.058 A 
ATOM      3  C   UNL A   1      44.617 -20.547 -42.951  0.00  0.00    -0.061 A 
ATOM      4  C   UNL A   1      44.749 -19.409 -42.154  0.00  0.00    -0.051 A 
ATOM      5  C   UNL A   1      45.590 -19.429 -41.037  0.00  0.00    +0.027 A 
ATOM      6  C   UNL A   1      46.302 -20.605 -40.741  0.00  0.00    -0.048 A 
ENDROOT
BRANCH   1   8
ATOM      7  C   UNL A   1      48.173 -22.731 -40.273  0.00  0.00    -0.059 C 
ATOM      8  C   UNL A   1      46.956 -23.007 -41.159  0.00  0.00    -0.021 C 
ATOM      9  C   UNL A   1      47.366 -23.780 -42.414  0.00  0.00    -0.059 C 
ENDBRANCH   1   8
BRANCH   5  10
ATOM     10  C   UNL A   1      45.762 -18.252 -40.129  0.00  0.00    +0.265 C 
ATOM     11  O   UNL A   1      45.042 -18.164 -39.132  0.00  0.00    -0.283 OA
BRANCH  10  12
ATOM     12  C   UNL A   1      46.820 -17.220 -40.485  0.00  0.00    +0.455 C 
ATOM     13  F   UNL A   1      47.529 -16.808 -39.396  0.00  0.00    -0.163 F 
ATOM     14  F   UNL A   1      47.736 -17.701 -41.372  0.00  0.00    -0.163 F 
ATOM     15  F   UNL A   1      46.304 -16.093 -41.049  0.00  0.00    -0.163 F 
ENDBRANCH  10  12
ENDBRANCH   5  10
TORSDOF 3
ENDMDL
MODEL 20
REMARK VINA RESULT:    -5.324     18.722     19.384
REMARK INTER + INTRA:          -6.749
REMARK INTER:                  -6.193
REMARK INTRA:                  -0.556
REMARK UNBOUND:                -0.491
REMARK  Name = cpd161.pdb
REMARK  5 active torsions:
REMARK  status: ('A' for Active; 'I' for Inactive)
REMARK    1  A    between atoms: C_1  and  C_2
REMARK    2  A    between atoms: C_2  and  C_3
REMARK    3  A    between atoms: C_2  and  C_4
REMARK    4  A    between atoms: C_8  and  C_9
REMARK    5  A    between atoms: C_9  and  C_11
REMARK                            x       y       z     vdW  Elec       q    Type
REMARK                         _______ _______ _______ _____ _____    ______ ____
ROOT
ATOM      1  C   UNL A   1      45.757 -20.522 -38.340  0.00  0.00    -0.044 A 
ATOM      2  C   UNL A   1      44.417 -20.583 -38.739  0.00  0.00    -0.058 A 
ATOM      3  C   UNL A   1      44.077 -20.962 -40.038  0.00  0.00    -0.061 A 
ATOM      4  C   UNL A   1      45.071 -21.275 -40.967  0.00  0.00    -0.051 A 
ATOM      5  C   UNL A   1      46.419 -21.207 -40.600  0.00  0.00    +0.027 A 
ATOM      6  C   UNL A   1      46.750 -20.831 -39.286  0.00  0.00    -0.048 A 
ENDROOT
BRANCH   1   8
ATOM      7  C   UNL A   1      45.027 -19.497 -36.118  0.00  0.00    -0.059 C 
ATOM      8  C   UNL A   1      46.172 -20.093 -36.942  0.00  0.00    -0.021 C 
ATOM      9  C   UNL A   1      47.348 -19.116 -37.015  0.00  0.00    -0.059 C 
ENDBRANCH   1   8
BRANCH   5  10
ATOM     10  C   UNL A   1      47.534 -21.510 -41.550  0.00  0.00    +0.265 C 
ATOM     11  O   UNL A   1      48.025 -20.583 -42.200  0.00  0.00    -0.283 OA
BRANCH  10  12
ATOM     12  C   UNL A   1      48.007 -22.950 -41.667  0.00  0.00    +0.455 C 
ATOM     13  F   UNL A   1      48.010 -23.391 -42.957  0.00  0.00    -0.163 F 
ATOM     14  F   UNL A   1      49.279 -23.118 -41.207  0.00  0.00    -0.163 F 
ATOM     15  F   UNL A   1      47.234 -23.827 -40.969  0.00  0.00    -0.163 F 
ENDBRANCH  10  12
ENDBRANCH   5  10
TORSDOF 3
ENDMDL
