@<TRIPOS>MOLECULE
*****
 15 15 0 0 0
SMALL
GASTEIGER

@<TRIPOS>ATOM
      1 C          -1.7321   -2.0000    0.0000 C.3     1  UNL1        0.0047
      2 C          -0.8660   -1.5000    0.0000 C.3     1  UNL1        0.0224
      3 C          -0.0000   -2.0000    0.0000 C.3     1  UNL1        0.0047
      4 C          -0.8660   -0.5000    0.0000 C.ar    1  UNL1       -0.0224
      5 C          -1.7321   -0.0000    0.0000 C.ar    1  UNL1       -0.0043
      6 C          -1.7321    1.0000    0.0000 C.ar    1  UNL1       -0.0002
      7 C          -0.8660    1.5000    0.0000 C.ar    1  UNL1        0.0031
      8 C          -0.0000    1.0000    0.0000 C.ar    1  UNL1        0.0428
      9 C           0.8660    1.5000    0.0000 C.2     1  UNL1        0.2666
     10 O           1.7321    1.0000    0.0000 O.2     1  UNL1       -0.2825
     11 C           0.8660    2.5000    0.0000 C.3     1  UNL1        0.4554
     12 F           0.3660    3.3660    0.0000 F       1  UNL1       -0.1631
     13 F          -0.1340    2.5000    0.0000 F       1  UNL1       -0.1631
     14 F           1.7321    3.0000    0.0000 F       1  UNL1       -0.1631
     15 C           0.0000    0.0000    0.0000 C.ar    1  UNL1       -0.0012
@<TRIPOS>BOND
     1     1     2    1
     2     2     3    1
     3     2     4    1
     4     4     5   ar
     5     5     6   ar
     6     6     7   ar
     7     7     8   ar
     8     8     9    1
     9     9    10    2
    10     9    11    1
    11    11    12    1
    12    11    13    1
    13    11    14    1
    14     8    15   ar
    15     4    15   ar
