REMARK  Name = cpd161.pdb
REMARK  5 active torsions:
REMARK  status: ('A' for Active; 'I' for Inactive)
REMARK    1  A    between atoms: C_1  and  C_2
REMARK    2  A    between atoms: C_2  and  C_3
REMARK    3  A    between atoms: C_2  and  C_4
REMARK    4  A    between atoms: C_8  and  C_9
REMARK    5  A    between atoms: C_9  and  C_11
REMARK                            x       y       z     vdW  Elec       q    Type
REMARK                         _______ _______ _______ _____ _____    ______ ____
ROOT
ATOM      1  C   UNL A   1      -0.849  -0.754  -0.072  0.00  0.00    -0.044 A 
ATOM      2  C   UNL A   1      -1.996  -0.189   0.498  0.00  0.00    -0.058 A 
ATOM      3  C   UNL A   1      -2.080   1.187   0.713  0.00  0.00    -0.061 A 
ATOM      4  C   UNL A   1      -1.014   2.023   0.374  0.00  0.00    -0.051 A 
ATOM      5  C   UNL A   1       0.150   1.483  -0.182  0.00  0.00    +0.027 A 
ATOM      6  C   UNL A   1       0.221   0.096  -0.401  0.00  0.00    -0.048 A 
ENDROOT
BRANCH   1   8
ATOM      7  C   UNL A   1      -1.975  -2.908  -0.854  0.00  0.00    -0.059 C 
ATOM      8  C   UNL A   1      -0.707  -2.250  -0.303  0.00  0.00    -0.021 C 
ATOM      9  C   UNL A   1      -0.255  -2.944   0.984  0.00  0.00    -0.059 C 
ENDBRANCH   1   8
BRANCH   5  10
ATOM     10  C   UNL A   1       1.336   2.318  -0.550  0.00  0.00    +0.265 C 
ATOM     11  O   UNL A   1       2.304   1.768  -1.080  0.00  0.00    -0.283 OA
BRANCH  10  12
ATOM     12  C   UNL A   1       1.286   3.807  -0.250  0.00  0.00    +0.455 C 
ATOM     13  F   UNL A   1       0.280   4.437  -0.921  0.00  0.00    -0.163 F 
ATOM     14  F   UNL A   1       1.077   4.064   1.072  0.00  0.00    -0.163 F 
ATOM     15  F   UNL A   1       2.432   4.462  -0.585  0.00  0.00    -0.163 F 
ENDBRANCH  10  12
ENDBRANCH   5  10
TORSDOF 3
