REMARK  Name = cpd234.pdb
REMARK  4 active torsions:
REMARK  status: ('A' for Active; 'I' for Inactive)
REMARK    1  A    between atoms: C_1  and  C_2
REMARK    2  A    between atoms: C_11  and  N_12
REMARK    3  A    between atoms: C_13  and  C_14
REMARK    4  A    between atoms: C_14  and  N_15
REMARK                            x       y       z     vdW  Elec       q    Type
REMARK                         _______ _______ _______ _____ _____    ______ ____
ROOT
ATOM      1  C   UNL     1       1.439  -2.290  -0.500  0.00  0.00    -0.022 C 
ATOM      2  C   UNL     1       0.254  -1.377  -0.347  0.00  0.00    +0.045 A 
ATOM      3  N   UNL     1      -0.946  -2.007  -0.324  0.00  0.00    -0.251 NA
ATOM      4  C   UNL     1      -2.057  -1.291  -0.125  0.00  0.00    +0.076 A 
ATOM      5  C   UNL     1      -3.265  -1.977  -0.063  0.00  0.00    -0.035 A 
ATOM      6  C   UNL     1      -4.480  -1.326   0.150  0.00  0.00    -0.057 A 
ATOM      7  C   UNL     1      -4.491   0.051   0.301  0.00  0.00    -0.026 A 
ATOM      8  C   UNL     1      -3.288   0.749   0.238  0.00  0.00    +0.134 A 
ATOM      9  F   UNL     1      -3.345   2.087   0.359  0.00  0.00    -0.205 F 
ATOM     10  C   UNL     1      -2.044   0.107   0.028  0.00  0.00    +0.056 A 
ATOM     11  C   UNL     1      -0.786   0.772  -0.060  0.00  0.00    +0.043 A 
ATOM     12  C   UNL     1       0.393   0.012  -0.225  0.00  0.00    +0.008 A 
ENDROOT
BRANCH  11  13
ATOM     13  N   UNL     1      -0.703   2.157   0.235  0.00  0.00    -0.357 N 
ATOM     14  H   UNL     1      -1.525   2.686   0.350  0.00  0.00    +0.000 HD
ATOM     15  H   UNL     1       0.177   2.589   0.325  0.00  0.00    +0.000 HD
ENDBRANCH  11  13
BRANCH  12  16
ATOM     16  C   UNL     1       1.762   0.648  -0.210  0.00  0.00    +0.022 C 
BRANCH  16  17
ATOM     17  N   UNL     1       2.294   0.744   1.144  0.00  0.00    -0.326 N 
ATOM     18  H   UNL     1       1.677   1.326   1.711  0.00  0.00    +0.000 HD
ATOM     19  H   UNL     1       3.224   1.162   1.115  0.00  0.00    +0.000 HD
ATOM     20  H   UNL     1       2.353  -0.188   1.553  0.00  0.00    +0.000 HD
ENDBRANCH  16  17
ENDBRANCH  12  16
TORSDOF 3
