MODEL 1
REMARK VINA RESULT:    -7.150      0.000      0.000
REMARK INTER + INTRA:          -7.906
REMARK INTER:                  -7.986
REMARK INTRA:                   0.080
REMARK UNBOUND:                 0.080
REMARK  Name = cpd234.pdb
REMARK  4 active torsions:
REMARK  status: ('A' for Active; 'I' for Inactive)
REMARK    1  A    between atoms: C_1  and  C_2
REMARK    2  A    between atoms: C_11  and  N_12
REMARK    3  A    between atoms: C_13  and  C_14
REMARK    4  A    between atoms: C_14  and  N_15
REMARK                            x       y       z     vdW  Elec       q    Type
REMARK                         _______ _______ _______ _____ _____    ______ ____
ROOT
ATOM      1  C   UNL     1      44.461 -39.805 -28.408  0.00  0.00    -0.022 C 
ATOM      2  C   UNL     1      45.758 -39.897 -29.164  0.00  0.00    +0.045 A 
ATOM      3  N   UNL     1      46.691 -38.984 -28.797  0.00  0.00    -0.251 NA
ATOM      4  C   UNL     1      47.902 -39.024 -29.362  0.00  0.00    +0.076 A 
ATOM      5  C   UNL     1      48.847 -38.101 -28.929  0.00  0.00    -0.035 A 
ATOM      6  C   UNL     1      50.142 -38.063 -29.447  0.00  0.00    -0.057 A 
ATOM      7  C   UNL     1      50.503 -38.971 -30.429  0.00  0.00    -0.026 A 
ATOM      8  C   UNL     1      49.564 -39.899 -30.872  0.00  0.00    +0.134 A 
ATOM      9  F   UNL     1      49.945 -40.743 -31.848  0.00  0.00    -0.205 F 
ATOM     10  C   UNL     1      48.247 -39.957 -30.357  0.00  0.00    +0.056 A 
ATOM     11  C   UNL     1      47.243 -40.874 -30.783  0.00  0.00    +0.043 A 
ATOM     12  C   UNL     1      45.977 -40.862 -30.155  0.00  0.00    +0.008 A 
ENDROOT
BRANCH  11  13
ATOM     13  N   UNL     1      47.585 -41.925 -31.672  0.00  0.00    -0.357 N 
ATOM     14  H   UNL     1      47.888 -42.792 -31.316  0.00  0.00    +0.000 HD
ATOM     15  H   UNL     1      47.518 -41.789 -32.644  0.00  0.00    +0.000 HD
ENDBRANCH  11  13
BRANCH  12  16
ATOM     16  C   UNL     1      44.913 -41.881 -30.483  0.00  0.00    +0.022 C 
BRANCH  16  17
ATOM     17  N   UNL     1      44.784 -42.880 -29.429  0.00  0.00    -0.326 N 
ATOM     18  H   UNL     1      44.517 -43.775 -29.839  0.00  0.00    +0.000 HD
ATOM     19  H   UNL     1      44.070 -42.583 -28.764  0.00  0.00    +0.000 HD
ATOM     20  H   UNL     1      45.676 -42.981 -28.945  0.00  0.00    +0.000 HD
ENDBRANCH  16  17
ENDBRANCH  12  16
TORSDOF 3
ENDMDL
MODEL 2
REMARK VINA RESULT:    -6.873      8.360     10.795
REMARK INTER + INTRA:          -7.597
REMARK INTER:                  -7.511
REMARK INTRA:                  -0.086
REMARK UNBOUND:                 0.080
REMARK  Name = cpd234.pdb
REMARK  4 active torsions:
REMARK  status: ('A' for Active; 'I' for Inactive)
REMARK    1  A    between atoms: C_1  and  C_2
REMARK    2  A    between atoms: C_11  and  N_12
REMARK    3  A    between atoms: C_13  and  C_14
REMARK    4  A    between atoms: C_14  and  N_15
REMARK                            x       y       z     vdW  Elec       q    Type
REMARK                         _______ _______ _______ _____ _____    ______ ____
ROOT
ATOM      1  C   UNL     1      41.714 -37.755 -30.535  0.00  0.00    -0.022 C 
ATOM      2  C   UNL     1      40.304 -37.242 -30.426  0.00  0.00    +0.045 A 
ATOM      3  N   UNL     1      39.575 -37.799 -29.428  0.00  0.00    -0.251 NA
ATOM      4  C   UNL     1      38.331 -37.364 -29.205  0.00  0.00    +0.076 A 
ATOM      5  C   UNL     1      37.630 -37.927 -28.145  0.00  0.00    -0.035 A 
ATOM      6  C   UNL     1      36.330 -37.537 -27.822  0.00  0.00    -0.057 A 
ATOM      7  C   UNL     1      35.710 -36.559 -28.582  0.00  0.00    -0.026 A 
ATOM      8  C   UNL     1      36.401 -35.990 -29.648  0.00  0.00    +0.134 A 
ATOM      9  F   UNL     1      35.753 -35.066 -30.379  0.00  0.00    -0.205 F 
ATOM     10  C   UNL     1      37.722 -36.367 -29.989  0.00  0.00    +0.056 A 
ATOM     11  C   UNL     1      38.470 -35.829 -31.077  0.00  0.00    +0.043 A 
ATOM     12  C   UNL     1      39.800 -36.256 -31.285  0.00  0.00    +0.008 A 
ENDROOT
BRANCH  11  13
ATOM     13  N   UNL     1      37.958 -34.722 -31.801  0.00  0.00    -0.357 N 
ATOM     14  H   UNL     1      38.478 -33.888 -31.858  0.00  0.00    +0.000 HD
ATOM     15  H   UNL     1      37.082 -34.788 -32.246  0.00  0.00    +0.000 HD
ENDBRANCH  11  13
BRANCH  12  16
ATOM     16  C   UNL     1      40.680 -35.641 -32.347  0.00  0.00    +0.022 C 
BRANCH  16  17
ATOM     17  N   UNL     1      40.450 -36.249 -33.652  0.00  0.00    -0.326 N 
ATOM     18  H   UNL     1      40.942 -37.142 -33.702  0.00  0.00    +0.000 HD
ATOM     19  H   UNL     1      40.798 -35.628 -34.382  0.00  0.00    +0.000 HD
ATOM     20  H   UNL     1      39.451 -36.404 -33.784  0.00  0.00    +0.000 HD
ENDBRANCH  16  17
ENDBRANCH  12  16
TORSDOF 3
ENDMDL
MODEL 3
REMARK VINA RESULT:    -6.727      8.666     10.623
REMARK INTER + INTRA:          -7.434
REMARK INTER:                  -7.348
REMARK INTRA:                  -0.086
REMARK UNBOUND:                 0.080
REMARK  Name = cpd234.pdb
REMARK  4 active torsions:
REMARK  status: ('A' for Active; 'I' for Inactive)
REMARK    1  A    between atoms: C_1  and  C_2
REMARK    2  A    between atoms: C_11  and  N_12
REMARK    3  A    between atoms: C_13  and  C_14
REMARK    4  A    between atoms: C_14  and  N_15
REMARK                            x       y       z     vdW  Elec       q    Type
REMARK                         _______ _______ _______ _____ _____    ______ ____
ROOT
ATOM      1  C   UNL     1      34.741 -36.196 -28.776  0.00  0.00    -0.022 C 
ATOM      2  C   UNL     1      36.104 -36.304 -29.403  0.00  0.00    +0.045 A 
ATOM      3  N   UNL     1      36.999 -37.029 -28.689  0.00  0.00    -0.251 NA
ATOM      4  C   UNL     1      38.219 -37.241 -29.191  0.00  0.00    +0.076 A 
ATOM      5  C   UNL     1      39.095 -38.027 -28.451  0.00  0.00    -0.035 A 
ATOM      6  C   UNL     1      40.388 -38.316 -28.890  0.00  0.00    -0.057 A 
ATOM      7  C   UNL     1      40.820 -37.801 -30.101  0.00  0.00    -0.026 A 
ATOM      8  C   UNL     1      39.953 -37.010 -30.850  0.00  0.00    +0.134 A 
ATOM      9  F   UNL     1      40.422 -36.505 -32.004  0.00  0.00    -0.205 F 
ATOM     10  C   UNL     1      38.637 -36.710 -30.425  0.00  0.00    +0.056 A 
ATOM     11  C   UNL     1      37.713 -35.895 -31.142  0.00  0.00    +0.043 A 
ATOM     12  C   UNL     1      36.408 -35.708 -30.634  0.00  0.00    +0.008 A 
ENDROOT
BRANCH  11  13
ATOM     13  N   UNL     1      38.032 -35.461 -32.455  0.00  0.00    -0.357 N 
ATOM     14  H   UNL     1      37.365 -34.973 -32.988  0.00  0.00    +0.000 HD
ATOM     15  H   UNL     1      38.922 -35.649 -32.832  0.00  0.00    +0.000 HD
ENDBRANCH  11  13
BRANCH  12  16
ATOM     16  C   UNL     1      35.352 -34.953 -31.403  0.00  0.00    +0.022 C 
BRANCH  16  17
ATOM     17  N   UNL     1      35.461 -33.514 -31.193  0.00  0.00    -0.326 N 
ATOM     18  H   UNL     1      36.289 -33.315 -30.631  0.00  0.00    +0.000 HD
ATOM     19  H   UNL     1      34.631 -33.177 -30.706  0.00  0.00    +0.000 HD
ATOM     20  H   UNL     1      35.541 -33.044 -32.094  0.00  0.00    +0.000 HD
ENDBRANCH  16  17
ENDBRANCH  12  16
TORSDOF 3
ENDMDL
MODEL 4
REMARK VINA RESULT:    -6.629     20.892     22.055
REMARK INTER + INTRA:          -7.324
REMARK INTER:                  -7.259
REMARK INTRA:                  -0.065
REMARK UNBOUND:                 0.080
REMARK  Name = cpd234.pdb
REMARK  4 active torsions:
REMARK  status: ('A' for Active; 'I' for Inactive)
REMARK    1  A    between atoms: C_1  and  C_2
REMARK    2  A    between atoms: C_11  and  N_12
REMARK    3  A    between atoms: C_13  and  C_14
REMARK    4  A    between atoms: C_14  and  N_15
REMARK                            x       y       z     vdW  Elec       q    Type
REMARK                         _______ _______ _______ _____ _____    ______ ____
ROOT
ATOM      1  C   UNL     1      48.162 -24.111 -42.654  0.00  0.00    -0.022 C 
ATOM      2  C   UNL     1      47.396 -23.036 -41.933  0.00  0.00    +0.045 A 
ATOM      3  N   UNL     1      46.128 -22.852 -42.376  0.00  0.00    -0.251 NA
ATOM      4  C   UNL     1      45.342 -21.966 -41.758  0.00  0.00    +0.076 A 
ATOM      5  C   UNL     1      44.034 -21.836 -42.212  0.00  0.00    -0.035 A 
ATOM      6  C   UNL     1      43.129 -20.948 -41.630  0.00  0.00    -0.057 A 
ATOM      7  C   UNL     1      43.543 -20.163 -40.566  0.00  0.00    -0.026 A 
ATOM      8  C   UNL     1      44.851 -20.282 -40.105  0.00  0.00    +0.134 A 
ATOM      9  F   UNL     1      45.222 -19.481 -39.091  0.00  0.00    -0.205 F 
ATOM     10  C   UNL     1      45.783 -21.180 -40.678  0.00  0.00    +0.056 A 
ATOM     11  C   UNL     1      47.136 -21.333 -40.256  0.00  0.00    +0.043 A 
ATOM     12  C   UNL     1      47.954 -22.301 -40.879  0.00  0.00    +0.008 A 
ENDROOT
BRANCH  11  13
ATOM     13  N   UNL     1      47.583 -20.675 -39.081  0.00  0.00    -0.357 N 
ATOM     14  H   UNL     1      47.763 -19.708 -39.097  0.00  0.00    +0.000 HD
ATOM     15  H   UNL     1      47.712 -21.186 -38.250  0.00  0.00    +0.000 HD
ENDBRANCH  11  13
BRANCH  12  16
ATOM     16  C   UNL     1      49.357 -22.588 -40.402  0.00  0.00    +0.022 C 
BRANCH  16  17
ATOM     17  N   UNL     1      50.347 -21.828 -41.156  0.00  0.00    -0.326 N 
ATOM     18  H   UNL     1      49.898 -21.020 -41.587  0.00  0.00    +0.000 HD
ATOM     19  H   UNL     1      50.750 -22.421 -41.881  0.00  0.00    +0.000 HD
ATOM     20  H   UNL     1      51.085 -21.512 -40.527  0.00  0.00    +0.000 HD
ENDBRANCH  16  17
ENDBRANCH  12  16
TORSDOF 3
ENDMDL
MODEL 5
REMARK VINA RESULT:    -6.615      8.049      9.788
REMARK INTER + INTRA:          -7.309
REMARK INTER:                  -7.217
REMARK INTRA:                  -0.092
REMARK UNBOUND:                 0.080
REMARK  Name = cpd234.pdb
REMARK  4 active torsions:
REMARK  status: ('A' for Active; 'I' for Inactive)
REMARK    1  A    between atoms: C_1  and  C_2
REMARK    2  A    between atoms: C_11  and  N_12
REMARK    3  A    between atoms: C_13  and  C_14
REMARK    4  A    between atoms: C_14  and  N_15
REMARK                            x       y       z     vdW  Elec       q    Type
REMARK                         _______ _______ _______ _____ _____    ______ ____
ROOT
ATOM      1  C   UNL     1      35.539 -35.208 -30.902  0.00  0.00    -0.022 C 
ATOM      2  C   UNL     1      36.880 -35.879 -30.791  0.00  0.00    +0.045 A 
ATOM      3  N   UNL     1      37.724 -35.628 -31.822  0.00  0.00    -0.251 NA
ATOM      4  C   UNL     1      38.965 -36.124 -31.786  0.00  0.00    +0.076 A 
ATOM      5  C   UNL     1      39.817 -35.809 -32.839  0.00  0.00    -0.035 A 
ATOM      6  C   UNL     1      41.133 -36.267 -32.893  0.00  0.00    -0.057 A 
ATOM      7  C   UNL     1      41.613 -37.068 -31.869  0.00  0.00    -0.026 A 
ATOM      8  C   UNL     1      40.768 -37.392 -30.811  0.00  0.00    +0.134 A 
ATOM      9  F   UNL     1      41.262 -38.196 -29.853  0.00  0.00    -0.205 F 
ATOM     10  C   UNL     1      39.431 -36.934 -30.734  0.00  0.00    +0.056 A 
ATOM     11  C   UNL     1      38.519 -37.247 -29.684  0.00  0.00    +0.043 A 
ATOM     12  C   UNL     1      37.222 -36.687 -29.699  0.00  0.00    +0.008 A 
ENDROOT
BRANCH  11  13
ATOM     13  N   UNL     1      38.984 -37.932 -28.533  0.00  0.00    -0.357 N 
ATOM     14  H   UNL     1      38.448 -37.929 -27.708  0.00  0.00    +0.000 HD
ATOM     15  H   UNL     1      39.843 -38.412 -28.560  0.00  0.00    +0.000 HD
ENDBRANCH  11  13
BRANCH  12  16
ATOM     16  C   UNL     1      36.253 -36.888 -28.559  0.00  0.00    +0.022 C 
BRANCH  16  17
ATOM     17  N   UNL     1      35.485 -38.117 -28.719  0.00  0.00    -0.326 N 
ATOM     18  H   UNL     1      35.561 -38.442 -29.683  0.00  0.00    +0.000 HD
ATOM     19  H   UNL     1      34.506 -37.938 -28.496  0.00  0.00    +0.000 HD
ATOM     20  H   UNL     1      35.852 -38.831 -28.090  0.00  0.00    +0.000 HD
ENDBRANCH  16  17
ENDBRANCH  12  16
TORSDOF 3
ENDMDL
MODEL 6
REMARK VINA RESULT:    -6.453      8.267      9.924
REMARK INTER + INTRA:          -7.127
REMARK INTER:                  -7.074
REMARK INTRA:                  -0.053
REMARK UNBOUND:                 0.080
REMARK  Name = cpd234.pdb
REMARK  4 active torsions:
REMARK  status: ('A' for Active; 'I' for Inactive)
REMARK    1  A    between atoms: C_1  and  C_2
REMARK    2  A    between atoms: C_11  and  N_12
REMARK    3  A    between atoms: C_13  and  C_14
REMARK    4  A    between atoms: C_14  and  N_15
REMARK                            x       y       z     vdW  Elec       q    Type
REMARK                         _______ _______ _______ _____ _____    ______ ____
ROOT
ATOM      1  C   UNL     1      37.226 -39.037 -28.804  0.00  0.00    -0.022 C 
ATOM      2  C   UNL     1      37.808 -37.893 -29.587  0.00  0.00    +0.045 A 
ATOM      3  N   UNL     1      39.162 -37.831 -29.575  0.00  0.00    -0.251 NA
ATOM      4  C   UNL     1      39.781 -36.890 -30.295  0.00  0.00    +0.076 A 
ATOM      5  C   UNL     1      41.171 -36.886 -30.294  0.00  0.00    -0.035 A 
ATOM      6  C   UNL     1      41.912 -35.953 -31.019  0.00  0.00    -0.057 A 
ATOM      7  C   UNL     1      41.247 -34.993 -31.764  0.00  0.00    -0.026 A 
ATOM      8  C   UNL     1      39.855 -34.986 -31.771  0.00  0.00    +0.134 A 
ATOM      9  F   UNL     1      39.247 -34.020 -32.482  0.00  0.00    -0.205 F 
ATOM     10  C   UNL     1      39.084 -35.927 -31.046  0.00  0.00    +0.056 A 
ATOM     11  C   UNL     1      37.659 -35.957 -31.005  0.00  0.00    +0.043 A 
ATOM     12  C   UNL     1      37.005 -36.978 -30.281  0.00  0.00    +0.008 A 
ENDROOT
BRANCH  11  13
ATOM     13  N   UNL     1      36.915 -35.104 -31.860  0.00  0.00    -0.357 N 
ATOM     14  H   UNL     1      36.012 -34.811 -31.599  0.00  0.00    +0.000 HD
ATOM     15  H   UNL     1      37.301 -34.805 -32.715  0.00  0.00    +0.000 HD
ENDBRANCH  11  13
BRANCH  12  16
ATOM     16  C   UNL     1      35.503 -37.131 -30.294  0.00  0.00    +0.022 C 
BRANCH  16  17
ATOM     17  N   UNL     1      35.053 -37.912 -31.440  0.00  0.00    -0.326 N 
ATOM     18  H   UNL     1      35.082 -38.905 -31.206  0.00  0.00    +0.000 HD
ATOM     19  H   UNL     1      35.665 -37.732 -32.235  0.00  0.00    +0.000 HD
ATOM     20  H   UNL     1      34.099 -37.647 -31.678  0.00  0.00    +0.000 HD
ENDBRANCH  16  17
ENDBRANCH  12  16
TORSDOF 3
ENDMDL
MODEL 7
REMARK VINA RESULT:    -6.274     18.931     20.659
REMARK INTER + INTRA:          -6.928
REMARK INTER:                  -6.835
REMARK INTRA:                  -0.093
REMARK UNBOUND:                 0.080
REMARK  Name = cpd234.pdb
REMARK  4 active torsions:
REMARK  status: ('A' for Active; 'I' for Inactive)
REMARK    1  A    between atoms: C_1  and  C_2
REMARK    2  A    between atoms: C_11  and  N_12
REMARK    3  A    between atoms: C_13  and  C_14
REMARK    4  A    between atoms: C_14  and  N_15
REMARK                            x       y       z     vdW  Elec       q    Type
REMARK                         _______ _______ _______ _____ _____    ______ ____
ROOT
ATOM      1  C   UNL     1      56.944 -36.922 -51.373  0.00  0.00    -0.022 C 
ATOM      2  C   UNL     1      56.413 -36.580 -50.008  0.00  0.00    +0.045 A 
ATOM      3  N   UNL     1      56.834 -35.387 -49.520  0.00  0.00    -0.251 NA
ATOM      4  C   UNL     1      56.367 -34.960 -48.343  0.00  0.00    +0.076 A 
ATOM      5  C   UNL     1      56.786 -33.712 -47.896  0.00  0.00    -0.035 A 
ATOM      6  C   UNL     1      56.351 -33.170 -46.687  0.00  0.00    -0.057 A 
ATOM      7  C   UNL     1      55.475 -33.897 -45.897  0.00  0.00    -0.026 A 
ATOM      8  C   UNL     1      55.050 -35.149 -46.333  0.00  0.00    +0.134 A 
ATOM      9  F   UNL     1      54.224 -35.836 -45.524  0.00  0.00    -0.205 F 
ATOM     10  C   UNL     1      55.476 -35.715 -47.559  0.00  0.00    +0.056 A 
ATOM     11  C   UNL     1      55.085 -36.996 -48.047  0.00  0.00    +0.043 A 
ATOM     12  C   UNL     1      55.543 -37.429 -49.311  0.00  0.00    +0.008 A 
ENDROOT
BRANCH  11  13
ATOM     13  N   UNL     1      54.077 -37.728 -47.368  0.00  0.00    -0.357 N 
ATOM     14  H   UNL     1      53.563 -38.417 -47.846  0.00  0.00    +0.000 HD
ATOM     15  H   UNL     1      53.892 -37.545 -46.418  0.00  0.00    +0.000 HD
ENDBRANCH  11  13
BRANCH  12  16
ATOM     16  C   UNL     1      55.074 -38.723 -49.931  0.00  0.00    +0.022 C 
BRANCH  16  17
ATOM     17  N   UNL     1      55.907 -39.847 -49.522  0.00  0.00    -0.326 N 
ATOM     18  H   UNL     1      55.553 -40.704 -49.946  0.00  0.00    +0.000 HD
ATOM     19  H   UNL     1      55.884 -39.935 -48.506  0.00  0.00    +0.000 HD
ATOM     20  H   UNL     1      56.867 -39.687 -49.827  0.00  0.00    +0.000 HD
ENDBRANCH  16  17
ENDBRANCH  12  16
TORSDOF 3
ENDMDL
MODEL 8
REMARK VINA RESULT:    -6.086     10.923     13.140
REMARK INTER + INTRA:          -6.718
REMARK INTER:                  -6.739
REMARK INTRA:                   0.021
REMARK UNBOUND:                 0.080
REMARK  Name = cpd234.pdb
REMARK  4 active torsions:
REMARK  status: ('A' for Active; 'I' for Inactive)
REMARK    1  A    between atoms: C_1  and  C_2
REMARK    2  A    between atoms: C_11  and  N_12
REMARK    3  A    between atoms: C_13  and  C_14
REMARK    4  A    between atoms: C_14  and  N_15
REMARK                            x       y       z     vdW  Elec       q    Type
REMARK                         _______ _______ _______ _____ _____    ______ ____
ROOT
ATOM      1  C   UNL     1      32.544 -33.844 -29.489  0.00  0.00    -0.022 C 
ATOM      2  C   UNL     1      33.894 -34.497 -29.603  0.00  0.00    +0.045 A 
ATOM      3  N   UNL     1      34.177 -35.387 -28.621  0.00  0.00    -0.251 NA
ATOM      4  C   UNL     1      35.325 -36.071 -28.668  0.00  0.00    +0.076 A 
ATOM      5  C   UNL     1      35.560 -37.007 -27.667  0.00  0.00    -0.035 A 
ATOM      6  C   UNL     1      36.721 -37.779 -27.629  0.00  0.00    -0.057 A 
ATOM      7  C   UNL     1      37.678 -37.609 -28.616  0.00  0.00    -0.026 A 
ATOM      8  C   UNL     1      37.455 -36.672 -29.622  0.00  0.00    +0.134 A 
ATOM      9  F   UNL     1      38.421 -36.516 -30.543  0.00  0.00    -0.205 F 
ATOM     10  C   UNL     1      36.281 -35.883 -29.681  0.00  0.00    +0.056 A 
ATOM     11  C   UNL     1      36.008 -34.900 -30.678  0.00  0.00    +0.043 A 
ATOM     12  C   UNL     1      34.776 -34.210 -30.654  0.00  0.00    +0.008 A 
ENDROOT
BRANCH  11  13
ATOM     13  N   UNL     1      36.868 -34.780 -31.799  0.00  0.00    -0.357 N 
ATOM     14  H   UNL     1      37.806 -35.071 -31.733  0.00  0.00    +0.000 HD
ATOM     15  H   UNL     1      36.528 -34.405 -32.643  0.00  0.00    +0.000 HD
ENDBRANCH  11  13
BRANCH  12  16
ATOM     16  C   UNL     1      34.381 -33.243 -31.745  0.00  0.00    +0.022 C 
BRANCH  16  17
ATOM     17  N   UNL     1      35.169 -32.018 -31.687  0.00  0.00    -0.326 N 
ATOM     18  H   UNL     1      35.349 -31.685 -32.634  0.00  0.00    +0.000 HD
ATOM     19  H   UNL     1      36.055 -32.206 -31.218  0.00  0.00    +0.000 HD
ATOM     20  H   UNL     1      34.655 -31.307 -31.168  0.00  0.00    +0.000 HD
ENDBRANCH  16  17
ENDBRANCH  12  16
TORSDOF 3
ENDMDL
MODEL 9
REMARK VINA RESULT:    -5.889     17.908     19.430
REMARK INTER + INTRA:          -6.498
REMARK INTER:                  -6.448
REMARK INTRA:                  -0.050
REMARK UNBOUND:                 0.080
REMARK  Name = cpd234.pdb
REMARK  4 active torsions:
REMARK  status: ('A' for Active; 'I' for Inactive)
REMARK    1  A    between atoms: C_1  and  C_2
REMARK    2  A    between atoms: C_11  and  N_12
REMARK    3  A    between atoms: C_13  and  C_14
REMARK    4  A    between atoms: C_14  and  N_15
REMARK                            x       y       z     vdW  Elec       q    Type
REMARK                         _______ _______ _______ _____ _____    ______ ____
ROOT
ATOM      1  C   UNL     1      53.701 -38.065 -50.907  0.00  0.00    -0.022 C 
ATOM      2  C   UNL     1      53.533 -37.396 -49.570  0.00  0.00    +0.045 A 
ATOM      3  N   UNL     1      54.608 -36.683 -49.155  0.00  0.00    -0.251 NA
ATOM      4  C   UNL     1      54.536 -35.996 -48.011  0.00  0.00    +0.076 A 
ATOM      5  C   UNL     1      55.642 -35.240 -47.640  0.00  0.00    -0.035 A 
ATOM      6  C   UNL     1      55.666 -34.481 -46.470  0.00  0.00    -0.057 A 
ATOM      7  C   UNL     1      54.555 -34.479 -45.644  0.00  0.00    -0.026 A 
ATOM      8  C   UNL     1      53.442 -35.234 -46.003  0.00  0.00    +0.134 A 
ATOM      9  F   UNL     1      52.395 -35.229 -45.159  0.00  0.00    -0.205 F 
ATOM     10  C   UNL     1      53.395 -36.007 -47.188  0.00  0.00    +0.056 A 
ATOM     11  C   UNL     1      52.290 -36.809 -47.597  0.00  0.00    +0.043 A 
ATOM     12  C   UNL     1      52.349 -37.499 -48.828  0.00  0.00    +0.008 A 
ENDROOT
BRANCH  11  13
ATOM     13  N   UNL     1      51.067 -36.736 -46.881  0.00  0.00    -0.357 N 
ATOM     14  H   UNL     1      50.488 -37.529 -46.814  0.00  0.00    +0.000 HD
ATOM     15  H   UNL     1      50.799 -35.892 -46.452  0.00  0.00    +0.000 HD
ENDBRANCH  11  13
BRANCH  12  16
ATOM     16  C   UNL     1      51.169 -38.270 -49.369  0.00  0.00    +0.022 C 
BRANCH  16  17
ATOM     17  N   UNL     1      50.247 -37.403 -50.093  0.00  0.00    -0.326 N 
ATOM     18  H   UNL     1      49.560 -37.974 -50.585  0.00  0.00    +0.000 HD
ATOM     19  H   UNL     1      50.768 -36.841 -50.766  0.00  0.00    +0.000 HD
ATOM     20  H   UNL     1      49.770 -36.789 -49.434  0.00  0.00    +0.000 HD
ENDBRANCH  16  17
ENDBRANCH  12  16
TORSDOF 3
ENDMDL
MODEL 10
REMARK VINA RESULT:    -5.862     30.418     32.647
REMARK INTER + INTRA:          -6.468
REMARK INTER:                  -6.412
REMARK INTRA:                  -0.056
REMARK UNBOUND:                 0.080
REMARK  Name = cpd234.pdb
REMARK  4 active torsions:
REMARK  status: ('A' for Active; 'I' for Inactive)
REMARK    1  A    between atoms: C_1  and  C_2
REMARK    2  A    between atoms: C_11  and  N_12
REMARK    3  A    between atoms: C_13  and  C_14
REMARK    4  A    between atoms: C_14  and  N_15
REMARK                            x       y       z     vdW  Elec       q    Type
REMARK                         _______ _______ _______ _____ _____    ______ ____
ROOT
ATOM      1  C   UNL     1      64.702 -21.172  -5.038  0.00  0.00    -0.022 C 
ATOM      2  C   UNL     1      64.059 -22.255  -5.858  0.00  0.00    +0.045 A 
ATOM      3  N   UNL     1      63.973 -21.985  -7.184  0.00  0.00    -0.251 NA
ATOM      4  C   UNL     1      63.478 -22.913  -8.009  0.00  0.00    +0.076 A 
ATOM      5  C   UNL     1      63.447 -22.617  -9.368  0.00  0.00    -0.035 A 
ATOM      6  C   UNL     1      62.959 -23.518 -10.314  0.00  0.00    -0.057 A 
ATOM      7  C   UNL     1      62.484 -24.749  -9.892  0.00  0.00    -0.026 A 
ATOM      8  C   UNL     1      62.507 -25.055  -8.534  0.00  0.00    +0.134 A 
ATOM      9  F   UNL     1      62.009 -26.248  -8.163  0.00  0.00    -0.205 F 
ATOM     10  C   UNL     1      63.003 -24.157  -7.559  0.00  0.00    +0.056 A 
ATOM     11  C   UNL     1      63.037 -24.412  -6.156  0.00  0.00    +0.043 A 
ATOM     12  C   UNL     1      63.601 -23.451  -5.288  0.00  0.00    +0.008 A 
ENDROOT
BRANCH  11  13
ATOM     13  N   UNL     1      62.709 -25.703  -5.670  0.00  0.00    -0.357 N 
ATOM     14  H   UNL     1      62.004 -25.810  -4.992  0.00  0.00    +0.000 HD
ATOM     15  H   UNL     1      63.188 -26.493  -6.011  0.00  0.00    +0.000 HD
ENDBRANCH  11  13
BRANCH  12  16
ATOM     16  C   UNL     1      63.770 -23.711  -3.811  0.00  0.00    +0.022 C 
BRANCH  16  17
ATOM     17  N   UNL     1      65.024 -24.398  -3.527  0.00  0.00    -0.326 N 
ATOM     18  H   UNL     1      65.134 -24.502  -2.518  0.00  0.00    +0.000 HD
ATOM     19  H   UNL     1      65.802 -23.854  -3.899  0.00  0.00    +0.000 HD
ATOM     20  H   UNL     1      65.014 -25.319  -3.964  0.00  0.00    +0.000 HD
ENDBRANCH  16  17
ENDBRANCH  12  16
TORSDOF 3
ENDMDL
MODEL 11
REMARK VINA RESULT:    -5.756     19.373     21.088
REMARK INTER + INTRA:          -6.349
REMARK INTER:                  -6.299
REMARK INTRA:                  -0.051
REMARK UNBOUND:                 0.080
REMARK  Name = cpd234.pdb
REMARK  4 active torsions:
REMARK  status: ('A' for Active; 'I' for Inactive)
REMARK    1  A    between atoms: C_1  and  C_2
REMARK    2  A    between atoms: C_11  and  N_12
REMARK    3  A    between atoms: C_13  and  C_14
REMARK    4  A    between atoms: C_14  and  N_15
REMARK                            x       y       z     vdW  Elec       q    Type
REMARK                         _______ _______ _______ _____ _____    ______ ____
ROOT
ATOM      1  C   UNL     1      54.633 -38.037 -50.607  0.00  0.00    -0.022 C 
ATOM      2  C   UNL     1      54.966 -36.863 -49.728  0.00  0.00    +0.045 A 
ATOM      3  N   UNL     1      54.418 -36.911 -48.489  0.00  0.00    -0.251 NA
ATOM      4  C   UNL     1      54.708 -35.949 -47.608  0.00  0.00    +0.076 A 
ATOM      5  C   UNL     1      54.163 -36.055 -46.333  0.00  0.00    -0.035 A 
ATOM      6  C   UNL     1      54.410 -35.110 -45.338  0.00  0.00    -0.057 A 
ATOM      7  C   UNL     1      55.220 -34.023 -45.624  0.00  0.00    -0.026 A 
ATOM      8  C   UNL     1      55.769 -33.905 -46.898  0.00  0.00    +0.134 A 
ATOM      9  F   UNL     1      56.525 -32.820 -47.145  0.00  0.00    -0.205 F 
ATOM     10  C   UNL     1      55.535 -34.855 -47.920  0.00  0.00    +0.056 A 
ATOM     11  C   UNL     1      56.058 -34.776 -49.244  0.00  0.00    +0.043 A 
ATOM     12  C   UNL     1      55.790 -35.816 -50.162  0.00  0.00    +0.008 A 
ENDROOT
BRANCH  11  13
ATOM     13  N   UNL     1      57.014 -33.777 -49.562  0.00  0.00    -0.357 N 
ATOM     14  H   UNL     1      57.331 -33.676 -50.489  0.00  0.00    +0.000 HD
ATOM     15  H   UNL     1      57.359 -33.184 -48.857  0.00  0.00    +0.000 HD
ENDBRANCH  11  13
BRANCH  12  16
ATOM     16  C   UNL     1      56.408 -35.846 -51.539  0.00  0.00    +0.022 C 
BRANCH  16  17
ATOM     17  N   UNL     1      57.741 -36.436 -51.515  0.00  0.00    -0.326 N 
ATOM     18  H   UNL     1      58.106 -36.490 -52.467  0.00  0.00    +0.000 HD
ATOM     19  H   UNL     1      57.691 -37.374 -51.117  0.00  0.00    +0.000 HD
ATOM     20  H   UNL     1      58.359 -35.858 -50.947  0.00  0.00    +0.000 HD
ENDBRANCH  16  17
ENDBRANCH  12  16
TORSDOF 3
ENDMDL
MODEL 12
REMARK VINA RESULT:    -5.695     21.490     22.118
REMARK INTER + INTRA:          -6.282
REMARK INTER:                  -6.190
REMARK INTRA:                  -0.091
REMARK UNBOUND:                 0.080
REMARK  Name = cpd234.pdb
REMARK  4 active torsions:
REMARK  status: ('A' for Active; 'I' for Inactive)
REMARK    1  A    between atoms: C_1  and  C_2
REMARK    2  A    between atoms: C_11  and  N_12
REMARK    3  A    between atoms: C_13  and  C_14
REMARK    4  A    between atoms: C_14  and  N_15
REMARK                            x       y       z     vdW  Elec       q    Type
REMARK                         _______ _______ _______ _____ _____    ______ ____
ROOT
ATOM      1  C   UNL     1      46.498 -22.957 -42.746  0.00  0.00    -0.022 C 
ATOM      2  C   UNL     1      46.216 -22.102 -41.542  0.00  0.00    +0.045 A 
ATOM      3  N   UNL     1      44.903 -21.844 -41.325  0.00  0.00    -0.251 NA
ATOM      4  C   UNL     1      44.543 -21.148 -40.243  0.00  0.00    +0.076 A 
ATOM      5  C   UNL     1      43.184 -20.942 -40.030  0.00  0.00    -0.035 A 
ATOM      6  C   UNL     1      42.702 -20.237 -38.927  0.00  0.00    -0.057 A 
ATOM      7  C   UNL     1      43.603 -19.719 -38.011  0.00  0.00    -0.026 A 
ATOM      8  C   UNL     1      44.966 -19.916 -38.215  0.00  0.00    +0.134 A 
ATOM      9  F   UNL     1      45.808 -19.371 -37.319  0.00  0.00    -0.205 F 
ATOM     10  C   UNL     1      45.475 -20.633 -39.324  0.00  0.00    +0.056 A 
ATOM     11  C   UNL     1      46.858 -20.852 -39.590  0.00  0.00    +0.043 A 
ATOM     12  C   UNL     1      47.238 -21.626 -40.709  0.00  0.00    +0.008 A 
ENDROOT
BRANCH  11  13
ATOM     13  N   UNL     1      47.826 -20.483 -38.620  0.00  0.00    -0.357 N 
ATOM     14  H   UNL     1      48.659 -20.040 -38.900  0.00  0.00    +0.000 HD
ATOM     15  H   UNL     1      47.664 -20.671 -37.668  0.00  0.00    +0.000 HD
ENDBRANCH  11  13
BRANCH  12  16
ATOM     16  C   UNL     1      48.678 -21.989 -40.978  0.00  0.00    +0.022 C 
BRANCH  16  17
ATOM     17  N   UNL     1      49.343 -20.979 -41.792  0.00  0.00    -0.326 N 
ATOM     18  H   UNL     1      48.870 -20.083 -41.675  0.00  0.00    +0.000 HD
ATOM     19  H   UNL     1      49.308 -21.256 -42.773  0.00  0.00    +0.000 HD
ATOM     20  H   UNL     1      50.315 -20.891 -41.499  0.00  0.00    +0.000 HD
ENDBRANCH  16  17
ENDBRANCH  12  16
TORSDOF 3
ENDMDL
MODEL 13
REMARK VINA RESULT:    -5.556     30.845     32.788
REMARK INTER + INTRA:          -6.126
REMARK INTER:                  -6.034
REMARK INTRA:                  -0.092
REMARK UNBOUND:                 0.080
REMARK  Name = cpd234.pdb
REMARK  4 active torsions:
REMARK  status: ('A' for Active; 'I' for Inactive)
REMARK    1  A    between atoms: C_1  and  C_2
REMARK    2  A    between atoms: C_11  and  N_12
REMARK    3  A    between atoms: C_13  and  C_14
REMARK    4  A    between atoms: C_14  and  N_15
REMARK                            x       y       z     vdW  Elec       q    Type
REMARK                         _______ _______ _______ _____ _____    ______ ____
ROOT
ATOM      1  C   UNL     1      64.132 -26.645  -5.898  0.00  0.00    -0.022 C 
ATOM      2  C   UNL     1      63.960 -25.271  -6.484  0.00  0.00    +0.045 A 
ATOM      3  N   UNL     1      63.838 -25.243  -7.834  0.00  0.00    -0.251 NA
ATOM      4  C   UNL     1      63.615 -24.076  -8.447  0.00  0.00    +0.076 A 
ATOM      5  C   UNL     1      63.450 -24.093  -9.828  0.00  0.00    -0.035 A 
ATOM      6  C   UNL     1      63.203 -22.933 -10.561  0.00  0.00    -0.057 A 
ATOM      7  C   UNL     1      63.123 -21.719  -9.899  0.00  0.00    -0.026 A 
ATOM      8  C   UNL     1      63.288 -21.689  -8.517  0.00  0.00    +0.134 A 
ATOM      9  F   UNL     1      63.233 -20.488  -7.915  0.00  0.00    -0.205 F 
ATOM     10  C   UNL     1      63.534 -22.856  -7.753  0.00  0.00    +0.056 A 
ATOM     11  C   UNL     1      63.726 -22.882  -6.341  0.00  0.00    +0.043 A 
ATOM     12  C   UNL     1      63.918 -24.119  -5.687  0.00  0.00    +0.008 A 
ENDROOT
BRANCH  11  13
ATOM     13  N   UNL     1      63.507 -21.704  -5.581  0.00  0.00    -0.357 N 
ATOM     14  H   UNL     1      63.732 -20.824  -5.962  0.00  0.00    +0.000 HD
ATOM     15  H   UNL     1      63.131 -21.766  -4.674  0.00  0.00    +0.000 HD
ENDBRANCH  11  13
BRANCH  12  16
ATOM     16  C   UNL     1      64.012 -24.223  -4.184  0.00  0.00    +0.022 C 
BRANCH  16  17
ATOM     17  N   UNL     1      65.385 -24.065  -3.720  0.00  0.00    -0.326 N 
ATOM     18  H   UNL     1      65.806 -23.255  -4.175  0.00  0.00    +0.000 HD
ATOM     19  H   UNL     1      65.920 -24.902  -3.952  0.00  0.00    +0.000 HD
ATOM     20  H   UNL     1      65.389 -23.928  -2.710  0.00  0.00    +0.000 HD
ENDBRANCH  16  17
ENDBRANCH  12  16
TORSDOF 3
ENDMDL
MODEL 14
REMARK VINA RESULT:    -5.395     21.479     22.262
REMARK INTER + INTRA:          -5.946
REMARK INTER:                  -5.862
REMARK INTRA:                  -0.083
REMARK UNBOUND:                 0.080
REMARK  Name = cpd234.pdb
REMARK  4 active torsions:
REMARK  status: ('A' for Active; 'I' for Inactive)
REMARK    1  A    between atoms: C_1  and  C_2
REMARK    2  A    between atoms: C_11  and  N_12
REMARK    3  A    between atoms: C_13  and  C_14
REMARK    4  A    between atoms: C_14  and  N_15
REMARK                            x       y       z     vdW  Elec       q    Type
REMARK                         _______ _______ _______ _____ _____    ______ ____
ROOT
ATOM      1  C   UNL     1      44.752 -18.069 -37.868  0.00  0.00    -0.022 C 
ATOM      2  C   UNL     1      45.313 -19.156 -38.742  0.00  0.00    +0.045 A 
ATOM      3  N   UNL     1      44.503 -19.538 -39.760  0.00  0.00    -0.251 NA
ATOM      4  C   UNL     1      44.938 -20.452 -40.633  0.00  0.00    +0.076 A 
ATOM      5  C   UNL     1      44.097 -20.786 -41.690  0.00  0.00    -0.035 A 
ATOM      6  C   UNL     1      44.458 -21.720 -42.661  0.00  0.00    -0.057 A 
ATOM      7  C   UNL     1      45.693 -22.343 -42.573  0.00  0.00    -0.026 A 
ATOM      8  C   UNL     1      46.541 -22.018 -41.518  0.00  0.00    +0.134 A 
ATOM      9  F   UNL     1      47.717 -22.667 -41.452  0.00  0.00    -0.205 F 
ATOM     10  C   UNL     1      46.196 -21.070 -40.526  0.00  0.00    +0.056 A 
ATOM     11  C   UNL     1      47.019 -20.711 -39.418  0.00  0.00    +0.043 A 
ATOM     12  C   UNL     1      46.580 -19.713 -38.520  0.00  0.00    +0.008 A 
ENDROOT
BRANCH  11  13
ATOM     13  N   UNL     1      48.351 -21.193 -39.348  0.00  0.00    -0.357 N 
ATOM     14  H   UNL     1      48.653 -21.897 -39.966  0.00  0.00    +0.000 HD
ATOM     15  H   UNL     1      48.974 -20.823 -38.681  0.00  0.00    +0.000 HD
ENDBRANCH  11  13
BRANCH  12  16
ATOM     16  C   UNL     1      47.453 -19.209 -37.396  0.00  0.00    +0.022 C 
BRANCH  16  17
ATOM     17  N   UNL     1      47.381 -20.080 -36.229  0.00  0.00    -0.326 N 
ATOM     18  H   UNL     1      48.231 -19.976 -35.674  0.00  0.00    +0.000 HD
ATOM     19  H   UNL     1      47.289 -21.049 -36.533  0.00  0.00    +0.000 HD
ATOM     20  H   UNL     1      46.572 -19.823 -35.663  0.00  0.00    +0.000 HD
ENDBRANCH  16  17
ENDBRANCH  12  16
TORSDOF 3
ENDMDL
MODEL 15
REMARK VINA RESULT:    -5.368     21.016     22.071
REMARK INTER + INTRA:          -5.916
REMARK INTER:                  -5.858
REMARK INTRA:                  -0.058
REMARK UNBOUND:                 0.080
REMARK  Name = cpd234.pdb
REMARK  4 active torsions:
REMARK  status: ('A' for Active; 'I' for Inactive)
REMARK    1  A    between atoms: C_1  and  C_2
REMARK    2  A    between atoms: C_11  and  N_12
REMARK    3  A    between atoms: C_13  and  C_14
REMARK    4  A    between atoms: C_14  and  N_15
REMARK                            x       y       z     vdW  Elec       q    Type
REMARK                         _______ _______ _______ _____ _____    ______ ____
ROOT
ATOM      1  C   UNL     1      43.107 -18.643 -39.996  0.00  0.00    -0.022 C 
ATOM      2  C   UNL     1      44.190 -19.686 -40.012  0.00  0.00    +0.045 A 
ATOM      3  N   UNL     1      44.261 -20.411 -41.155  0.00  0.00    -0.251 NA
ATOM      4  C   UNL     1      45.233 -21.318 -41.296  0.00  0.00    +0.076 A 
ATOM      5  C   UNL     1      45.301 -22.011 -42.500  0.00  0.00    -0.035 A 
ATOM      6  C   UNL     1      46.280 -22.971 -42.751  0.00  0.00    -0.057 A 
ATOM      7  C   UNL     1      47.218 -23.252 -41.771  0.00  0.00    -0.026 A 
ATOM      8  C   UNL     1      47.158 -22.567 -40.560  0.00  0.00    +0.134 A 
ATOM      9  F   UNL     1      48.067 -22.891 -39.624  0.00  0.00    -0.205 F 
ATOM     10  C   UNL     1      46.175 -21.586 -40.287  0.00  0.00    +0.056 A 
ATOM     11  C   UNL     1      46.058 -20.866 -39.062  0.00  0.00    +0.043 A 
ATOM     12  C   UNL     1      45.060 -19.875 -38.930  0.00  0.00    +0.008 A 
ENDROOT
BRANCH  11  13
ATOM     13  N   UNL     1      47.070 -20.991 -38.075  0.00  0.00    -0.357 N 
ATOM     14  H   UNL     1      47.874 -21.527 -38.261  0.00  0.00    +0.000 HD
ATOM     15  H   UNL     1      46.966 -20.543 -37.205  0.00  0.00    +0.000 HD
ENDBRANCH  11  13
BRANCH  12  16
ATOM     16  C   UNL     1      44.959 -19.001 -37.703  0.00  0.00    +0.022 C 
BRANCH  16  17
ATOM     17  N   UNL     1      45.811 -17.823 -37.812  0.00  0.00    -0.326 N 
ATOM     18  H   UNL     1      45.372 -17.040 -37.328  0.00  0.00    +0.000 HD
ATOM     19  H   UNL     1      45.940 -17.586 -38.795  0.00  0.00    +0.000 HD
ATOM     20  H   UNL     1      46.718 -18.019 -37.388  0.00  0.00    +0.000 HD
ENDBRANCH  16  17
ENDBRANCH  12  16
TORSDOF 3
ENDMDL
MODEL 16
REMARK VINA RESULT:    -5.350     25.040     26.075
REMARK INTER + INTRA:          -5.896
REMARK INTER:                  -5.804
REMARK INTRA:                  -0.092
REMARK UNBOUND:                 0.080
REMARK  Name = cpd234.pdb
REMARK  4 active torsions:
REMARK  status: ('A' for Active; 'I' for Inactive)
REMARK    1  A    between atoms: C_1  and  C_2
REMARK    2  A    between atoms: C_11  and  N_12
REMARK    3  A    between atoms: C_13  and  C_14
REMARK    4  A    between atoms: C_14  and  N_15
REMARK                            x       y       z     vdW  Elec       q    Type
REMARK                         _______ _______ _______ _____ _____    ______ ____
ROOT
ATOM      1  C   UNL     1      45.329 -34.527 -58.494  0.00  0.00    -0.022 C 
ATOM      2  C   UNL     1      45.255 -34.722 -57.005  0.00  0.00    +0.045 A 
ATOM      3  N   UNL     1      45.182 -36.016 -56.607  0.00  0.00    -0.251 NA
ATOM      4  C   UNL     1      45.179 -36.299 -55.300  0.00  0.00    +0.076 A 
ATOM      5  C   UNL     1      45.148 -37.639 -54.930  0.00  0.00    -0.035 A 
ATOM      6  C   UNL     1      45.151 -38.042 -53.595  0.00  0.00    -0.057 A 
ATOM      7  C   UNL     1      45.183 -37.080 -52.599  0.00  0.00    -0.026 A 
ATOM      8  C   UNL     1      45.211 -35.735 -52.958  0.00  0.00    +0.134 A 
ATOM      9  F   UNL     1      45.210 -34.832 -51.961  0.00  0.00    -0.205 F 
ATOM     10  C   UNL     1      45.213 -35.305 -54.306  0.00  0.00    +0.056 A 
ATOM     11  C   UNL     1      45.227 -33.944 -54.730  0.00  0.00    +0.043 A 
ATOM     12  C   UNL     1      45.276 -33.644 -56.109  0.00  0.00    +0.008 A 
ENDROOT
BRANCH  11  13
ATOM     13  N   UNL     1      45.412 -32.913 -53.772  0.00  0.00    -0.357 N 
ATOM     14  H   UNL     1      45.188 -33.074 -52.827  0.00  0.00    +0.000 HD
ATOM     15  H   UNL     1      45.764 -32.038 -54.053  0.00  0.00    +0.000 HD
ENDBRANCH  11  13
BRANCH  12  16
ATOM     16  C   UNL     1      45.407 -32.228 -56.615  0.00  0.00    +0.022 C 
BRANCH  16  17
ATOM     17  N   UNL     1      44.105 -31.596 -56.785  0.00  0.00    -0.326 N 
ATOM     18  H   UNL     1      43.370 -32.294 -56.664  0.00  0.00    +0.000 HD
ATOM     19  H   UNL     1      44.041 -31.194 -57.721  0.00  0.00    +0.000 HD
ATOM     20  H   UNL     1      43.991 -30.859 -56.090  0.00  0.00    +0.000 HD
ENDBRANCH  16  17
ENDBRANCH  12  16
TORSDOF 3
ENDMDL
MODEL 17
REMARK VINA RESULT:    -5.285     31.040     32.481
REMARK INTER + INTRA:          -5.824
REMARK INTER:                  -5.739
REMARK INTRA:                  -0.085
REMARK UNBOUND:                 0.080
REMARK  Name = cpd234.pdb
REMARK  4 active torsions:
REMARK  status: ('A' for Active; 'I' for Inactive)
REMARK    1  A    between atoms: C_1  and  C_2
REMARK    2  A    between atoms: C_11  and  N_12
REMARK    3  A    between atoms: C_13  and  C_14
REMARK    4  A    between atoms: C_14  and  N_15
REMARK                            x       y       z     vdW  Elec       q    Type
REMARK                         _______ _______ _______ _____ _____    ______ ____
ROOT
ATOM      1  C   UNL     1      63.835 -22.848  -4.212  0.00  0.00    -0.022 C 
ATOM      2  C   UNL     1      63.705 -22.944  -5.707  0.00  0.00    +0.045 A 
ATOM      3  N   UNL     1      63.299 -21.801  -6.313  0.00  0.00    -0.251 NA
ATOM      4  C   UNL     1      63.216 -21.762  -7.647  0.00  0.00    +0.076 A 
ATOM      5  C   UNL     1      62.840 -20.559  -8.235  0.00  0.00    -0.035 A 
ATOM      6  C   UNL     1      62.732 -20.410  -9.618  0.00  0.00    -0.057 A 
ATOM      7  C   UNL     1      63.002 -21.493 -10.438  0.00  0.00    -0.026 A 
ATOM      8  C   UNL     1      63.377 -22.703  -9.860  0.00  0.00    +0.134 A 
ATOM      9  F   UNL     1      63.601 -23.738 -10.688  0.00  0.00    -0.205 F 
ATOM     10  C   UNL     1      63.498 -22.874  -8.460  0.00  0.00    +0.056 A 
ATOM     11  C   UNL     1      63.862 -24.092  -7.814  0.00  0.00    +0.043 A 
ATOM     12  C   UNL     1      63.995 -24.122  -6.408  0.00  0.00    +0.008 A 
ENDROOT
BRANCH  11  13
ATOM     13  N   UNL     1      64.299 -25.195  -8.592  0.00  0.00    -0.357 N 
ATOM     14  H   UNL     1      63.970 -25.308  -9.513  0.00  0.00    +0.000 HD
ATOM     15  H   UNL     1      64.930 -25.847  -8.211  0.00  0.00    +0.000 HD
ENDBRANCH  11  13
BRANCH  12  16
ATOM     16  C   UNL     1      64.488 -25.347  -5.678  0.00  0.00    +0.022 C 
BRANCH  16  17
ATOM     17  N   UNL     1      63.386 -26.213  -5.278  0.00  0.00    -0.326 N 
ATOM     18  H   UNL     1      63.758 -27.088  -4.908  0.00  0.00    +0.000 HD
ATOM     19  H   UNL     1      62.796 -26.409  -6.087  0.00  0.00    +0.000 HD
ATOM     20  H   UNL     1      62.832 -25.749  -4.558  0.00  0.00    +0.000 HD
ENDBRANCH  16  17
ENDBRANCH  12  16
TORSDOF 3
ENDMDL
MODEL 18
REMARK VINA RESULT:    -5.257     22.565     23.710
REMARK INTER + INTRA:          -5.791
REMARK INTER:                  -5.733
REMARK INTRA:                  -0.059
REMARK UNBOUND:                 0.080
REMARK  Name = cpd234.pdb
REMARK  4 active torsions:
REMARK  status: ('A' for Active; 'I' for Inactive)
REMARK    1  A    between atoms: C_1  and  C_2
REMARK    2  A    between atoms: C_11  and  N_12
REMARK    3  A    between atoms: C_13  and  C_14
REMARK    4  A    between atoms: C_14  and  N_15
REMARK                            x       y       z     vdW  Elec       q    Type
REMARK                         _______ _______ _______ _____ _____    ______ ____
ROOT
ATOM      1  C   UNL     1      44.362 -16.397 -41.208  0.00  0.00    -0.022 C 
ATOM      2  C   UNL     1      44.971 -17.752 -40.974  0.00  0.00    +0.045 A 
ATOM      3  N   UNL     1      44.618 -18.695 -41.881  0.00  0.00    -0.251 NA
ATOM      4  C   UNL     1      45.157 -19.916 -41.800  0.00  0.00    +0.076 A 
ATOM      5  C   UNL     1      44.805 -20.843 -42.774  0.00  0.00    -0.035 A 
ATOM      6  C   UNL     1      45.319 -22.140 -42.786  0.00  0.00    -0.057 A 
ATOM      7  C   UNL     1      46.206 -22.525 -41.794  0.00  0.00    -0.026 A 
ATOM      8  C   UNL     1      46.564 -21.605 -40.812  0.00  0.00    +0.134 A 
ATOM      9  F   UNL     1      47.404 -22.027 -39.850  0.00  0.00    -0.205 F 
ATOM     10  C   UNL     1      46.059 -20.283 -40.785  0.00  0.00    +0.056 A 
ATOM     11  C   UNL     1      46.378 -19.307 -39.797  0.00  0.00    +0.043 A 
ATOM     12  C   UNL     1      45.844 -18.004 -39.907  0.00  0.00    +0.008 A 
ENDROOT
BRANCH  11  13
ATOM     13  N   UNL     1      47.392 -19.580 -38.843  0.00  0.00    -0.357 N 
ATOM     14  H   UNL     1      47.783 -20.482 -38.785  0.00  0.00    +0.000 HD
ATOM     15  H   UNL     1      47.704 -18.868 -38.239  0.00  0.00    +0.000 HD
ENDBRANCH  11  13
BRANCH  12  16
ATOM     16  C   UNL     1      46.236 -16.897 -38.959  0.00  0.00    +0.022 C 
BRANCH  16  17
ATOM     17  N   UNL     1      47.417 -16.182 -39.427  0.00  0.00    -0.326 N 
ATOM     18  H   UNL     1      47.141 -15.488 -40.122  0.00  0.00    +0.000 HD
ATOM     19  H   UNL     1      48.070 -16.844 -39.847  0.00  0.00    +0.000 HD
ATOM     20  H   UNL     1      47.867 -15.715 -38.640  0.00  0.00    +0.000 HD
ENDBRANCH  16  17
ENDBRANCH  12  16
TORSDOF 3
ENDMDL
MODEL 19
REMARK VINA RESULT:    -5.120     21.682     22.778
REMARK INTER + INTRA:          -5.639
REMARK INTER:                  -5.552
REMARK INTRA:                  -0.087
REMARK UNBOUND:                 0.080
REMARK  Name = cpd234.pdb
REMARK  4 active torsions:
REMARK  status: ('A' for Active; 'I' for Inactive)
REMARK    1  A    between atoms: C_1  and  C_2
REMARK    2  A    between atoms: C_11  and  N_12
REMARK    3  A    between atoms: C_13  and  C_14
REMARK    4  A    between atoms: C_14  and  N_15
REMARK                            x       y       z     vdW  Elec       q    Type
REMARK                         _______ _______ _______ _____ _____    ______ ____
ROOT
ATOM      1  C   UNL     1      46.395 -18.129 -37.946  0.00  0.00    -0.022 C 
ATOM      2  C   UNL     1      46.254 -19.089 -39.096  0.00  0.00    +0.045 A 
ATOM      3  N   UNL     1      47.066 -20.172 -39.031  0.00  0.00    -0.251 NA
ATOM      4  C   UNL     1      46.970 -21.119 -39.970  0.00  0.00    +0.076 A 
ATOM      5  C   UNL     1      47.788 -22.237 -39.846  0.00  0.00    -0.035 A 
ATOM      6  C   UNL     1      47.759 -23.285 -40.766  0.00  0.00    -0.057 A 
ATOM      7  C   UNL     1      46.893 -23.213 -41.844  0.00  0.00    -0.026 A 
ATOM      8  C   UNL     1      46.071 -22.097 -41.980  0.00  0.00    +0.134 A 
ATOM      9  F   UNL     1      45.267 -22.053 -43.057  0.00  0.00    -0.205 F 
ATOM     10  C   UNL     1      46.081 -21.026 -41.056  0.00  0.00    +0.056 A 
ATOM     11  C   UNL     1      45.274 -19.855 -41.154  0.00  0.00    +0.043 A 
ATOM     12  C   UNL     1      45.342 -18.876 -40.138  0.00  0.00    +0.008 A 
ENDROOT
BRANCH  11  13
ATOM     13  N   UNL     1      44.260 -19.783 -42.143  0.00  0.00    -0.357 N 
ATOM     14  H   UNL     1      44.000 -18.911 -42.519  0.00  0.00    +0.000 HD
ATOM     15  H   UNL     1      43.817 -20.605 -42.454  0.00  0.00    +0.000 HD
ENDBRANCH  11  13
BRANCH  12  16
ATOM     16  C   UNL     1      44.431 -17.672 -40.127  0.00  0.00    +0.022 C 
BRANCH  16  17
ATOM     17  N   UNL     1      44.951 -16.598 -40.965  0.00  0.00    -0.326 N 
ATOM     18  H   UNL     1      44.255 -16.349 -41.668  0.00  0.00    +0.000 HD
ATOM     19  H   UNL     1      45.804 -16.911 -41.428  0.00  0.00    +0.000 HD
ATOM     20  H   UNL     1      45.157 -15.784 -40.386  0.00  0.00    +0.000 HD
ENDBRANCH  16  17
ENDBRANCH  12  16
TORSDOF 3
ENDMDL
MODEL 20
REMARK VINA RESULT:    -4.897     30.937     33.060
REMARK INTER + INTRA:          -5.389
REMARK INTER:                  -5.316
REMARK INTRA:                  -0.073
REMARK UNBOUND:                 0.080
REMARK  Name = cpd234.pdb
REMARK  4 active torsions:
REMARK  status: ('A' for Active; 'I' for Inactive)
REMARK    1  A    between atoms: C_1  and  C_2
REMARK    2  A    between atoms: C_11  and  N_12
REMARK    3  A    between atoms: C_13  and  C_14
REMARK    4  A    between atoms: C_14  and  N_15
REMARK                            x       y       z     vdW  Elec       q    Type
REMARK                         _______ _______ _______ _____ _____    ______ ____
ROOT
ATOM      1  C   UNL     1      62.251 -24.947  -9.469  0.00  0.00    -0.022 C 
ATOM      2  C   UNL     1      62.809 -24.238  -8.267  0.00  0.00    +0.045 A 
ATOM      3  N   UNL     1      63.259 -22.982  -8.510  0.00  0.00    -0.251 NA
ATOM      4  C   UNL     1      63.713 -22.242  -7.493  0.00  0.00    +0.076 A 
ATOM      5  C   UNL     1      64.124 -20.944  -7.773  0.00  0.00    -0.035 A 
ATOM      6  C   UNL     1      64.605 -20.087  -6.784  0.00  0.00    -0.057 A 
ATOM      7  C   UNL     1      64.684 -20.540  -5.477  0.00  0.00    -0.026 A 
ATOM      8  C   UNL     1      64.277 -21.839  -5.185  0.00  0.00    +0.134 A 
ATOM      9  F   UNL     1      64.397 -22.250  -3.911  0.00  0.00    -0.205 F 
ATOM     10  C   UNL     1      63.781 -22.723  -6.173  0.00  0.00    +0.056 A 
ATOM     11  C   UNL     1      63.366 -24.066  -5.934  0.00  0.00    +0.043 A 
ATOM     12  C   UNL     1      62.844 -24.833  -6.999  0.00  0.00    +0.008 A 
ENDROOT
BRANCH  11  13
ATOM     13  N   UNL     1      63.276 -24.545  -4.602  0.00  0.00    -0.357 N 
ATOM     14  H   UNL     1      62.429 -24.466  -4.107  0.00  0.00    +0.000 HD
ATOM     15  H   UNL     1      64.060 -24.957  -4.173  0.00  0.00    +0.000 HD
ENDBRANCH  11  13
BRANCH  12  16
ATOM     16  C   UNL     1      62.283 -26.218  -6.785  0.00  0.00    +0.022 C 
BRANCH  16  17
ATOM     17  N   UNL     1      63.339 -27.222  -6.731  0.00  0.00    -0.326 N 
ATOM     18  H   UNL     1      64.181 -26.854  -7.174  0.00  0.00    +0.000 HD
ATOM     19  H   UNL     1      63.035 -28.062  -7.223  0.00  0.00    +0.000 HD
ATOM     20  H   UNL     1      63.539 -27.452  -5.758  0.00  0.00    +0.000 HD
ENDBRANCH  16  17
ENDBRANCH  12  16
TORSDOF 3
ENDMDL
