@<TRIPOS>MOLECULE
*****
 28 31 0 0 0
SMALL
GASTEIGER

@<TRIPOS>ATOM
      1 C          -0.0000   -5.4559    0.0000 C.3     1  UNL1        0.0301
      2 C           0.7875   -5.0013    0.0000 C.2     1  UNL1       -0.0319
      3 C           0.7875   -1.3640    0.0000 C.2     1  UNL1       -0.0204
      4 C          -0.0000   -0.9093    0.0000 C.3     1  UNL1        0.0473
      5 C           0.1560   -1.5927    0.0000 C.2     1  UNL1       -0.0303
      6 C           0.7875   -1.8968    0.0000 C.2     1  UNL1       -0.0453
      7 C           0.7875   -2.8061    0.0000 C.3     1  UNL1        0.0261
      8 C           1.4190   -1.5927    0.0000 C.3     1  UNL1        0.0523
      9 C           1.5750   -0.9093    0.0000 C.3     1  UNL1        0.1231
     10 N           2.4533   -0.6740    0.0000 N.2     1  UNL1       -0.2644
     11 C           3.0963   -1.3170    0.0000 C.2     1  UNL1        0.0937
     12 C           3.9746   -1.0816    0.0000 C.ar    1  UNL1        0.0188
     13 C           4.6176   -1.7246    0.0000 C.ar    1  UNL1        0.0028
     14 C           5.4960   -1.4892    0.0000 C.ar    1  UNL1        0.0146
     15 C           5.7313   -0.6109    0.0000 C.ar    1  UNL1        0.0479
     16 N           6.6097   -0.3756    0.0000 N.pl3   1  UNL1       -0.3041
     17 C           6.8450    0.5028    0.0000 C.3     1  UNL1        0.1122
     18 C           7.2526   -1.0185    0.0000 C.3     1  UNL1        0.1122
     19 C           5.0883    0.0321    0.0000 C.ar    1  UNL1        0.0146
     20 C           4.2100   -0.2033    0.0000 C.ar    1  UNL1        0.0028
     21 C           1.5750    0.0000    0.0000 C.ar    1  UNL1        0.0154
     22 C           2.3625    0.4547    0.0000 C.ar    1  UNL1        0.0040
     23 C           2.3625    1.3640    0.0000 C.ar    1  UNL1        0.0623
     24 C           1.5750    1.8186    0.0000 C.ar    1  UNL1        0.2790
     25 O           1.5750    2.7280    0.0000 O.2     1  UNL1       -0.2652
     26 N           0.7875    1.3640    0.0000 N.ar    1  UNL1       -0.2125
     27 C           0.7875    0.4547    0.0000 C.ar    1  UNL1        0.0609
     28 C          -0.0000   -0.0000    0.0000 C.3     1  UNL1        0.0541
@<TRIPOS>BOND
     1     1     2    1
     2     2     3    2
     3     3     4    1
     4     4     5    1
     5     5     6    2
     6     6     7    1
     7     6     8    1
     8     8     9    1
     9     3     9    1
    10     9    10    1
    11    10    11    2
    12    11    12    1
    13    12    13   ar
    14    13    14   ar
    15    14    15   ar
    16    15    16    1
    17    16    17    1
    18    16    18    1
    19    15    19   ar
    20    19    20   ar
    21    12    20   ar
    22     9    21    1
    23    21    22   ar
    24    22    23   ar
    25    23    24   ar
    26    24    25    2
    27    24    26   ar
    28    26    27   ar
    29    21    27   ar
    30    27    28    1
    31     4    28    1
