MODEL 1
REMARK VINA RESULT:    -8.667      0.000      0.000
REMARK INTER + INTRA:         -10.883
REMARK INTER:                 -10.187
REMARK INTRA:                  -0.696
REMARK UNBOUND:                -0.696
REMARK  Name = cpd116.pdb
REMARK  7 active torsions:
REMARK  status: ('A' for Active; 'I' for Inactive)
REMARK    1  A    between atoms: C_1  and  C_2
REMARK    2  A    between atoms: C_6  and  C_7
REMARK    3  A    between atoms: C_9  and  N_10
REMARK    4  A    between atoms: C_11  and  C_12
REMARK    5  A    between atoms: C_15  and  N_16
REMARK    6  A    between atoms: N_16  and  C_17
REMARK    7  A    between atoms: N_16  and  C_18
REMARK                            x       y       z     vdW  Elec       q    Type
REMARK                         _______ _______ _______ _____ _____    ______ ____
ROOT
ATOM      1  C   UNL A   1      33.063 -38.634 -32.427  0.00  0.00    -0.046 C 
ATOM      2  C   UNL A   1      33.948 -37.722 -31.636  0.00  0.00    -0.085 C 
ATOM      3  C   UNL A   1      33.602 -36.843 -30.670  0.00  0.00    -0.035 C 
ATOM      4  C   UNL A   1      32.170 -36.593 -30.224  0.00  0.00    +0.006 C 
ATOM      5  C   UNL A   1      32.021 -36.548 -28.721  0.00  0.00    -0.077 C 
ATOM      6  C   UNL A   1      33.030 -36.290 -27.873  0.00  0.00    -0.073 C 
ATOM      7  C   UNL A   1      32.845 -36.243 -26.385  0.00  0.00    -0.044 C 
ATOM      8  C   UNL A   1      34.428 -36.026 -28.387  0.00  0.00    +0.001 C 
ATOM      9  C   UNL A   1      34.549 -35.877 -29.945  0.00  0.00    +0.113 C 
ATOM     10  C   UNL A   1      34.140 -34.440 -30.316  0.00  0.00    -0.000 C 
ATOM     11  C   UNL A   1      34.974 -33.399 -30.483  0.00  0.00    -0.068 C 
ATOM     12  C   UNL A   1      34.497 -32.019 -30.795  0.00  0.00    +0.045 C 
ATOM     13  C   UNL A   1      33.022 -31.845 -30.463  0.00  0.00    +0.240 C 
ATOM     14  O   UNL A   1      32.590 -30.742 -30.135  0.00  0.00    -0.273 OA
ATOM     15  N   UNL A   1      32.194 -32.927 -30.643  0.00  0.00    -0.185 NA
ATOM     16  C   UNL A   1      32.694 -34.121 -30.563  0.00  0.00    +0.040 C 
ATOM     17  C   UNL A   1      31.725 -35.267 -30.835  0.00  0.00    -0.002 C 
ENDROOT
BRANCH   9  18
ATOM     18  N   UNL A   1      35.968 -36.042 -30.352  0.00  0.00    -0.275 NA
ATOM     19  C   UNL A   1      36.771 -36.706 -29.598  0.00  0.00    +0.031 C 
BRANCH  19  20
ATOM     20  C   UNL A   1      38.196 -36.878 -29.944  0.00  0.00    -0.007 A 
ATOM     21  C   UNL A   1      38.715 -36.195 -31.038  0.00  0.00    -0.051 A 
ATOM     22  C   UNL A   1      40.067 -36.352 -31.379  0.00  0.00    -0.040 A 
ATOM     23  C   UNL A   1      40.940 -37.179 -30.646  0.00  0.00    +0.029 A 
ATOM     24  C   UNL A   1      40.369 -37.861 -29.556  0.00  0.00    -0.040 A 
ATOM     25  C   UNL A   1      39.022 -37.713 -29.200  0.00  0.00    -0.051 A 
BRANCH  23  26
ATOM     26  N   UNL A   1      42.280 -37.343 -31.011  0.00  0.00    -0.336 N 
ATOM     27  C   UNL A   1      42.975 -38.581 -30.662  0.00  0.00    +0.000 C 
ATOM     28  C   UNL A   1      43.128 -36.157 -31.135  0.00  0.00    +0.000 C 
ENDBRANCH  23  26
ENDBRANCH  19  20
ENDBRANCH   9  18
TORSDOF 3
ENDMDL
MODEL 2
REMARK VINA RESULT:    -7.662      2.145      3.712
REMARK INTER + INTRA:          -9.702
REMARK INTER:                  -9.015
REMARK INTRA:                  -0.688
REMARK UNBOUND:                -0.696
REMARK  Name = cpd116.pdb
REMARK  7 active torsions:
REMARK  status: ('A' for Active; 'I' for Inactive)
REMARK    1  A    between atoms: C_1  and  C_2
REMARK    2  A    between atoms: C_6  and  C_7
REMARK    3  A    between atoms: C_9  and  N_10
REMARK    4  A    between atoms: C_11  and  C_12
REMARK    5  A    between atoms: C_15  and  N_16
REMARK    6  A    between atoms: N_16  and  C_17
REMARK    7  A    between atoms: N_16  and  C_18
REMARK                            x       y       z     vdW  Elec       q    Type
REMARK                         _______ _______ _______ _____ _____    ______ ____
ROOT
ATOM      1  C   UNL A   1      32.954 -36.320 -26.581  0.00  0.00    -0.046 C 
ATOM      2  C   UNL A   1      33.485 -35.886 -27.912  0.00  0.00    -0.085 C 
ATOM      3  C   UNL A   1      32.897 -35.090 -28.833  0.00  0.00    -0.035 C 
ATOM      4  C   UNL A   1      31.505 -34.500 -28.680  0.00  0.00    +0.006 C 
ATOM      5  C   UNL A   1      31.442 -33.036 -29.052  0.00  0.00    -0.077 C 
ATOM      6  C   UNL A   1      32.334 -32.425 -29.849  0.00  0.00    -0.073 C 
ATOM      7  C   UNL A   1      32.236 -30.972 -30.207  0.00  0.00    -0.044 C 
ATOM      8  C   UNL A   1      33.500 -33.186 -30.438  0.00  0.00    +0.001 C 
ATOM      9  C   UNL A   1      33.461 -34.741 -30.218  0.00  0.00    +0.113 C 
ATOM     10  C   UNL A   1      32.527 -35.346 -31.280  0.00  0.00    -0.000 C 
ATOM     11  C   UNL A   1      32.903 -35.857 -32.466  0.00  0.00    -0.068 C 
ATOM     12  C   UNL A   1      31.931 -36.383 -33.469  0.00  0.00    +0.045 C 
ATOM     13  C   UNL A   1      30.519 -35.879 -33.201  0.00  0.00    +0.240 C 
ATOM     14  O   UNL A   1      29.730 -35.735 -34.133  0.00  0.00    -0.273 OA
ATOM     15  N   UNL A   1      30.142 -35.696 -31.892  0.00  0.00    -0.185 NA
ATOM     16  C   UNL A   1      31.053 -35.437 -31.006  0.00  0.00    +0.040 C 
ATOM     17  C   UNL A   1      30.563 -35.308 -29.568  0.00  0.00    -0.002 C 
ENDROOT
BRANCH   9  18
ATOM     18  N   UNL A   1      34.812 -35.311 -30.454  0.00  0.00    -0.275 NA
ATOM     19  C   UNL A   1      35.797 -34.523 -30.707  0.00  0.00    +0.031 C 
BRANCH  19  20
ATOM     20  C   UNL A   1      37.154 -35.039 -30.975  0.00  0.00    -0.007 A 
ATOM     21  C   UNL A   1      37.519 -36.281 -30.467  0.00  0.00    -0.051 A 
ATOM     22  C   UNL A   1      38.807 -36.782 -30.711  0.00  0.00    -0.040 A 
ATOM     23  C   UNL A   1      39.762 -36.075 -31.467  0.00  0.00    +0.029 A 
ATOM     24  C   UNL A   1      39.354 -34.817 -31.949  0.00  0.00    -0.040 A 
ATOM     25  C   UNL A   1      38.071 -34.303 -31.717  0.00  0.00    -0.051 A 
BRANCH  23  26
ATOM     26  N   UNL A   1      41.049 -36.577 -31.683  0.00  0.00    -0.336 N 
ATOM     27  C   UNL A   1      42.137 -36.176 -30.793  0.00  0.00    +0.000 C 
ATOM     28  C   UNL A   1      41.447 -36.933 -33.045  0.00  0.00    +0.000 C 
ENDBRANCH  23  26
ENDBRANCH  19  20
ENDBRANCH   9  18
TORSDOF 3
ENDMDL
MODEL 3
REMARK VINA RESULT:    -7.317      1.275      1.753
REMARK INTER + INTRA:          -9.297
REMARK INTER:                  -8.628
REMARK INTRA:                  -0.669
REMARK UNBOUND:                -0.696
REMARK  Name = cpd116.pdb
REMARK  7 active torsions:
REMARK  status: ('A' for Active; 'I' for Inactive)
REMARK    1  A    between atoms: C_1  and  C_2
REMARK    2  A    between atoms: C_6  and  C_7
REMARK    3  A    between atoms: C_9  and  N_10
REMARK    4  A    between atoms: C_11  and  C_12
REMARK    5  A    between atoms: C_15  and  N_16
REMARK    6  A    between atoms: N_16  and  C_17
REMARK    7  A    between atoms: N_16  and  C_18
REMARK                            x       y       z     vdW  Elec       q    Type
REMARK                         _______ _______ _______ _____ _____    ______ ____
ROOT
ATOM      1  C   UNL A   1      32.056 -37.369 -33.383  0.00  0.00    -0.046 C 
ATOM      2  C   UNL A   1      32.919 -36.641 -32.400  0.00  0.00    -0.085 C 
ATOM      3  C   UNL A   1      32.550 -36.011 -31.263  0.00  0.00    -0.035 C 
ATOM      4  C   UNL A   1      31.113 -35.898 -30.783  0.00  0.00    +0.006 C 
ATOM      5  C   UNL A   1      30.958 -36.198 -29.309  0.00  0.00    -0.077 C 
ATOM      6  C   UNL A   1      31.960 -36.116 -28.418  0.00  0.00    -0.073 C 
ATOM      7  C   UNL A   1      31.770 -36.411 -26.959  0.00  0.00    -0.044 C 
ATOM      8  C   UNL A   1      33.353 -35.714 -28.848  0.00  0.00    +0.001 C 
ATOM      9  C   UNL A   1      33.474 -35.213 -30.331  0.00  0.00    +0.113 C 
ATOM     10  C   UNL A   1      33.034 -33.739 -30.371  0.00  0.00    -0.000 C 
ATOM     11  C   UNL A   1      33.845 -32.669 -30.292  0.00  0.00    -0.068 C 
ATOM     12  C   UNL A   1      33.338 -31.265 -30.287  0.00  0.00    +0.045 C 
ATOM     13  C   UNL A   1      31.858 -31.203 -29.936  0.00  0.00    +0.240 C 
ATOM     14  O   UNL A   1      31.401 -30.211 -29.370  0.00  0.00    -0.273 OA
ATOM     15  N   UNL A   1      31.055 -32.233 -30.362  0.00  0.00    -0.185 NA
ATOM     16  C   UNL A   1      31.582 -33.404 -30.550  0.00  0.00    +0.040 C 
ATOM     17  C   UNL A   1      30.639 -34.479 -31.082  0.00  0.00    -0.002 C 
ENDROOT
BRANCH   9  18
ATOM     18  N   UNL A   1      34.898 -35.251 -30.754  0.00  0.00    -0.275 NA
ATOM     19  C   UNL A   1      35.695 -36.108 -30.221  0.00  0.00    +0.031 C 
BRANCH  19  20
ATOM     20  C   UNL A   1      37.123 -36.171 -30.587  0.00  0.00    -0.007 A 
ATOM     21  C   UNL A   1      37.977 -36.988 -29.853  0.00  0.00    -0.051 A 
ATOM     22  C   UNL A   1      39.337 -37.054 -30.188  0.00  0.00    -0.040 A 
ATOM     23  C   UNL A   1      39.887 -36.324 -31.260  0.00  0.00    +0.029 A 
ATOM     24  C   UNL A   1      38.991 -35.500 -31.967  0.00  0.00    -0.040 A 
ATOM     25  C   UNL A   1      37.629 -35.425 -31.646  0.00  0.00    -0.051 A 
BRANCH  23  26
ATOM     26  N   UNL A   1      41.250 -36.383 -31.569  0.00  0.00    -0.336 N 
ATOM     27  C   UNL A   1      42.234 -36.381 -30.488  0.00  0.00    +0.000 C 
ATOM     28  C   UNL A   1      41.709 -35.825 -32.842  0.00  0.00    +0.000 C 
ENDBRANCH  23  26
ENDBRANCH  19  20
ENDBRANCH   9  18
TORSDOF 3
ENDMDL
MODEL 4
REMARK VINA RESULT:    -7.269      2.790      7.879
REMARK INTER + INTRA:          -9.240
REMARK INTER:                  -8.564
REMARK INTRA:                  -0.676
REMARK UNBOUND:                -0.696
REMARK  Name = cpd116.pdb
REMARK  7 active torsions:
REMARK  status: ('A' for Active; 'I' for Inactive)
REMARK    1  A    between atoms: C_1  and  C_2
REMARK    2  A    between atoms: C_6  and  C_7
REMARK    3  A    between atoms: C_9  and  N_10
REMARK    4  A    between atoms: C_11  and  C_12
REMARK    5  A    between atoms: C_15  and  N_16
REMARK    6  A    between atoms: N_16  and  C_17
REMARK    7  A    between atoms: N_16  and  C_18
REMARK                            x       y       z     vdW  Elec       q    Type
REMARK                         _______ _______ _______ _____ _____    ______ ____
ROOT
ATOM      1  C   UNL A   1      34.378 -37.591 -26.344  0.00  0.00    -0.046 C 
ATOM      2  C   UNL A   1      34.296 -36.875 -27.657  0.00  0.00    -0.085 C 
ATOM      3  C   UNL A   1      34.788 -37.258 -28.856  0.00  0.00    -0.035 C 
ATOM      4  C   UNL A   1      35.584 -38.534 -29.078  0.00  0.00    +0.006 C 
ATOM      5  C   UNL A   1      35.140 -39.300 -30.303  0.00  0.00    -0.077 C 
ATOM      6  C   UNL A   1      34.476 -38.749 -31.333  0.00  0.00    -0.073 C 
ATOM      7  C   UNL A   1      34.058 -39.536 -32.539  0.00  0.00    -0.044 C 
ATOM      8  C   UNL A   1      34.112 -37.281 -31.327  0.00  0.00    +0.001 C 
ATOM      9  C   UNL A   1      34.739 -36.443 -30.156  0.00  0.00    +0.113 C 
ATOM     10  C   UNL A   1      36.182 -36.086 -30.550  0.00  0.00    -0.000 C 
ATOM     11  C   UNL A   1      36.582 -34.945 -31.138  0.00  0.00    -0.068 C 
ATOM     12  C   UNL A   1      37.998 -34.689 -31.537  0.00  0.00    +0.045 C 
ATOM     13  C   UNL A   1      38.801 -35.980 -31.616  0.00  0.00    +0.240 C 
ATOM     14  O   UNL A   1      39.746 -36.070 -32.397  0.00  0.00    -0.273 OA
ATOM     15  N   UNL A   1      38.497 -36.978 -30.722  0.00  0.00    -0.185 NA
ATOM     16  C   UNL A   1      37.295 -37.044 -30.239  0.00  0.00    +0.040 C 
ATOM     17  C   UNL A   1      37.053 -38.142 -29.208  0.00  0.00    -0.002 C 
ENDROOT
BRANCH   9  18
ATOM     18  N   UNL A   1      34.000 -35.163 -30.009  0.00  0.00    -0.275 NA
ATOM     19  C   UNL A   1      33.032 -34.894 -30.812  0.00  0.00    +0.031 C 
BRANCH  19  20
ATOM     20  C   UNL A   1      32.282 -33.625 -30.726  0.00  0.00    -0.007 A 
ATOM     21  C   UNL A   1      32.722 -32.635 -29.853  0.00  0.00    -0.051 A 
ATOM     22  C   UNL A   1      32.017 -31.427 -29.759  0.00  0.00    -0.040 A 
ATOM     23  C   UNL A   1      30.867 -31.160 -30.527  0.00  0.00    +0.029 A 
ATOM     24  C   UNL A   1      30.450 -32.194 -31.386  0.00  0.00    -0.040 A 
ATOM     25  C   UNL A   1      31.144 -33.407 -31.494  0.00  0.00    -0.051 A 
BRANCH  23  26
ATOM     26  N   UNL A   1      30.162 -29.959 -30.407  0.00  0.00    -0.336 N 
ATOM     27  C   UNL A   1      29.589 -29.587 -29.114  0.00  0.00    +0.000 C 
ATOM     28  C   UNL A   1      29.469 -29.427 -31.581  0.00  0.00    +0.000 C 
ENDBRANCH  23  26
ENDBRANCH  19  20
ENDBRANCH   9  18
TORSDOF 3
ENDMDL
MODEL 5
REMARK VINA RESULT:    -7.007     14.737     17.750
REMARK INTER + INTRA:          -8.932
REMARK INTER:                  -8.277
REMARK INTRA:                  -0.655
REMARK UNBOUND:                -0.696
REMARK  Name = cpd116.pdb
REMARK  7 active torsions:
REMARK  status: ('A' for Active; 'I' for Inactive)
REMARK    1  A    between atoms: C_1  and  C_2
REMARK    2  A    between atoms: C_6  and  C_7
REMARK    3  A    between atoms: C_9  and  N_10
REMARK    4  A    between atoms: C_11  and  C_12
REMARK    5  A    between atoms: C_15  and  N_16
REMARK    6  A    between atoms: N_16  and  C_17
REMARK    7  A    between atoms: N_16  and  C_18
REMARK                            x       y       z     vdW  Elec       q    Type
REMARK                         _______ _______ _______ _____ _____    ______ ____
ROOT
ATOM      1  C   UNL A   1      41.243 -17.348 -33.359  0.00  0.00    -0.046 C 
ATOM      2  C   UNL A   1      40.806 -18.338 -34.394  0.00  0.00    -0.085 C 
ATOM      3  C   UNL A   1      39.619 -18.977 -34.498  0.00  0.00    -0.035 C 
ATOM      4  C   UNL A   1      38.480 -18.818 -33.505  0.00  0.00    +0.006 C 
ATOM      5  C   UNL A   1      37.137 -18.633 -34.175  0.00  0.00    -0.077 C 
ATOM      6  C   UNL A   1      36.867 -19.016 -35.434  0.00  0.00    -0.073 C 
ATOM      7  C   UNL A   1      35.519 -18.826 -36.064  0.00  0.00    -0.044 C 
ATOM      8  C   UNL A   1      37.926 -19.670 -36.291  0.00  0.00    +0.001 C 
ATOM      9  C   UNL A   1      39.255 -20.042 -35.542  0.00  0.00    +0.113 C 
ATOM     10  C   UNL A   1      39.026 -21.373 -34.805  0.00  0.00    -0.000 C 
ATOM     11  C   UNL A   1      39.335 -22.597 -35.269  0.00  0.00    -0.068 C 
ATOM     12  C   UNL A   1      39.036 -23.851 -34.515  0.00  0.00    +0.045 C 
ATOM     13  C   UNL A   1      37.987 -23.621 -33.436  0.00  0.00    +0.240 C 
ATOM     14  O   UNL A   1      37.241 -24.538 -33.098  0.00  0.00    -0.273 OA
ATOM     15  N   UNL A   1      37.983 -22.404 -32.797  0.00  0.00    -0.185 NA
ATOM     16  C   UNL A   1      38.443 -21.365 -33.422  0.00  0.00    +0.040 C 
ATOM     17  C   UNL A   1      38.460 -20.064 -32.625  0.00  0.00    -0.002 C 
ENDROOT
BRANCH   9  18
ATOM     18  N   UNL A   1      40.336 -20.276 -36.533  0.00  0.00    -0.275 NA
ATOM     19  C   UNL A   1      40.088 -20.137 -37.787  0.00  0.00    +0.031 C 
BRANCH  19  20
ATOM     20  C   UNL A   1      41.119 -20.382 -38.814  0.00  0.00    -0.007 A 
ATOM     21  C   UNL A   1      42.223 -19.538 -38.882  0.00  0.00    -0.051 A 
ATOM     22  C   UNL A   1      43.208 -19.758 -39.856  0.00  0.00    -0.040 A 
ATOM     23  C   UNL A   1      43.135 -20.819 -40.780  0.00  0.00    +0.029 A 
ATOM     24  C   UNL A   1      41.995 -21.639 -40.684  0.00  0.00    -0.040 A 
ATOM     25  C   UNL A   1      41.002 -21.434 -39.716  0.00  0.00    -0.051 A 
BRANCH  23  26
ATOM     26  N   UNL A   1      44.114 -21.013 -41.759  0.00  0.00    -0.336 N 
ATOM     27  C   UNL A   1      45.328 -21.757 -41.426  0.00  0.00    +0.000 C 
ATOM     28  C   UNL A   1      44.256 -20.017 -42.822  0.00  0.00    +0.000 C 
ENDBRANCH  23  26
ENDBRANCH  19  20
ENDBRANCH   9  18
TORSDOF 3
ENDMDL
MODEL 6
REMARK VINA RESULT:    -6.982      3.370      6.660
REMARK INTER + INTRA:          -8.903
REMARK INTER:                  -8.229
REMARK INTRA:                  -0.674
REMARK UNBOUND:                -0.696
REMARK  Name = cpd116.pdb
REMARK  7 active torsions:
REMARK  status: ('A' for Active; 'I' for Inactive)
REMARK    1  A    between atoms: C_1  and  C_2
REMARK    2  A    between atoms: C_6  and  C_7
REMARK    3  A    between atoms: C_9  and  N_10
REMARK    4  A    between atoms: C_11  and  C_12
REMARK    5  A    between atoms: C_15  and  N_16
REMARK    6  A    between atoms: N_16  and  C_17
REMARK    7  A    between atoms: N_16  and  C_18
REMARK                            x       y       z     vdW  Elec       q    Type
REMARK                         _______ _______ _______ _____ _____    ______ ____
ROOT
ATOM      1  C   UNL A   1      32.717 -38.988 -27.535  0.00  0.00    -0.046 C 
ATOM      2  C   UNL A   1      33.231 -38.740 -28.919  0.00  0.00    -0.085 C 
ATOM      3  C   UNL A   1      34.163 -37.848 -29.322  0.00  0.00    -0.035 C 
ATOM      4  C   UNL A   1      34.857 -36.867 -28.391  0.00  0.00    +0.006 C 
ATOM      5  C   UNL A   1      36.350 -36.797 -28.615  0.00  0.00    -0.077 C 
ATOM      6  C   UNL A   1      36.956 -37.164 -29.757  0.00  0.00    -0.073 C 
ATOM      7  C   UNL A   1      38.440 -37.073 -29.951  0.00  0.00    -0.044 C 
ATOM      8  C   UNL A   1      36.156 -37.696 -30.925  0.00  0.00    +0.001 C 
ATOM      9  C   UNL A   1      34.597 -37.586 -30.771  0.00  0.00    +0.113 C 
ATOM     10  C   UNL A   1      34.185 -36.149 -31.139  0.00  0.00    -0.000 C 
ATOM     11  C   UNL A   1      33.763 -35.733 -32.346  0.00  0.00    -0.068 C 
ATOM     12  C   UNL A   1      33.427 -34.309 -32.642  0.00  0.00    +0.045 C 
ATOM     13  C   UNL A   1      34.026 -33.364 -31.610  0.00  0.00    +0.240 C 
ATOM     14  O   UNL A   1      34.330 -32.216 -31.929  0.00  0.00    -0.273 OA
ATOM     15  N   UNL A   1      34.111 -33.806 -30.311  0.00  0.00    -0.185 NA
ATOM     16  C   UNL A   1      34.199 -35.080 -30.086  0.00  0.00    +0.040 C 
ATOM     17  C   UNL A   1      34.228 -35.495 -28.618  0.00  0.00    -0.002 C 
ENDROOT
BRANCH   9  18
ATOM     18  N   UNL A   1      33.935 -38.490 -31.746  0.00  0.00    -0.275 NA
ATOM     19  C   UNL A   1      34.545 -39.552 -32.141  0.00  0.00    +0.031 C 
BRANCH  19  20
ATOM     20  C   UNL A   1      33.942 -40.470 -33.127  0.00  0.00    -0.007 A 
ATOM     21  C   UNL A   1      32.875 -40.028 -33.901  0.00  0.00    -0.051 A 
ATOM     22  C   UNL A   1      32.291 -40.892 -34.840  0.00  0.00    -0.040 A 
ATOM     23  C   UNL A   1      32.751 -42.208 -35.045  0.00  0.00    +0.029 A 
ATOM     24  C   UNL A   1      33.823 -42.617 -34.230  0.00  0.00    -0.040 A 
ATOM     25  C   UNL A   1      34.419 -41.766 -33.290  0.00  0.00    -0.051 A 
BRANCH  23  26
ATOM     26  N   UNL A   1      32.145 -43.065 -35.969  0.00  0.00    -0.336 N 
ATOM     27  C   UNL A   1      30.757 -42.832 -36.365  0.00  0.00    +0.000 C 
ATOM     28  C   UNL A   1      32.598 -44.454 -36.044  0.00  0.00    +0.000 C 
ENDBRANCH  23  26
ENDBRANCH  19  20
ENDBRANCH   9  18
TORSDOF 3
ENDMDL
MODEL 7
REMARK VINA RESULT:    -6.847      3.625      7.701
REMARK INTER + INTRA:          -8.744
REMARK INTER:                  -8.038
REMARK INTRA:                  -0.706
REMARK UNBOUND:                -0.696
REMARK  Name = cpd116.pdb
REMARK  7 active torsions:
REMARK  status: ('A' for Active; 'I' for Inactive)
REMARK    1  A    between atoms: C_1  and  C_2
REMARK    2  A    between atoms: C_6  and  C_7
REMARK    3  A    between atoms: C_9  and  N_10
REMARK    4  A    between atoms: C_11  and  C_12
REMARK    5  A    between atoms: C_15  and  N_16
REMARK    6  A    between atoms: N_16  and  C_17
REMARK    7  A    between atoms: N_16  and  C_18
REMARK                            x       y       z     vdW  Elec       q    Type
REMARK                         _______ _______ _______ _____ _____    ______ ____
ROOT
ATOM      1  C   UNL A   1      34.305 -39.990 -32.515  0.00  0.00    -0.046 C 
ATOM      2  C   UNL A   1      34.334 -39.044 -31.355  0.00  0.00    -0.085 C 
ATOM      3  C   UNL A   1      35.022 -39.155 -30.197  0.00  0.00    -0.035 C 
ATOM      4  C   UNL A   1      35.901 -40.344 -29.843  0.00  0.00    +0.006 C 
ATOM      5  C   UNL A   1      37.237 -39.937 -29.263  0.00  0.00    -0.077 C 
ATOM      6  C   UNL A   1      37.474 -38.746 -28.689  0.00  0.00    -0.073 C 
ATOM      7  C   UNL A   1      38.810 -38.378 -28.114  0.00  0.00    -0.044 C 
ATOM      8  C   UNL A   1      36.386 -37.700 -28.589  0.00  0.00    +0.001 C 
ATOM      9  C   UNL A   1      34.953 -38.186 -29.008  0.00  0.00    +0.113 C 
ATOM     10  C   UNL A   1      34.341 -38.940 -27.814  0.00  0.00    -0.000 C 
ATOM     11  C   UNL A   1      33.529 -38.415 -26.880  0.00  0.00    -0.068 C 
ATOM     12  C   UNL A   1      33.013 -39.198 -25.719  0.00  0.00    +0.045 C 
ATOM     13  C   UNL A   1      33.836 -40.456 -25.479  0.00  0.00    +0.240 C 
ATOM     14  O   UNL A   1      33.939 -40.917 -24.344  0.00  0.00    -0.273 OA
ATOM     15  N   UNL A   1      34.361 -41.096 -26.576  0.00  0.00    -0.185 NA
ATOM     16  C   UNL A   1      34.610 -40.407 -27.646  0.00  0.00    +0.040 C 
ATOM     17  C   UNL A   1      35.133 -41.200 -28.840  0.00  0.00    -0.002 C 
ENDROOT
BRANCH   9  18
ATOM     18  N   UNL A   1      34.085 -37.010 -29.269  0.00  0.00    -0.275 NA
ATOM     19  C   UNL A   1      34.617 -35.846 -29.402  0.00  0.00    +0.031 C 
BRANCH  19  20
ATOM     20  C   UNL A   1      33.798 -34.641 -29.636  0.00  0.00    -0.007 A 
ATOM     21  C   UNL A   1      34.374 -33.386 -29.471  0.00  0.00    -0.051 A 
ATOM     22  C   UNL A   1      33.605 -32.233 -29.688  0.00  0.00    -0.040 A 
ATOM     23  C   UNL A   1      32.254 -32.288 -30.080  0.00  0.00    +0.029 A 
ATOM     24  C   UNL A   1      31.707 -33.578 -30.221  0.00  0.00    -0.040 A 
ATOM     25  C   UNL A   1      32.462 -34.740 -30.011  0.00  0.00    -0.051 A 
BRANCH  23  26
ATOM     26  N   UNL A   1      31.493 -31.130 -30.271  0.00  0.00    -0.336 N 
ATOM     27  C   UNL A   1      31.172 -30.282 -29.124  0.00  0.00    +0.000 C 
ATOM     28  C   UNL A   1      30.532 -31.092 -31.373  0.00  0.00    +0.000 C 
ENDBRANCH  23  26
ENDBRANCH  19  20
ENDBRANCH   9  18
TORSDOF 3
ENDMDL
MODEL 8
REMARK VINA RESULT:    -6.746     17.843     21.008
REMARK INTER + INTRA:          -8.625
REMARK INTER:                  -7.914
REMARK INTRA:                  -0.711
REMARK UNBOUND:                -0.696
REMARK  Name = cpd116.pdb
REMARK  7 active torsions:
REMARK  status: ('A' for Active; 'I' for Inactive)
REMARK    1  A    between atoms: C_1  and  C_2
REMARK    2  A    between atoms: C_6  and  C_7
REMARK    3  A    between atoms: C_9  and  N_10
REMARK    4  A    between atoms: C_11  and  C_12
REMARK    5  A    between atoms: C_15  and  N_16
REMARK    6  A    between atoms: N_16  and  C_17
REMARK    7  A    between atoms: N_16  and  C_18
REMARK                            x       y       z     vdW  Elec       q    Type
REMARK                         _______ _______ _______ _____ _____    ______ ____
ROOT
ATOM      1  C   UNL A   1      47.272 -18.973 -37.231  0.00  0.00    -0.046 C 
ATOM      2  C   UNL A   1      45.875 -19.122 -37.749  0.00  0.00    -0.085 C 
ATOM      3  C   UNL A   1      45.409 -18.875 -38.993  0.00  0.00    -0.035 C 
ATOM      4  C   UNL A   1      46.264 -18.338 -40.129  0.00  0.00    +0.006 C 
ATOM      5  C   UNL A   1      46.041 -19.071 -41.432  0.00  0.00    -0.077 C 
ATOM      6  C   UNL A   1      44.933 -19.776 -41.716  0.00  0.00    -0.073 C 
ATOM      7  C   UNL A   1      44.739 -20.484 -43.024  0.00  0.00    -0.044 C 
ATOM      8  C   UNL A   1      43.806 -19.890 -40.714  0.00  0.00    +0.001 C 
ATOM      9  C   UNL A   1      43.945 -18.975 -39.446  0.00  0.00    +0.113 C 
ATOM     10  C   UNL A   1      43.467 -17.563 -39.827  0.00  0.00    -0.000 C 
ATOM     11  C   UNL A   1      42.230 -17.069 -39.639  0.00  0.00    -0.068 C 
ATOM     12  C   UNL A   1      41.825 -15.702 -40.081  0.00  0.00    +0.045 C 
ATOM     13  C   UNL A   1      42.784 -15.140 -41.120  0.00  0.00    +0.240 C 
ATOM     14  O   UNL A   1      42.380 -14.343 -41.964  0.00  0.00    -0.273 OA
ATOM     15  N   UNL A   1      44.113 -15.474 -41.010  0.00  0.00    -0.185 NA
ATOM     16  C   UNL A   1      44.436 -16.589 -40.432  0.00  0.00    +0.040 C 
ATOM     17  C   UNL A   1      45.931 -16.859 -40.295  0.00  0.00    -0.002 C 
ENDROOT
BRANCH   9  18
ATOM     18  N   UNL A   1      43.039 -19.465 -38.376  0.00  0.00    -0.275 NA
ATOM     19  C   UNL A   1      42.564 -20.658 -38.446  0.00  0.00    +0.031 C 
BRANCH  19  20
ATOM     20  C   UNL A   1      41.640 -21.186 -37.423  0.00  0.00    -0.007 A 
ATOM     21  C   UNL A   1      41.805 -20.802 -36.097  0.00  0.00    -0.051 A 
ATOM     22  C   UNL A   1      40.936 -21.298 -35.114  0.00  0.00    -0.040 A 
ATOM     23  C   UNL A   1      39.878 -22.179 -35.416  0.00  0.00    +0.029 A 
ATOM     24  C   UNL A   1      39.757 -22.552 -36.767  0.00  0.00    -0.040 A 
ATOM     25  C   UNL A   1      40.615 -22.063 -37.762  0.00  0.00    -0.051 A 
BRANCH  23  26
ATOM     26  N   UNL A   1      39.033 -22.683 -34.422  0.00  0.00    -0.336 N 
ATOM     27  C   UNL A   1      38.375 -23.973 -34.624  0.00  0.00    +0.000 C 
ATOM     28  C   UNL A   1      38.325 -21.742 -33.554  0.00  0.00    +0.000 C 
ENDBRANCH  23  26
ENDBRANCH  19  20
ENDBRANCH   9  18
TORSDOF 3
ENDMDL
MODEL 9
REMARK VINA RESULT:    -6.738      4.146      7.531
REMARK INTER + INTRA:          -8.615
REMARK INTER:                  -7.918
REMARK INTRA:                  -0.697
REMARK UNBOUND:                -0.696
REMARK  Name = cpd116.pdb
REMARK  7 active torsions:
REMARK  status: ('A' for Active; 'I' for Inactive)
REMARK    1  A    between atoms: C_1  and  C_2
REMARK    2  A    between atoms: C_6  and  C_7
REMARK    3  A    between atoms: C_9  and  N_10
REMARK    4  A    between atoms: C_11  and  C_12
REMARK    5  A    between atoms: C_15  and  N_16
REMARK    6  A    between atoms: N_16  and  C_17
REMARK    7  A    between atoms: N_16  and  C_18
REMARK                            x       y       z     vdW  Elec       q    Type
REMARK                         _______ _______ _______ _____ _____    ______ ____
ROOT
ATOM      1  C   UNL A   1      31.921 -39.934 -30.048  0.00  0.00    -0.046 C 
ATOM      2  C   UNL A   1      32.799 -39.207 -29.078  0.00  0.00    -0.085 C 
ATOM      3  C   UNL A   1      33.561 -38.111 -29.292  0.00  0.00    -0.035 C 
ATOM      4  C   UNL A   1      33.689 -37.416 -30.638  0.00  0.00    +0.006 C 
ATOM      5  C   UNL A   1      33.581 -35.911 -30.537  0.00  0.00    -0.077 C 
ATOM      6  C   UNL A   1      33.811 -35.216 -29.410  0.00  0.00    -0.073 C 
ATOM      7  C   UNL A   1      33.704 -33.722 -29.347  0.00  0.00    -0.044 C 
ATOM      8  C   UNL A   1      34.198 -35.919 -28.128  0.00  0.00    +0.001 C 
ATOM      9  C   UNL A   1      34.503 -37.452 -28.274  0.00  0.00    +0.113 C 
ATOM     10  C   UNL A   1      35.944 -37.601 -28.794  0.00  0.00    -0.000 C 
ATOM     11  C   UNL A   1      37.041 -37.792 -28.039  0.00  0.00    -0.068 C 
ATOM     12  C   UNL A   1      38.417 -37.877 -28.613  0.00  0.00    +0.045 C 
ATOM     13  C   UNL A   1      38.477 -37.294 -30.018  0.00  0.00    +0.240 C 
ATOM     14  O   UNL A   1      39.519 -36.788 -30.430  0.00  0.00    -0.273 OA
ATOM     15  N   UNL A   1      37.374 -37.450 -30.823  0.00  0.00    -0.185 NA
ATOM     16  C   UNL A   1      36.206 -37.576 -30.271  0.00  0.00    +0.040 C 
ATOM     17  C   UNL A   1      35.041 -37.806 -31.229  0.00  0.00    -0.002 C 
ENDROOT
BRANCH   9  18
ATOM     18  N   UNL A   1      34.456 -38.099 -26.938  0.00  0.00    -0.275 NA
ATOM     19  C   UNL A   1      33.822 -37.523 -25.978  0.00  0.00    +0.031 C 
BRANCH  19  20
ATOM     20  C   UNL A   1      33.766 -38.110 -24.624  0.00  0.00    -0.007 A 
ATOM     21  C   UNL A   1      33.699 -39.493 -24.487  0.00  0.00    -0.051 A 
ATOM     22  C   UNL A   1      33.641 -40.063 -23.207  0.00  0.00    -0.040 A 
ATOM     23  C   UNL A   1      33.657 -39.286 -22.032  0.00  0.00    +0.029 A 
ATOM     24  C   UNL A   1      33.711 -37.892 -22.218  0.00  0.00    -0.040 A 
ATOM     25  C   UNL A   1      33.772 -37.306 -23.490  0.00  0.00    -0.051 A 
BRANCH  23  26
ATOM     26  N   UNL A   1      33.577 -39.868 -20.762  0.00  0.00    -0.336 N 
ATOM     27  C   UNL A   1      34.641 -39.623 -19.790  0.00  0.00    +0.000 C 
ATOM     28  C   UNL A   1      32.863 -41.136 -20.611  0.00  0.00    +0.000 C 
ENDBRANCH  23  26
ENDBRANCH  19  20
ENDBRANCH   9  18
TORSDOF 3
ENDMDL
MODEL 10
REMARK VINA RESULT:    -6.665      3.292      7.138
REMARK INTER + INTRA:          -8.530
REMARK INTER:                  -7.880
REMARK INTRA:                  -0.650
REMARK UNBOUND:                -0.696
REMARK  Name = cpd116.pdb
REMARK  7 active torsions:
REMARK  status: ('A' for Active; 'I' for Inactive)
REMARK    1  A    between atoms: C_1  and  C_2
REMARK    2  A    between atoms: C_6  and  C_7
REMARK    3  A    between atoms: C_9  and  N_10
REMARK    4  A    between atoms: C_11  and  C_12
REMARK    5  A    between atoms: C_15  and  N_16
REMARK    6  A    between atoms: N_16  and  C_17
REMARK    7  A    between atoms: N_16  and  C_18
REMARK                            x       y       z     vdW  Elec       q    Type
REMARK                         _______ _______ _______ _____ _____    ______ ____
ROOT
ATOM      1  C   UNL A   1      30.932 -37.782 -31.024  0.00  0.00    -0.046 C 
ATOM      2  C   UNL A   1      31.907 -37.232 -30.031  0.00  0.00    -0.085 C 
ATOM      3  C   UNL A   1      32.781 -36.212 -30.187  0.00  0.00    -0.035 C 
ATOM      4  C   UNL A   1      32.956 -35.435 -31.481  0.00  0.00    +0.006 C 
ATOM      5  C   UNL A   1      33.017 -33.940 -31.266  0.00  0.00    -0.077 C 
ATOM      6  C   UNL A   1      33.349 -33.362 -30.099  0.00  0.00    -0.073 C 
ATOM      7  C   UNL A   1      33.410 -31.874 -29.923  0.00  0.00    -0.044 C 
ATOM      8  C   UNL A   1      33.684 -34.199 -28.885  0.00  0.00    +0.001 C 
ATOM      9  C   UNL A   1      33.813 -35.741 -29.153  0.00  0.00    +0.113 C 
ATOM     10  C   UNL A   1      35.217 -36.005 -29.725  0.00  0.00    -0.000 C 
ATOM     11  C   UNL A   1      36.302 -36.372 -29.021  0.00  0.00    -0.068 C 
ATOM     12  C   UNL A   1      37.647 -36.562 -29.641  0.00  0.00    +0.045 C 
ATOM     13  C   UNL A   1      37.740 -35.884 -31.001  0.00  0.00    +0.240 C 
ATOM     14  O   UNL A   1      38.822 -35.465 -31.406  0.00  0.00    -0.273 OA
ATOM     15  N   UNL A   1      36.609 -35.856 -31.781  0.00  0.00    -0.185 NA
ATOM     16  C   UNL A   1      35.447 -35.897 -31.205  0.00  0.00    +0.040 C 
ATOM     17  C   UNL A   1      34.242 -35.923 -32.140  0.00  0.00    -0.002 C 
ENDROOT
BRANCH   9  18
ATOM     18  N   UNL A   1      33.724 -36.478 -27.867  0.00  0.00    -0.275 NA
ATOM     19  C   UNL A   1      33.049 -35.977 -26.894  0.00  0.00    +0.031 C 
BRANCH  19  20
ATOM     20  C   UNL A   1      32.950 -36.656 -25.587  0.00  0.00    -0.007 A 
ATOM     21  C   UNL A   1      32.477 -35.947 -24.488  0.00  0.00    -0.051 A 
ATOM     22  C   UNL A   1      32.381 -36.581 -23.240  0.00  0.00    -0.040 A 
ATOM     23  C   UNL A   1      32.741 -37.929 -23.047  0.00  0.00    +0.029 A 
ATOM     24  C   UNL A   1      33.227 -38.603 -24.182  0.00  0.00    -0.040 A 
ATOM     25  C   UNL A   1      33.326 -37.987 -25.437  0.00  0.00    -0.051 A 
BRANCH  23  26
ATOM     26  N   UNL A   1      32.661 -38.541 -21.792  0.00  0.00    -0.336 N 
ATOM     27  C   UNL A   1      31.379 -39.072 -21.330  0.00  0.00    +0.000 C 
ATOM     28  C   UNL A   1      33.583 -38.115 -20.739  0.00  0.00    +0.000 C 
ENDBRANCH  23  26
ENDBRANCH  19  20
ENDBRANCH   9  18
TORSDOF 3
ENDMDL
MODEL 11
REMARK VINA RESULT:    -6.658     17.088     20.554
REMARK INTER + INTRA:          -8.522
REMARK INTER:                  -7.822
REMARK INTRA:                  -0.701
REMARK UNBOUND:                -0.696
REMARK  Name = cpd116.pdb
REMARK  7 active torsions:
REMARK  status: ('A' for Active; 'I' for Inactive)
REMARK    1  A    between atoms: C_1  and  C_2
REMARK    2  A    between atoms: C_6  and  C_7
REMARK    3  A    between atoms: C_9  and  N_10
REMARK    4  A    between atoms: C_11  and  C_12
REMARK    5  A    between atoms: C_15  and  N_16
REMARK    6  A    between atoms: N_16  and  C_17
REMARK    7  A    between atoms: N_16  and  C_18
REMARK                            x       y       z     vdW  Elec       q    Type
REMARK                         _______ _______ _______ _____ _____    ______ ____
ROOT
ATOM      1  C   UNL A   1      43.566 -15.346 -37.656  0.00  0.00    -0.046 C 
ATOM      2  C   UNL A   1      43.748 -16.786 -37.292  0.00  0.00    -0.085 C 
ATOM      3  C   UNL A   1      44.897 -17.495 -37.216  0.00  0.00    -0.035 C 
ATOM      4  C   UNL A   1      46.268 -16.927 -37.542  0.00  0.00    +0.006 C 
ATOM      5  C   UNL A   1      47.317 -17.297 -36.518  0.00  0.00    -0.077 C 
ATOM      6  C   UNL A   1      47.218 -18.350 -35.689  0.00  0.00    -0.073 C 
ATOM      7  C   UNL A   1      48.283 -18.695 -34.691  0.00  0.00    -0.044 C 
ATOM      8  C   UNL A   1      46.008 -19.256 -35.724  0.00  0.00    +0.001 C 
ATOM      9  C   UNL A   1      45.014 -18.995 -36.911  0.00  0.00    +0.113 C 
ATOM     10  C   UNL A   1      45.576 -19.694 -38.161  0.00  0.00    -0.000 C 
ATOM     11  C   UNL A   1      45.249 -20.925 -38.593  0.00  0.00    -0.068 C 
ATOM     12  C   UNL A   1      45.875 -21.558 -39.791  0.00  0.00    +0.045 C 
ATOM     13  C   UNL A   1      47.181 -20.873 -40.171  0.00  0.00    +0.240 C 
ATOM     14  O   UNL A   1      48.073 -21.513 -40.724  0.00  0.00    -0.273 OA
ATOM     15  N   UNL A   1      47.275 -19.517 -39.968  0.00  0.00    -0.185 NA
ATOM     16  C   UNL A   1      46.554 -18.970 -39.039  0.00  0.00    +0.040 C 
ATOM     17  C   UNL A   1      46.669 -17.453 -38.917  0.00  0.00    -0.002 C 
ENDROOT
BRANCH   9  18
ATOM     18  N   UNL A   1      43.705 -19.630 -36.611  0.00  0.00    -0.275 NA
ATOM     19  C   UNL A   1      43.434 -19.988 -35.406  0.00  0.00    +0.031 C 
BRANCH  19  20
ATOM     20  C   UNL A   1      42.159 -20.646 -35.060  0.00  0.00    -0.007 A 
ATOM     21  C   UNL A   1      41.631 -20.473 -33.785  0.00  0.00    -0.051 A 
ATOM     22  C   UNL A   1      40.421 -21.095 -33.442  0.00  0.00    -0.040 A 
ATOM     23  C   UNL A   1      39.700 -21.896 -34.349  0.00  0.00    +0.029 A 
ATOM     24  C   UNL A   1      40.278 -22.055 -35.622  0.00  0.00    -0.040 A 
ATOM     25  C   UNL A   1      41.484 -21.438 -35.982  0.00  0.00    -0.051 A 
BRANCH  23  26
ATOM     26  N   UNL A   1      38.506 -22.528 -33.986  0.00  0.00    -0.336 N 
ATOM     27  C   UNL A   1      37.568 -21.841 -33.100  0.00  0.00    +0.000 C 
ATOM     28  C   UNL A   1      38.470 -23.989 -33.932  0.00  0.00    +0.000 C 
ENDBRANCH  23  26
ENDBRANCH  19  20
ENDBRANCH   9  18
TORSDOF 3
ENDMDL
MODEL 12
REMARK VINA RESULT:    -6.522     21.512     24.283
REMARK INTER + INTRA:          -8.362
REMARK INTER:                  -7.685
REMARK INTRA:                  -0.676
REMARK UNBOUND:                -0.696
REMARK  Name = cpd116.pdb
REMARK  7 active torsions:
REMARK  status: ('A' for Active; 'I' for Inactive)
REMARK    1  A    between atoms: C_1  and  C_2
REMARK    2  A    between atoms: C_6  and  C_7
REMARK    3  A    between atoms: C_9  and  N_10
REMARK    4  A    between atoms: C_11  and  C_12
REMARK    5  A    between atoms: C_15  and  N_16
REMARK    6  A    between atoms: N_16  and  C_17
REMARK    7  A    between atoms: N_16  and  C_18
REMARK                            x       y       z     vdW  Elec       q    Type
REMARK                         _______ _______ _______ _____ _____    ______ ____
ROOT
ATOM      1  C   UNL A   1      47.440 -18.218 -35.398  0.00  0.00    -0.046 C 
ATOM      2  C   UNL A   1      47.283 -17.969 -36.866  0.00  0.00    -0.085 C 
ATOM      3  C   UNL A   1      46.369 -18.490 -37.714  0.00  0.00    -0.035 C 
ATOM      4  C   UNL A   1      45.310 -19.501 -37.305  0.00  0.00    +0.006 C 
ATOM      5  C   UNL A   1      43.939 -19.172 -37.850  0.00  0.00    -0.077 C 
ATOM      6  C   UNL A   1      43.726 -18.389 -38.921  0.00  0.00    -0.073 C 
ATOM      7  C   UNL A   1      42.352 -18.091 -39.443  0.00  0.00    -0.044 C 
ATOM      8  C   UNL A   1      44.881 -17.762 -39.668  0.00  0.00    +0.001 C 
ATOM      9  C   UNL A   1      46.306 -18.256 -39.230  0.00  0.00    +0.113 C 
ATOM     10  C   UNL A   1      46.578 -19.597 -39.933  0.00  0.00    -0.000 C 
ATOM     11  C   UNL A   1      47.240 -19.764 -41.091  0.00  0.00    -0.068 C 
ATOM     12  C   UNL A   1      47.422 -21.097 -41.738  0.00  0.00    +0.045 C 
ATOM     13  C   UNL A   1      46.432 -22.121 -41.203  0.00  0.00    +0.240 C 
ATOM     14  O   UNL A   1      46.053 -23.045 -41.921  0.00  0.00    -0.273 OA
ATOM     15  N   UNL A   1      46.070 -22.031 -39.880  0.00  0.00    -0.185 NA
ATOM     16  C   UNL A   1      46.120 -20.876 -39.293  0.00  0.00    +0.040 C 
ATOM     17  C   UNL A   1      45.761 -20.868 -37.810  0.00  0.00    -0.002 C 
ENDROOT
BRANCH   9  18
ATOM     18  N   UNL A   1      47.334 -17.298 -39.712  0.00  0.00    -0.275 NA
ATOM     19  C   UNL A   1      46.996 -16.087 -39.982  0.00  0.00    +0.031 C 
BRANCH  19  20
ATOM     20  C   UNL A   1      47.974 -15.103 -40.488  0.00  0.00    -0.007 A 
ATOM     21  C   UNL A   1      48.214 -15.027 -41.855  0.00  0.00    -0.051 A 
ATOM     22  C   UNL A   1      49.143 -14.099 -42.349  0.00  0.00    -0.040 A 
ATOM     23  C   UNL A   1      49.851 -13.219 -41.508  0.00  0.00    +0.029 A 
ATOM     24  C   UNL A   1      49.588 -13.340 -40.130  0.00  0.00    -0.040 A 
ATOM     25  C   UNL A   1      48.661 -14.260 -39.621  0.00  0.00    -0.051 A 
BRANCH  23  26
ATOM     26  N   UNL A   1      50.791 -12.314 -42.011  0.00  0.00    -0.336 N 
ATOM     27  C   UNL A   1      51.617 -12.696 -43.155  0.00  0.00    +0.000 C 
ATOM     28  C   UNL A   1      51.387 -11.336 -41.101  0.00  0.00    +0.000 C 
ENDBRANCH  23  26
ENDBRANCH  19  20
ENDBRANCH   9  18
TORSDOF 3
ENDMDL
MODEL 13
REMARK VINA RESULT:    -6.425     34.002     36.996
REMARK INTER + INTRA:          -8.248
REMARK INTER:                  -7.557
REMARK INTRA:                  -0.691
REMARK UNBOUND:                -0.696
REMARK  Name = cpd116.pdb
REMARK  7 active torsions:
REMARK  status: ('A' for Active; 'I' for Inactive)
REMARK    1  A    between atoms: C_1  and  C_2
REMARK    2  A    between atoms: C_6  and  C_7
REMARK    3  A    between atoms: C_9  and  N_10
REMARK    4  A    between atoms: C_11  and  C_12
REMARK    5  A    between atoms: C_15  and  N_16
REMARK    6  A    between atoms: N_16  and  C_17
REMARK    7  A    between atoms: N_16  and  C_18
REMARK                            x       y       z     vdW  Elec       q    Type
REMARK                         _______ _______ _______ _____ _____    ______ ____
ROOT
ATOM      1  C   UNL A   1      62.792 -16.436  -6.897  0.00  0.00    -0.046 C 
ATOM      2  C   UNL A   1      62.521 -17.533  -7.879  0.00  0.00    -0.085 C 
ATOM      3  C   UNL A   1      62.185 -17.430  -9.184  0.00  0.00    -0.035 C 
ATOM      4  C   UNL A   1      61.980 -16.108  -9.906  0.00  0.00    +0.006 C 
ATOM      5  C   UNL A   1      62.654 -16.065 -11.258  0.00  0.00    -0.077 C 
ATOM      6  C   UNL A   1      62.991 -17.157 -11.964  0.00  0.00    -0.073 C 
ATOM      7  C   UNL A   1      63.650 -17.078 -13.309  0.00  0.00    -0.044 C 
ATOM      8  C   UNL A   1      62.715 -18.544 -11.429  0.00  0.00    +0.001 C 
ATOM      9  C   UNL A   1      61.844 -18.595 -10.124  0.00  0.00    +0.113 C 
ATOM     10  C   UNL A   1      60.367 -18.458 -10.536  0.00  0.00    -0.000 C 
ATOM     11  C   UNL A   1      59.509 -19.471 -10.751  0.00  0.00    -0.068 C 
ATOM     12  C   UNL A   1      58.101 -19.261 -11.198  0.00  0.00    +0.045 C 
ATOM     13  C   UNL A   1      57.900 -17.873 -11.791  0.00  0.00    +0.240 C 
ATOM     14  O   UNL A   1      57.048 -17.692 -12.659  0.00  0.00    -0.273 OA
ATOM     15  N   UNL A   1      58.624 -16.836 -11.253  0.00  0.00    -0.185 NA
ATOM     16  C   UNL A   1      59.763 -17.092 -10.688  0.00  0.00    +0.040 C 
ATOM     17  C   UNL A   1      60.477 -15.898 -10.061  0.00  0.00    -0.002 C 
ENDROOT
BRANCH   9  18
ATOM     18  N   UNL A   1      61.992 -19.924  -9.478  0.00  0.00    -0.275 NA
ATOM     19  C   UNL A   1      62.903 -20.732  -9.892  0.00  0.00    +0.031 C 
BRANCH  19  20
ATOM     20  C   UNL A   1      63.076 -22.074  -9.302  0.00  0.00    -0.007 A 
ATOM     21  C   UNL A   1      63.144 -22.203  -7.919  0.00  0.00    -0.051 A 
ATOM     22  C   UNL A   1      63.312 -23.472  -7.346  0.00  0.00    -0.040 A 
ATOM     23  C   UNL A   1      63.408 -24.645  -8.120  0.00  0.00    +0.029 A 
ATOM     24  C   UNL A   1      63.347 -24.466  -9.515  0.00  0.00    -0.040 A 
ATOM     25  C   UNL A   1      63.177 -23.206 -10.104  0.00  0.00    -0.051 A 
BRANCH  23  26
ATOM     26  N   UNL A   1      63.597 -25.901  -7.535  0.00  0.00    -0.336 N 
ATOM     27  C   UNL A   1      62.444 -26.633  -7.013  0.00  0.00    +0.000 C 
ATOM     28  C   UNL A   1      64.875 -26.192  -6.886  0.00  0.00    +0.000 C 
ENDBRANCH  23  26
ENDBRANCH  19  20
ENDBRANCH   9  18
TORSDOF 3
ENDMDL
MODEL 14
REMARK VINA RESULT:    -6.337     20.767     23.336
REMARK INTER + INTRA:          -8.145
REMARK INTER:                  -7.530
REMARK INTRA:                  -0.616
REMARK UNBOUND:                -0.696
REMARK  Name = cpd116.pdb
REMARK  7 active torsions:
REMARK  status: ('A' for Active; 'I' for Inactive)
REMARK    1  A    between atoms: C_1  and  C_2
REMARK    2  A    between atoms: C_6  and  C_7
REMARK    3  A    between atoms: C_9  and  N_10
REMARK    4  A    between atoms: C_11  and  C_12
REMARK    5  A    between atoms: C_15  and  N_16
REMARK    6  A    between atoms: N_16  and  C_17
REMARK    7  A    between atoms: N_16  and  C_18
REMARK                            x       y       z     vdW  Elec       q    Type
REMARK                         _______ _______ _______ _____ _____    ______ ____
ROOT
ATOM      1  C   UNL A   1      41.834 -16.744 -39.841  0.00  0.00    -0.046 C 
ATOM      2  C   UNL A   1      43.266 -17.044 -39.525  0.00  0.00    -0.085 C 
ATOM      3  C   UNL A   1      43.815 -18.220 -39.144  0.00  0.00    -0.035 C 
ATOM      4  C   UNL A   1      43.019 -19.496 -38.925  0.00  0.00    +0.006 C 
ATOM      5  C   UNL A   1      43.669 -20.710 -39.549  0.00  0.00    -0.077 C 
ATOM      6  C   UNL A   1      44.975 -20.790 -39.851  0.00  0.00    -0.073 C 
ATOM      7  C   UNL A   1      45.590 -22.014 -40.462  0.00  0.00    -0.044 C 
ATOM      8  C   UNL A   1      45.908 -19.630 -39.583  0.00  0.00    +0.001 C 
ATOM      9  C   UNL A   1      45.283 -18.449 -38.758  0.00  0.00    +0.113 C 
ATOM     10  C   UNL A   1      45.331 -18.834 -37.269  0.00  0.00    -0.000 C 
ATOM     11  C   UNL A   1      46.295 -18.496 -36.395  0.00  0.00    -0.068 C 
ATOM     12  C   UNL A   1      46.298 -18.950 -34.973  0.00  0.00    +0.045 C 
ATOM     13  C   UNL A   1      45.382 -20.148 -34.764  0.00  0.00    +0.240 C 
ATOM     14  O   UNL A   1      45.632 -20.968 -33.882  0.00  0.00    -0.273 OA
ATOM     15  N   UNL A   1      44.233 -20.214 -35.516  0.00  0.00    -0.185 NA
ATOM     16  C   UNL A   1      44.205 -19.628 -36.672  0.00  0.00    +0.040 C 
ATOM     17  C   UNL A   1      42.876 -19.695 -37.418  0.00  0.00    -0.002 C 
ENDROOT
BRANCH   9  18
ATOM     18  N   UNL A   1      46.121 -17.233 -38.918  0.00  0.00    -0.275 NA
ATOM     19  C   UNL A   1      46.709 -17.011 -40.040  0.00  0.00    +0.031 C 
BRANCH  19  20
ATOM     20  C   UNL A   1      47.573 -15.831 -40.243  0.00  0.00    -0.007 A 
ATOM     21  C   UNL A   1      47.946 -15.477 -41.535  0.00  0.00    -0.051 A 
ATOM     22  C   UNL A   1      48.769 -14.361 -41.741  0.00  0.00    -0.040 A 
ATOM     23  C   UNL A   1      49.238 -13.561 -40.680  0.00  0.00    +0.029 A 
ATOM     24  C   UNL A   1      48.848 -13.963 -39.389  0.00  0.00    -0.040 A 
ATOM     25  C   UNL A   1      48.023 -15.075 -39.166  0.00  0.00    -0.051 A 
BRANCH  23  26
ATOM     26  N   UNL A   1      50.076 -12.463 -40.899  0.00  0.00    -0.336 N 
ATOM     27  C   UNL A   1      50.693 -12.279 -42.212  0.00  0.00    +0.000 C 
ATOM     28  C   UNL A   1      50.820 -11.908 -39.768  0.00  0.00    +0.000 C 
ENDBRANCH  23  26
ENDBRANCH  19  20
ENDBRANCH   9  18
TORSDOF 3
ENDMDL
MODEL 15
REMARK VINA RESULT:    -6.314     21.803     25.206
REMARK INTER + INTRA:          -8.117
REMARK INTER:                  -7.460
REMARK INTRA:                  -0.657
REMARK UNBOUND:                -0.696
REMARK  Name = cpd116.pdb
REMARK  7 active torsions:
REMARK  status: ('A' for Active; 'I' for Inactive)
REMARK    1  A    between atoms: C_1  and  C_2
REMARK    2  A    between atoms: C_6  and  C_7
REMARK    3  A    between atoms: C_9  and  N_10
REMARK    4  A    between atoms: C_11  and  C_12
REMARK    5  A    between atoms: C_15  and  N_16
REMARK    6  A    between atoms: N_16  and  C_17
REMARK    7  A    between atoms: N_16  and  C_18
REMARK                            x       y       z     vdW  Elec       q    Type
REMARK                         _______ _______ _______ _____ _____    ______ ____
ROOT
ATOM      1  C   UNL A   1      51.803 -56.092 -26.322  0.00  0.00    -0.046 C 
ATOM      2  C   UNL A   1      51.606 -55.579 -27.715  0.00  0.00    -0.085 C 
ATOM      3  C   UNL A   1      52.545 -55.223 -28.620  0.00  0.00    -0.035 C 
ATOM      4  C   UNL A   1      54.040 -55.249 -28.348  0.00  0.00    +0.006 C 
ATOM      5  C   UNL A   1      54.833 -55.869 -29.476  0.00  0.00    -0.077 C 
ATOM      6  C   UNL A   1      54.390 -55.964 -30.741  0.00  0.00    -0.073 C 
ATOM      7  C   UNL A   1      55.208 -56.577 -31.839  0.00  0.00    -0.044 C 
ATOM      8  C   UNL A   1      53.023 -55.447 -31.127  0.00  0.00    +0.001 C 
ATOM      9  C   UNL A   1      52.279 -54.630 -30.011  0.00  0.00    +0.113 C 
ATOM     10  C   UNL A   1      52.830 -53.194 -30.031  0.00  0.00    -0.000 C 
ATOM     11  C   UNL A   1      52.294 -52.150 -30.688  0.00  0.00    -0.068 C 
ATOM     12  C   UNL A   1      52.914 -50.792 -30.700  0.00  0.00    +0.045 C 
ATOM     13  C   UNL A   1      54.379 -50.840 -30.289  0.00  0.00    +0.240 C 
ATOM     14  O   UNL A   1      55.169 -50.007 -30.729  0.00  0.00    -0.273 OA
ATOM     15  N   UNL A   1      54.749 -51.769 -29.345  0.00  0.00    -0.185 NA
ATOM     16  C   UNL A   1      54.053 -52.857 -29.229  0.00  0.00    +0.040 C 
ATOM     17  C   UNL A   1      54.490 -53.809 -28.120  0.00  0.00    -0.002 C 
ENDROOT
BRANCH   9  18
ATOM     18  N   UNL A   1      50.832 -54.544 -30.338  0.00  0.00    -0.275 NA
ATOM     19  C   UNL A   1      50.280 -55.484 -31.021  0.00  0.00    +0.031 C 
BRANCH  19  20
ATOM     20  C   UNL A   1      48.853 -55.434 -31.395  0.00  0.00    -0.007 A 
ATOM     21  C   UNL A   1      47.961 -54.751 -30.576  0.00  0.00    -0.051 A 
ATOM     22  C   UNL A   1      46.601 -54.699 -30.917  0.00  0.00    -0.040 A 
ATOM     23  C   UNL A   1      46.089 -55.313 -32.077  0.00  0.00    +0.029 A 
ATOM     24  C   UNL A   1      47.025 -56.005 -32.869  0.00  0.00    -0.040 A 
ATOM     25  C   UNL A   1      48.387 -56.064 -32.544  0.00  0.00    -0.051 A 
BRANCH  23  26
ATOM     26  N   UNL A   1      44.728 -55.272 -32.394  0.00  0.00    -0.336 N 
ATOM     27  C   UNL A   1      43.778 -56.036 -31.586  0.00  0.00    +0.000 C 
ATOM     28  C   UNL A   1      44.333 -55.043 -33.784  0.00  0.00    +0.000 C 
ENDBRANCH  23  26
ENDBRANCH  19  20
ENDBRANCH   9  18
TORSDOF 3
ENDMDL
MODEL 16
REMARK VINA RESULT:    -6.308     15.236     17.941
REMARK INTER + INTRA:          -8.110
REMARK INTER:                  -7.405
REMARK INTRA:                  -0.706
REMARK UNBOUND:                -0.696
REMARK  Name = cpd116.pdb
REMARK  7 active torsions:
REMARK  status: ('A' for Active; 'I' for Inactive)
REMARK    1  A    between atoms: C_1  and  C_2
REMARK    2  A    between atoms: C_6  and  C_7
REMARK    3  A    between atoms: C_9  and  N_10
REMARK    4  A    between atoms: C_11  and  C_12
REMARK    5  A    between atoms: C_15  and  N_16
REMARK    6  A    between atoms: N_16  and  C_17
REMARK    7  A    between atoms: N_16  and  C_18
REMARK                            x       y       z     vdW  Elec       q    Type
REMARK                         _______ _______ _______ _____ _____    ______ ____
ROOT
ATOM      1  C   UNL A   1      41.083 -22.855 -32.298  0.00  0.00    -0.046 C 
ATOM      2  C   UNL A   1      41.044 -21.886 -33.439  0.00  0.00    -0.085 C 
ATOM      3  C   UNL A   1      40.486 -20.655 -33.478  0.00  0.00    -0.035 C 
ATOM      4  C   UNL A   1      39.731 -20.028 -32.318  0.00  0.00    +0.006 C 
ATOM      5  C   UNL A   1      40.121 -18.589 -32.071  0.00  0.00    -0.077 C 
ATOM      6  C   UNL A   1      40.689 -17.796 -32.995  0.00  0.00    -0.073 C 
ATOM      7  C   UNL A   1      41.054 -16.367 -32.720  0.00  0.00    -0.044 C 
ATOM      8  C   UNL A   1      40.991 -18.312 -34.384  0.00  0.00    +0.001 C 
ATOM      9  C   UNL A   1      40.412 -19.736 -34.706  0.00  0.00    +0.113 C 
ATOM     10  C   UNL A   1      38.931 -19.569 -35.088  0.00  0.00    -0.000 C 
ATOM     11  C   UNL A   1      38.444 -19.453 -36.336  0.00  0.00    -0.068 C 
ATOM     12  C   UNL A   1      36.995 -19.244 -36.626  0.00  0.00    +0.045 C 
ATOM     13  C   UNL A   1      36.242 -18.745 -35.400  0.00  0.00    +0.240 C 
ATOM     14  O   UNL A   1      35.250 -18.031 -35.535  0.00  0.00    -0.273 OA
ATOM     15  N   UNL A   1      36.649 -19.202 -34.170  0.00  0.00    -0.185 NA
ATOM     16  C   UNL A   1      37.883 -19.569 -34.012  0.00  0.00    +0.040 C 
ATOM     17  C   UNL A   1      38.242 -20.121 -32.636  0.00  0.00    -0.002 C 
ENDROOT
BRANCH   9  18
ATOM     18  N   UNL A   1      41.105 -20.298 -35.894  0.00  0.00    -0.275 NA
ATOM     19  C   UNL A   1      42.231 -19.800 -36.265  0.00  0.00    +0.031 C 
BRANCH  19  20
ATOM     20  C   UNL A   1      42.948 -20.304 -37.453  0.00  0.00    -0.007 A 
ATOM     21  C   UNL A   1      42.217 -20.815 -38.520  0.00  0.00    -0.051 A 
ATOM     22  C   UNL A   1      42.886 -21.301 -39.653  0.00  0.00    -0.040 A 
ATOM     23  C   UNL A   1      44.290 -21.288 -39.765  0.00  0.00    +0.029 A 
ATOM     24  C   UNL A   1      44.990 -20.775 -38.657  0.00  0.00    -0.040 A 
ATOM     25  C   UNL A   1      44.337 -20.284 -37.518  0.00  0.00    -0.051 A 
BRANCH  23  26
ATOM     26  N   UNL A   1      44.945 -21.795 -40.892  0.00  0.00    -0.336 N 
ATOM     27  C   UNL A   1      46.297 -22.335 -40.757  0.00  0.00    +0.000 C 
ATOM     28  C   UNL A   1      44.612 -21.248 -42.207  0.00  0.00    +0.000 C 
ENDBRANCH  23  26
ENDBRANCH  19  20
ENDBRANCH   9  18
TORSDOF 3
ENDMDL
MODEL 17
REMARK VINA RESULT:    -6.285     15.930     18.738
REMARK INTER + INTRA:          -8.084
REMARK INTER:                  -7.391
REMARK INTRA:                  -0.693
REMARK UNBOUND:                -0.696
REMARK  Name = cpd116.pdb
REMARK  7 active torsions:
REMARK  status: ('A' for Active; 'I' for Inactive)
REMARK    1  A    between atoms: C_1  and  C_2
REMARK    2  A    between atoms: C_6  and  C_7
REMARK    3  A    between atoms: C_9  and  N_10
REMARK    4  A    between atoms: C_11  and  C_12
REMARK    5  A    between atoms: C_15  and  N_16
REMARK    6  A    between atoms: N_16  and  C_17
REMARK    7  A    between atoms: N_16  and  C_18
REMARK                            x       y       z     vdW  Elec       q    Type
REMARK                         _______ _______ _______ _____ _____    ______ ____
ROOT
ATOM      1  C   UNL A   1      44.704 -17.786 -33.334  0.00  0.00    -0.046 C 
ATOM      2  C   UNL A   1      44.006 -18.552 -34.414  0.00  0.00    -0.085 C 
ATOM      3  C   UNL A   1      42.678 -18.686 -34.626  0.00  0.00    -0.035 C 
ATOM      4  C   UNL A   1      41.610 -18.078 -33.732  0.00  0.00    +0.006 C 
ATOM      5  C   UNL A   1      40.504 -17.403 -34.511  0.00  0.00    -0.077 C 
ATOM      6  C   UNL A   1      40.212 -17.679 -35.793  0.00  0.00    -0.073 C 
ATOM      7  C   UNL A   1      39.100 -16.997 -36.534  0.00  0.00    -0.044 C 
ATOM      8  C   UNL A   1      41.004 -18.710 -36.566  0.00  0.00    +0.001 C 
ATOM      9  C   UNL A   1      42.018 -19.550 -35.711  0.00  0.00    +0.113 C 
ATOM     10  C   UNL A   1      41.232 -20.674 -35.013  0.00  0.00    -0.000 C 
ATOM     11  C   UNL A   1      41.081 -21.931 -35.464  0.00  0.00    -0.068 C 
ATOM     12  C   UNL A   1      40.260 -22.956 -34.753  0.00  0.00    +0.045 C 
ATOM     13  C   UNL A   1      39.296 -22.316 -33.764  0.00  0.00    +0.240 C 
ATOM     14  O   UNL A   1      38.228 -22.866 -33.502  0.00  0.00    -0.273 OA
ATOM     15  N   UNL A   1      39.709 -21.178 -33.113  0.00  0.00    -0.185 NA
ATOM     16  C   UNL A   1      40.585 -20.411 -33.684  0.00  0.00    +0.040 C 
ATOM     17  C   UNL A   1      41.037 -19.201 -32.873  0.00  0.00    -0.002 C 
ENDROOT
BRANCH   9  18
ATOM     18  N   UNL A   1      43.004 -20.205 -36.609  0.00  0.00    -0.275 NA
ATOM     19  C   UNL A   1      43.195 -19.733 -37.790  0.00  0.00    +0.031 C 
BRANCH  19  20
ATOM     20  C   UNL A   1      44.144 -20.361 -38.731  0.00  0.00    -0.007 A 
ATOM     21  C   UNL A   1      43.668 -20.871 -39.935  0.00  0.00    -0.051 A 
ATOM     22  C   UNL A   1      44.559 -21.473 -40.836  0.00  0.00    -0.040 A 
ATOM     23  C   UNL A   1      45.939 -21.580 -40.577  0.00  0.00    +0.029 A 
ATOM     24  C   UNL A   1      46.374 -21.064 -39.342  0.00  0.00    -0.040 A 
ATOM     25  C   UNL A   1      45.499 -20.457 -38.432  0.00  0.00    -0.051 A 
BRANCH  23  26
ATOM     26  N   UNL A   1      46.811 -22.203 -41.476  0.00  0.00    -0.336 N 
ATOM     27  C   UNL A   1      46.266 -22.944 -42.611  0.00  0.00    +0.000 C 
ATOM     28  C   UNL A   1      48.115 -22.657 -40.992  0.00  0.00    +0.000 C 
ENDBRANCH  23  26
ENDBRANCH  19  20
ENDBRANCH   9  18
TORSDOF 3
ENDMDL
MODEL 18
REMARK VINA RESULT:    -6.234     20.856     23.519
REMARK INTER + INTRA:          -8.024
REMARK INTER:                  -7.313
REMARK INTRA:                  -0.711
REMARK UNBOUND:                -0.696
REMARK  Name = cpd116.pdb
REMARK  7 active torsions:
REMARK  status: ('A' for Active; 'I' for Inactive)
REMARK    1  A    between atoms: C_1  and  C_2
REMARK    2  A    between atoms: C_6  and  C_7
REMARK    3  A    between atoms: C_9  and  N_10
REMARK    4  A    between atoms: C_11  and  C_12
REMARK    5  A    between atoms: C_15  and  N_16
REMARK    6  A    between atoms: N_16  and  C_17
REMARK    7  A    between atoms: N_16  and  C_18
REMARK                            x       y       z     vdW  Elec       q    Type
REMARK                         _______ _______ _______ _____ _____    ______ ____
ROOT
ATOM      1  C   UNL A   1      49.111 -18.993 -34.718  0.00  0.00    -0.046 C 
ATOM      2  C   UNL A   1      48.245 -18.322 -35.739  0.00  0.00    -0.085 C 
ATOM      3  C   UNL A   1      46.912 -18.105 -35.699  0.00  0.00    -0.035 C 
ATOM      4  C   UNL A   1      46.011 -18.563 -34.564  0.00  0.00    +0.006 C 
ATOM      5  C   UNL A   1      45.040 -17.495 -34.113  0.00  0.00    -0.077 C 
ATOM      6  C   UNL A   1      44.665 -16.453 -34.874  0.00  0.00    -0.073 C 
ATOM      7  C   UNL A   1      43.691 -15.416 -34.399  0.00  0.00    -0.044 C 
ATOM      8  C   UNL A   1      45.214 -16.273 -36.271  0.00  0.00    +0.001 C 
ATOM      9  C   UNL A   1      46.064 -17.477 -36.814  0.00  0.00    +0.113 C 
ATOM     10  C   UNL A   1      45.089 -18.548 -37.333  0.00  0.00    -0.000 C 
ATOM     11  C   UNL A   1      44.679 -18.694 -38.605  0.00  0.00    -0.068 C 
ATOM     12  C   UNL A   1      43.690 -19.730 -39.026  0.00  0.00    +0.045 C 
ATOM     13  C   UNL A   1      42.899 -20.267 -37.840  0.00  0.00    +0.240 C 
ATOM     14  O   UNL A   1      41.751 -20.675 -38.000  0.00  0.00    -0.273 OA
ATOM     15  N   UNL A   1      43.548 -20.369 -36.633  0.00  0.00    -0.185 NA
ATOM     16  C   UNL A   1      44.544 -19.576 -36.385  0.00  0.00    +0.040 C 
ATOM     17  C   UNL A   1      45.249 -19.793 -35.050  0.00  0.00    -0.002 C 
ENDROOT
BRANCH   9  18
ATOM     18  N   UNL A   1      46.875 -17.029 -37.976  0.00  0.00    -0.275 NA
ATOM     19  C   UNL A   1      46.976 -15.773 -38.232  0.00  0.00    +0.031 C 
BRANCH  19  20
ATOM     20  C   UNL A   1      47.748 -15.277 -39.388  0.00  0.00    -0.007 A 
ATOM     21  C   UNL A   1      47.498 -15.809 -40.649  0.00  0.00    -0.051 A 
ATOM     22  C   UNL A   1      48.227 -15.349 -41.755  0.00  0.00    -0.040 A 
ATOM     23  C   UNL A   1      49.213 -14.349 -41.648  0.00  0.00    +0.029 A 
ATOM     24  C   UNL A   1      49.443 -13.849 -40.353  0.00  0.00    -0.040 A 
ATOM     25  C   UNL A   1      48.722 -14.296 -39.237  0.00  0.00    -0.051 A 
BRANCH  23  26
ATOM     26  N   UNL A   1      49.948 -13.916 -42.757  0.00  0.00    -0.336 N 
ATOM     27  C   UNL A   1      49.945 -12.498 -43.113  0.00  0.00    +0.000 C 
ATOM     28  C   UNL A   1      50.164 -14.845 -43.866  0.00  0.00    +0.000 C 
ENDBRANCH  23  26
ENDBRANCH  19  20
ENDBRANCH   9  18
TORSDOF 3
ENDMDL
MODEL 19
REMARK VINA RESULT:    -6.172      3.644      8.197
REMARK INTER + INTRA:          -7.950
REMARK INTER:                  -7.253
REMARK INTRA:                  -0.698
REMARK UNBOUND:                -0.696
REMARK  Name = cpd116.pdb
REMARK  7 active torsions:
REMARK  status: ('A' for Active; 'I' for Inactive)
REMARK    1  A    between atoms: C_1  and  C_2
REMARK    2  A    between atoms: C_6  and  C_7
REMARK    3  A    between atoms: C_9  and  N_10
REMARK    4  A    between atoms: C_11  and  C_12
REMARK    5  A    between atoms: C_15  and  N_16
REMARK    6  A    between atoms: N_16  and  C_17
REMARK    7  A    between atoms: N_16  and  C_18
REMARK                            x       y       z     vdW  Elec       q    Type
REMARK                         _______ _______ _______ _____ _____    ______ ____
ROOT
ATOM      1  C   UNL A   1      37.594 -34.915 -31.311  0.00  0.00    -0.046 C 
ATOM      2  C   UNL A   1      36.200 -35.161 -30.824  0.00  0.00    -0.085 C 
ATOM      3  C   UNL A   1      35.747 -36.169 -30.045  0.00  0.00    -0.035 C 
ATOM      4  C   UNL A   1      36.619 -37.305 -29.536  0.00  0.00    +0.006 C 
ATOM      5  C   UNL A   1      36.397 -37.606 -28.071  0.00  0.00    -0.077 C 
ATOM      6  C   UNL A   1      35.283 -37.275 -27.397  0.00  0.00    -0.073 C 
ATOM      7  C   UNL A   1      35.092 -37.598 -25.945  0.00  0.00    -0.044 C 
ATOM      8  C   UNL A   1      34.147 -36.550 -28.081  0.00  0.00    +0.001 C 
ATOM      9  C   UNL A   1      34.287 -36.411 -29.639  0.00  0.00    +0.113 C 
ATOM     10  C   UNL A   1      33.828 -37.734 -30.275  0.00  0.00    -0.000 C 
ATOM     11  C   UNL A   1      32.596 -38.002 -30.742  0.00  0.00    -0.068 C 
ATOM     12  C   UNL A   1      32.210 -39.331 -31.303  0.00  0.00    +0.045 C 
ATOM     13  C   UNL A   1      33.185 -40.422 -30.883  0.00  0.00    +0.240 C 
ATOM     14  O   UNL A   1      32.797 -41.583 -30.766  0.00  0.00    -0.273 OA
ATOM     15  N   UNL A   1      34.509 -40.079 -30.746  0.00  0.00    -0.185 NA
ATOM     16  C   UNL A   1      34.813 -38.853 -30.453  0.00  0.00    +0.040 C 
ATOM     17  C   UNL A   1      36.304 -38.538 -30.378  0.00  0.00    -0.002 C 
ENDROOT
BRANCH   9  18
ATOM     18  N   UNL A   1      33.366 -35.353 -30.129  0.00  0.00    -0.275 NA
ATOM     19  C   UNL A   1      32.851 -34.524 -29.291  0.00  0.00    +0.031 C 
BRANCH  19  20
ATOM     20  C   UNL A   1      31.910 -33.470 -29.722  0.00  0.00    -0.007 A 
ATOM     21  C   UNL A   1      31.074 -32.881 -28.780  0.00  0.00    -0.051 A 
ATOM     22  C   UNL A   1      30.173 -31.882 -29.177  0.00  0.00    -0.040 A 
ATOM     23  C   UNL A   1      30.081 -31.433 -30.509  0.00  0.00    +0.029 A 
ATOM     24  C   UNL A   1      30.936 -32.066 -31.431  0.00  0.00    -0.040 A 
ATOM     25  C   UNL A   1      31.843 -33.064 -31.051  0.00  0.00    -0.051 A 
BRANCH  23  26
ATOM     26  N   UNL A   1      29.163 -30.451 -30.894  0.00  0.00    -0.336 N 
ATOM     27  C   UNL A   1      27.843 -30.850 -31.377  0.00  0.00    +0.000 C 
ATOM     28  C   UNL A   1      29.667 -29.179 -31.413  0.00  0.00    +0.000 C 
ENDBRANCH  23  26
ENDBRANCH  19  20
ENDBRANCH   9  18
TORSDOF 3
ENDMDL
MODEL 20
REMARK VINA RESULT:    -5.931     21.903     24.539
REMARK INTER + INTRA:          -7.667
REMARK INTER:                  -6.984
REMARK INTRA:                  -0.683
REMARK UNBOUND:                -0.696
REMARK  Name = cpd116.pdb
REMARK  7 active torsions:
REMARK  status: ('A' for Active; 'I' for Inactive)
REMARK    1  A    between atoms: C_1  and  C_2
REMARK    2  A    between atoms: C_6  and  C_7
REMARK    3  A    between atoms: C_9  and  N_10
REMARK    4  A    between atoms: C_11  and  C_12
REMARK    5  A    between atoms: C_15  and  N_16
REMARK    6  A    between atoms: N_16  and  C_17
REMARK    7  A    between atoms: N_16  and  C_18
REMARK                            x       y       z     vdW  Elec       q    Type
REMARK                         _______ _______ _______ _____ _____    ______ ____
ROOT
ATOM      1  C   UNL A   1      47.660 -21.192 -41.750  0.00  0.00    -0.046 C 
ATOM      2  C   UNL A   1      47.285 -19.811 -41.309  0.00  0.00    -0.085 C 
ATOM      3  C   UNL A   1      46.761 -19.419 -40.126  0.00  0.00    -0.035 C 
ATOM      4  C   UNL A   1      46.409 -20.373 -38.996  0.00  0.00    +0.006 C 
ATOM      5  C   UNL A   1      46.878 -19.883 -37.645  0.00  0.00    -0.077 C 
ATOM      6  C   UNL A   1      47.144 -18.597 -37.364  0.00  0.00    -0.073 C 
ATOM      7  C   UNL A   1      47.598 -18.143 -36.008  0.00  0.00    -0.044 C 
ATOM      8  C   UNL A   1      46.996 -17.524 -38.419  0.00  0.00    +0.001 C 
ATOM      9  C   UNL A   1      46.325 -17.994 -39.758  0.00  0.00    +0.113 C 
ATOM     10  C   UNL A   1      44.801 -18.000 -39.548  0.00  0.00    -0.000 C 
ATOM     11  C   UNL A   1      43.955 -17.003 -39.861  0.00  0.00    -0.068 C 
ATOM     12  C   UNL A   1      42.490 -17.062 -39.580  0.00  0.00    +0.045 C 
ATOM     13  C   UNL A   1      42.159 -18.125 -38.541  0.00  0.00    +0.240 C 
ATOM     14  O   UNL A   1      41.185 -17.984 -37.805  0.00  0.00    -0.273 OA
ATOM     15  N   UNL A   1      42.919 -19.271 -38.534  0.00  0.00    -0.185 NA
ATOM     16  C   UNL A   1      44.136 -19.220 -38.980  0.00  0.00    +0.040 C 
ATOM     17  C   UNL A   1      44.893 -20.545 -38.995  0.00  0.00    -0.002 C 
ENDROOT
BRANCH   9  18
ATOM     18  N   UNL A   1      46.610 -17.006 -40.831  0.00  0.00    -0.275 NA
ATOM     19  C   UNL A   1      47.410 -16.027 -40.595  0.00  0.00    +0.031 C 
BRANCH  19  20
ATOM     20  C   UNL A   1      47.707 -15.004 -41.617  0.00  0.00    -0.007 A 
ATOM     21  C   UNL A   1      48.880 -15.105 -42.357  0.00  0.00    -0.051 A 
ATOM     22  C   UNL A   1      49.175 -14.138 -43.329  0.00  0.00    -0.040 A 
ATOM     23  C   UNL A   1      48.319 -13.053 -43.601  0.00  0.00    +0.029 A 
ATOM     24  C   UNL A   1      47.150 -12.983 -42.819  0.00  0.00    -0.040 A 
ATOM     25  C   UNL A   1      46.839 -13.942 -41.846  0.00  0.00    -0.051 A 
BRANCH  23  26
ATOM     26  N   UNL A   1      48.637 -12.084 -44.558  0.00  0.00    -0.336 N 
ATOM     27  C   UNL A   1      47.629 -11.682 -45.537  0.00  0.00    +0.000 C 
ATOM     28  C   UNL A   1      50.028 -11.952 -44.992  0.00  0.00    +0.000 C 
ENDBRANCH  23  26
ENDBRANCH  19  20
ENDBRANCH   9  18
TORSDOF 3
ENDMDL
