REMARK  Name = cpd116.pdb
REMARK  7 active torsions:
REMARK  status: ('A' for Active; 'I' for Inactive)
REMARK    1  A    between atoms: C_1  and  C_2
REMARK    2  A    between atoms: C_6  and  C_7
REMARK    3  A    between atoms: C_9  and  N_10
REMARK    4  A    between atoms: C_11  and  C_12
REMARK    5  A    between atoms: C_15  and  N_16
REMARK    6  A    between atoms: N_16  and  C_17
REMARK    7  A    between atoms: N_16  and  C_18
REMARK                            x       y       z     vdW  Elec       q    Type
REMARK                         _______ _______ _______ _____ _____    ______ ____
ROOT
ATOM      1  C   UNL A   1       0.784  -3.349  -3.079  0.00  0.00    -0.046 C 
ATOM      2  C   UNL A   1       1.261  -2.515  -1.931  0.00  0.00    -0.085 C 
ATOM      3  C   UNL A   1       0.553  -2.053  -0.876  0.00  0.00    -0.035 C 
ATOM      4  C   UNL A   1      -0.937  -2.285  -0.687  0.00  0.00    +0.006 C 
ATOM      5  C   UNL A   1      -1.294  -2.704   0.721  0.00  0.00    -0.077 C 
ATOM      6  C   UNL A   1      -0.522  -2.464   1.794  0.00  0.00    -0.073 C 
ATOM      7  C   UNL A   1      -0.911  -2.885   3.180  0.00  0.00    -0.044 C 
ATOM      8  C   UNL A   1       0.800  -1.743   1.655  0.00  0.00    +0.001 C 
ATOM      9  C   UNL A   1       1.082  -1.135   0.235  0.00  0.00    +0.113 C 
ATOM     10  C   UNL A   1       0.337   0.208   0.139  0.00  0.00    -0.000 C 
ATOM     11  C   UNL A   1       0.857   1.421   0.397  0.00  0.00    -0.068 C 
ATOM     12  C   UNL A   1       0.056   2.679   0.330  0.00  0.00    +0.045 C 
ATOM     13  C   UNL A   1      -1.439   2.397   0.384  0.00  0.00    +0.240 C 
ATOM     14  O   UNL A   1      -2.205   3.228   0.868  0.00  0.00    -0.273 OA
ATOM     15  N   UNL A   1      -1.895   1.246  -0.213  0.00  0.00    -0.185 NA
ATOM     16  C   UNL A   1      -1.093   0.232  -0.317  0.00  0.00    +0.040 C 
ATOM     17  C   UNL A   1      -1.653  -0.986  -1.045  0.00  0.00    -0.002 C 
ENDROOT
BRANCH   9  18
ATOM     18  N   UNL A   1       2.531  -0.837   0.100  0.00  0.00    -0.275 NA
ATOM     19  C   UNL A   1       3.390  -1.780   0.265  0.00  0.00    +0.031 C 
BRANCH  19  20
ATOM     20  C   UNL A   1       4.842  -1.532   0.167  0.00  0.00    -0.007 A 
ATOM     21  C   UNL A   1       5.725  -2.590   0.354  0.00  0.00    -0.051 A 
ATOM     22  C   UNL A   1       7.107  -2.367   0.267  0.00  0.00    -0.040 A 
ATOM     23  C   UNL A   1       7.652  -1.099  -0.014  0.00  0.00    +0.029 A 
ATOM     24  C   UNL A   1       6.723  -0.055  -0.182  0.00  0.00    -0.040 A 
ATOM     25  C   UNL A   1       5.339  -0.261  -0.101  0.00  0.00    -0.051 A 
BRANCH  23  26
ATOM     26  N   UNL A   1       9.033  -0.887  -0.076  0.00  0.00    -0.336 N 
ATOM     27  C   UNL A   1       9.543   0.407  -0.526  0.00  0.00    +0.000 C 
ATOM     28  C   UNL A   1       9.912  -2.031  -0.319  0.00  0.00    +0.000 C 
ENDBRANCH  23  26
ENDBRANCH  19  20
ENDBRANCH   9  18
TORSDOF 3
