MODEL 1
REMARK VINA RESULT:    -8.410      0.000      0.000
REMARK INTER + INTRA:         -10.918
REMARK INTER:                 -10.376
REMARK INTRA:                  -0.542
REMARK UNBOUND:                -0.542
REMARK  Name = cpd344.pdb
REMARK  4 active torsions:
REMARK  status: ('A' for Active; 'I' for Inactive)
REMARK    1  A    between atoms: C_7  and  C_8
REMARK    2  A    between atoms: C_8  and  N_9
REMARK    3  A    between atoms: C_12  and  C_13
REMARK    4  A    between atoms: C_13  and  N_14
REMARK                            x       y       z     vdW  Elec       q    Type
REMARK                         _______ _______ _______ _____ _____    ______ ____
ROOT
ATOM      1  N   UNL A   1      38.117 -35.722 -31.113  0.00  0.00    -0.349 N 
ATOM      2  C   UNL A   1      37.099 -34.841 -30.988  0.00  0.00    +0.005 A 
ATOM      3  C   UNL A   1      35.805 -35.279 -30.722  0.00  0.00    -0.041 A 
ATOM      4  C   UNL A   1      35.546 -36.642 -30.571  0.00  0.00    -0.025 A 
ATOM      5  C   UNL A   1      36.629 -37.523 -30.632  0.00  0.00    -0.041 A 
ATOM      6  C   UNL A   1      37.903 -37.045 -30.917  0.00  0.00    +0.005 A 
ENDROOT
BRANCH   1   7
ATOM      7  C   UNL A   1      39.482 -35.237 -31.450  0.00  0.00    +0.049 C 
BRANCH   7  14
ATOM      8 CL   UNL A   1      41.133 -36.079 -33.976  0.00  0.00    -0.083 Cl
ATOM      9  C   UNL A   1      41.289 -36.773 -32.404  0.00  0.00    +0.046 A 
ATOM     10  C   UNL A   1      42.224 -37.799 -32.242  0.00  0.00    -0.043 A 
ATOM     11  C   UNL A   1      42.409 -38.387 -30.993  0.00  0.00    -0.060 A 
ATOM     12  C   UNL A   1      41.664 -37.949 -29.903  0.00  0.00    -0.061 A 
ATOM     13  C   UNL A   1      40.728 -36.925 -30.060  0.00  0.00    -0.055 A 
ATOM     14  C   UNL A   1      40.518 -36.326 -31.316  0.00  0.00    -0.009 A 
ENDBRANCH   7  14
ENDBRANCH   1   7
BRANCH   4  15
ATOM     15  C   UNL A   1      34.123 -37.116 -30.328  0.00  0.00    +0.049 C 
BRANCH  15  16
ATOM     16  N   UNL A   1      33.518 -36.506 -29.145  0.00  0.00    -0.339 N 
ATOM     17  C   UNL A   1      32.702 -35.401 -29.141  0.00  0.00    +0.023 A 
ATOM     18  C   UNL A   1      32.355 -35.130 -27.832  0.00  0.00    -0.019 A 
ATOM     19  C   UNL A   1      32.992 -36.092 -27.005  0.00  0.00    +0.003 A 
ATOM     20  C   UNL A   1      33.026 -36.313 -25.613  0.00  0.00    -0.052 A 
ATOM     21  C   UNL A   1      33.753 -37.391 -25.101  0.00  0.00    -0.061 A 
ATOM     22  C   UNL A   1      34.437 -38.250 -25.954  0.00  0.00    -0.060 A 
ATOM     23  C   UNL A   1      34.420 -38.055 -27.338  0.00  0.00    -0.038 A 
ATOM     24  C   UNL A   1      33.696 -36.961 -27.846  0.00  0.00    +0.050 A 
ATOM     25  C   UNL A   1      31.459 -33.997 -27.450  0.00  0.00    -0.025 C 
ATOM     26  C   UNL A   1      30.661 -33.491 -28.665  0.00  0.00    -0.049 C 
ATOM     27  C   UNL A   1      31.556 -33.325 -29.905  0.00  0.00    -0.047 C 
ATOM     28  C   UNL A   1      32.212 -34.649 -30.336  0.00  0.00    -0.012 C 
ENDBRANCH  15  16
ENDBRANCH   4  15
TORSDOF 4
ENDMDL
MODEL 2
REMARK VINA RESULT:    -7.918     16.279     18.539
REMARK INTER + INTRA:         -10.311
REMARK INTER:                  -9.293
REMARK INTRA:                  -1.018
REMARK UNBOUND:                -0.542
REMARK  Name = cpd344.pdb
REMARK  4 active torsions:
REMARK  status: ('A' for Active; 'I' for Inactive)
REMARK    1  A    between atoms: C_7  and  C_8
REMARK    2  A    between atoms: C_8  and  N_9
REMARK    3  A    between atoms: C_12  and  C_13
REMARK    4  A    between atoms: C_13  and  N_14
REMARK                            x       y       z     vdW  Elec       q    Type
REMARK                         _______ _______ _______ _____ _____    ______ ____
ROOT
ATOM      1  N   UNL A   1      43.539 -20.752 -39.968  0.00  0.00    -0.349 N 
ATOM      2  C   UNL A   1      42.485 -21.244 -40.657  0.00  0.00    +0.005 A 
ATOM      3  C   UNL A   1      41.370 -21.747 -39.993  0.00  0.00    -0.041 A 
ATOM      4  C   UNL A   1      41.325 -21.738 -38.597  0.00  0.00    -0.025 A 
ATOM      5  C   UNL A   1      42.396 -21.156 -37.913  0.00  0.00    -0.041 A 
ATOM      6  C   UNL A   1      43.498 -20.682 -38.616  0.00  0.00    +0.005 A 
ENDROOT
BRANCH   1   7
ATOM      7  C   UNL A   1      44.742 -20.269 -40.696  0.00  0.00    +0.049 C 
BRANCH   7  14
ATOM      8 CL   UNL A   1      46.877 -21.248 -38.624  0.00  0.00    -0.083 Cl
ATOM      9  C   UNL A   1      46.661 -21.887 -40.212  0.00  0.00    +0.046 A 
ATOM     10  C   UNL A   1      47.510 -22.922 -40.611  0.00  0.00    -0.043 A 
ATOM     11  C   UNL A   1      47.373 -23.491 -41.875  0.00  0.00    -0.060 A 
ATOM     12  C   UNL A   1      46.386 -23.031 -42.740  0.00  0.00    -0.061 A 
ATOM     13  C   UNL A   1      45.536 -21.996 -42.346  0.00  0.00    -0.055 A 
ATOM     14  C   UNL A   1      45.665 -21.400 -41.077  0.00  0.00    -0.009 A 
ENDBRANCH   7  14
ENDBRANCH   1   7
BRANCH   4  15
ATOM     15  C   UNL A   1      40.126 -22.332 -37.879  0.00  0.00    +0.049 C 
BRANCH  15  16
ATOM     16  N   UNL A   1      39.656 -21.495 -36.776  0.00  0.00    -0.339 N 
ATOM     17  C   UNL A   1      39.755 -21.798 -35.440  0.00  0.00    +0.023 A 
ATOM     18  C   UNL A   1      39.180 -20.767 -34.723  0.00  0.00    -0.019 A 
ATOM     19  C   UNL A   1      38.699 -19.807 -35.652  0.00  0.00    +0.003 A 
ATOM     20  C   UNL A   1      38.023 -18.577 -35.521  0.00  0.00    -0.052 A 
ATOM     21  C   UNL A   1      37.698 -17.841 -36.664  0.00  0.00    -0.061 A 
ATOM     22  C   UNL A   1      38.044 -18.310 -37.927  0.00  0.00    -0.060 A 
ATOM     23  C   UNL A   1      38.716 -19.525 -38.085  0.00  0.00    -0.038 A 
ATOM     24  C   UNL A   1      39.029 -20.267 -36.931  0.00  0.00    +0.050 A 
ATOM     25  C   UNL A   1      39.120 -20.754 -33.230  0.00  0.00    -0.025 C 
ATOM     26  C   UNL A   1      40.125 -21.753 -32.629  0.00  0.00    -0.049 C 
ATOM     27  C   UNL A   1      40.077 -23.112 -33.348  0.00  0.00    -0.047 C 
ATOM     28  C   UNL A   1      40.420 -22.997 -34.843  0.00  0.00    -0.012 C 
ENDBRANCH  15  16
ENDBRANCH   4  15
TORSDOF 4
ENDMDL
MODEL 3
REMARK VINA RESULT:    -7.914     17.594     21.243
REMARK INTER + INTRA:         -10.307
REMARK INTER:                  -9.164
REMARK INTRA:                  -1.142
REMARK UNBOUND:                -0.542
REMARK  Name = cpd344.pdb
REMARK  4 active torsions:
REMARK  status: ('A' for Active; 'I' for Inactive)
REMARK    1  A    between atoms: C_7  and  C_8
REMARK    2  A    between atoms: C_8  and  N_9
REMARK    3  A    between atoms: C_12  and  C_13
REMARK    4  A    between atoms: C_13  and  N_14
REMARK                            x       y       z     vdW  Elec       q    Type
REMARK                         _______ _______ _______ _____ _____    ______ ____
ROOT
ATOM      1  N   UNL A   1      42.884 -19.678 -34.356  0.00  0.00    -0.349 N 
ATOM      2  C   UNL A   1      44.039 -19.354 -33.731  0.00  0.00    +0.005 A 
ATOM      3  C   UNL A   1      45.264 -19.494 -34.376  0.00  0.00    -0.041 A 
ATOM      4  C   UNL A   1      45.312 -19.965 -35.690  0.00  0.00    -0.025 A 
ATOM      5  C   UNL A   1      44.100 -20.221 -36.336  0.00  0.00    -0.041 A 
ATOM      6  C   UNL A   1      42.899 -20.084 -35.648  0.00  0.00    +0.005 A 
ENDROOT
BRANCH   1   7
ATOM      7  C   UNL A   1      41.591 -19.571 -33.630  0.00  0.00    +0.049 C 
BRANCH   7  14
ATOM      8 CL   UNL A   1      39.172 -19.966 -35.581  0.00  0.00    -0.083 Cl
ATOM      9  C   UNL A   1      39.737 -21.132 -34.441  0.00  0.00    +0.046 A 
ATOM     10  C   UNL A   1      39.058 -22.351 -34.378  0.00  0.00    -0.043 A 
ATOM     11  C   UNL A   1      39.476 -23.340 -33.490  0.00  0.00    -0.060 A 
ATOM     12  C   UNL A   1      40.577 -23.114 -32.669  0.00  0.00    -0.061 A 
ATOM     13  C   UNL A   1      41.258 -21.897 -32.729  0.00  0.00    -0.055 A 
ATOM     14  C   UNL A   1      40.843 -20.881 -33.611  0.00  0.00    -0.009 A 
ENDBRANCH   7  14
ENDBRANCH   1   7
BRANCH   4  15
ATOM     15  C   UNL A   1      46.655 -20.161 -36.371  0.00  0.00    +0.049 C 
BRANCH  15  16
ATOM     16  N   UNL A   1      46.719 -19.529 -37.688  0.00  0.00    -0.339 N 
ATOM     17  C   UNL A   1      46.896 -18.189 -37.927  0.00  0.00    +0.023 A 
ATOM     18  C   UNL A   1      46.881 -17.991 -39.294  0.00  0.00    -0.019 A 
ATOM     19  C   UNL A   1      46.672 -19.252 -39.913  0.00  0.00    +0.003 A 
ATOM     20  C   UNL A   1      46.552 -19.672 -41.253  0.00  0.00    -0.052 A 
ATOM     21  C   UNL A   1      46.366 -21.028 -41.538  0.00  0.00    -0.061 A 
ATOM     22  C   UNL A   1      46.306 -21.964 -40.512  0.00  0.00    -0.060 A 
ATOM     23  C   UNL A   1      46.424 -21.574 -39.175  0.00  0.00    -0.038 A 
ATOM     24  C   UNL A   1      46.599 -20.207 -38.894  0.00  0.00    +0.050 A 
ATOM     25  C   UNL A   1      47.059 -16.646 -39.920  0.00  0.00    -0.025 C 
ATOM     26  C   UNL A   1      47.680 -15.652 -38.923  0.00  0.00    -0.049 C 
ATOM     27  C   UNL A   1      47.001 -15.729 -37.544  0.00  0.00    -0.047 C 
ATOM     28  C   UNL A   1      47.129 -17.123 -36.905  0.00  0.00    -0.012 C 
ENDBRANCH  15  16
ENDBRANCH   4  15
TORSDOF 4
ENDMDL
MODEL 4
REMARK VINA RESULT:    -7.774      3.039      8.428
REMARK INTER + INTRA:         -10.134
REMARK INTER:                  -9.076
REMARK INTRA:                  -1.059
REMARK UNBOUND:                -0.542
REMARK  Name = cpd344.pdb
REMARK  4 active torsions:
REMARK  status: ('A' for Active; 'I' for Inactive)
REMARK    1  A    between atoms: C_7  and  C_8
REMARK    2  A    between atoms: C_8  and  N_9
REMARK    3  A    between atoms: C_12  and  C_13
REMARK    4  A    between atoms: C_13  and  N_14
REMARK                            x       y       z     vdW  Elec       q    Type
REMARK                         _______ _______ _______ _____ _____    ______ ____
ROOT
ATOM      1  N   UNL A   1      32.367 -33.908 -29.184  0.00  0.00    -0.349 N 
ATOM      2  C   UNL A   1      31.747 -34.769 -30.022  0.00  0.00    +0.005 A 
ATOM      3  C   UNL A   1      32.479 -35.659 -30.802  0.00  0.00    -0.041 A 
ATOM      4  C   UNL A   1      33.873 -35.679 -30.718  0.00  0.00    -0.025 A 
ATOM      5  C   UNL A   1      34.483 -34.830 -29.790  0.00  0.00    -0.041 A 
ATOM      6  C   UNL A   1      33.713 -33.944 -29.043  0.00  0.00    +0.005 A 
ENDROOT
BRANCH   1   7
ATOM      7  C   UNL A   1      31.569 -32.930 -28.399  0.00  0.00    +0.049 C 
BRANCH   7  14
ATOM      8 CL   UNL A   1      32.765 -30.837 -30.399  0.00  0.00    -0.083 Cl
ATOM      9  C   UNL A   1      31.084 -31.165 -30.184  0.00  0.00    +0.046 A 
ATOM     10  C   UNL A   1      30.181 -30.436 -30.961  0.00  0.00    -0.043 A 
ATOM     11  C   UNL A   1      28.812 -30.668 -30.845  0.00  0.00    -0.060 A 
ATOM     12  C   UNL A   1      28.345 -31.632 -29.958  0.00  0.00    -0.061 A 
ATOM     13  C   UNL A   1      29.244 -32.363 -29.179  0.00  0.00    -0.055 A 
ATOM     14  C   UNL A   1      30.630 -32.135 -29.273  0.00  0.00    -0.009 A 
ENDBRANCH   7  14
ENDBRANCH   1   7
BRANCH   4  15
ATOM     15  C   UNL A   1      34.668 -36.619 -31.607  0.00  0.00    +0.049 C 
BRANCH  15  16
ATOM     16  N   UNL A   1      35.839 -37.178 -30.934  0.00  0.00    -0.339 N 
ATOM     17  C   UNL A   1      35.839 -38.265 -30.095  0.00  0.00    +0.023 A 
ATOM     18  C   UNL A   1      37.133 -38.464 -29.652  0.00  0.00    -0.019 A 
ATOM     19  C   UNL A   1      37.949 -37.454 -30.226  0.00  0.00    +0.003 A 
ATOM     20  C   UNL A   1      39.320 -37.139 -30.134  0.00  0.00    -0.052 A 
ATOM     21  C   UNL A   1      39.832 -36.061 -30.861  0.00  0.00    -0.061 A 
ATOM     22  C   UNL A   1      39.001 -35.303 -31.680  0.00  0.00    -0.060 A 
ATOM     23  C   UNL A   1      37.639 -35.595 -31.790  0.00  0.00    -0.038 A 
ATOM     24  C   UNL A   1      37.127 -36.674 -31.046  0.00  0.00    +0.050 A 
ATOM     25  C   UNL A   1      37.509 -39.575 -28.726  0.00  0.00    -0.025 C 
ATOM     26  C   UNL A   1      36.425 -40.666 -28.704  0.00  0.00    -0.049 C 
ATOM     27  C   UNL A   1      35.014 -40.065 -28.583  0.00  0.00    -0.047 C 
ATOM     28  C   UNL A   1      34.670 -39.134 -29.759  0.00  0.00    -0.012 C 
ENDBRANCH  15  16
ENDBRANCH   4  15
TORSDOF 4
ENDMDL
MODEL 5
REMARK VINA RESULT:    -7.712     16.356     18.379
REMARK INTER + INTRA:         -10.057
REMARK INTER:                  -9.048
REMARK INTRA:                  -1.009
REMARK UNBOUND:                -0.542
REMARK  Name = cpd344.pdb
REMARK  4 active torsions:
REMARK  status: ('A' for Active; 'I' for Inactive)
REMARK    1  A    between atoms: C_7  and  C_8
REMARK    2  A    between atoms: C_8  and  N_9
REMARK    3  A    between atoms: C_12  and  C_13
REMARK    4  A    between atoms: C_13  and  N_14
REMARK                            x       y       z     vdW  Elec       q    Type
REMARK                         _______ _______ _______ _____ _____    ______ ____
ROOT
ATOM      1  N   UNL A   1      43.587 -20.711 -39.971  0.00  0.00    -0.349 N 
ATOM      2  C   UNL A   1      42.494 -21.178 -40.616  0.00  0.00    +0.005 A 
ATOM      3  C   UNL A   1      41.389 -21.639 -39.906  0.00  0.00    -0.041 A 
ATOM      4  C   UNL A   1      41.395 -21.616 -38.510  0.00  0.00    -0.025 A 
ATOM      5  C   UNL A   1      42.507 -21.060 -37.872  0.00  0.00    -0.041 A 
ATOM      6  C   UNL A   1      43.597 -20.626 -38.620  0.00  0.00    +0.005 A 
ENDROOT
BRANCH   1   7
ATOM      7  C   UNL A   1      44.776 -20.272 -40.747  0.00  0.00    +0.049 C 
BRANCH   7  14
ATOM      8 CL   UNL A   1      46.975 -21.005 -38.640  0.00  0.00    -0.083 Cl
ATOM      9  C   UNL A   1      46.739 -21.798 -40.154  0.00  0.00    +0.046 A 
ATOM     10  C   UNL A   1      47.602 -22.850 -40.472  0.00  0.00    -0.043 A 
ATOM     11  C   UNL A   1      47.451 -23.541 -41.672  0.00  0.00    -0.060 A 
ATOM     12  C   UNL A   1      46.436 -23.185 -42.554  0.00  0.00    -0.061 A 
ATOM     13  C   UNL A   1      45.572 -22.133 -42.242  0.00  0.00    -0.055 A 
ATOM     14  C   UNL A   1      45.715 -21.416 -41.039  0.00  0.00    -0.009 A 
ENDBRANCH   7  14
ENDBRANCH   1   7
BRANCH   4  15
ATOM     15  C   UNL A   1      40.206 -22.166 -37.743  0.00  0.00    +0.049 C 
BRANCH  15  16
ATOM     16  N   UNL A   1      39.816 -21.316 -36.618  0.00  0.00    -0.339 N 
ATOM     17  C   UNL A   1      39.225 -20.080 -36.714  0.00  0.00    +0.023 A 
ATOM     18  C   UNL A   1      39.033 -19.596 -35.434  0.00  0.00    -0.019 A 
ATOM     19  C   UNL A   1      39.539 -20.562 -34.524  0.00  0.00    +0.003 A 
ATOM     20  C   UNL A   1      39.634 -20.622 -33.120  0.00  0.00    -0.052 A 
ATOM     21  C   UNL A   1      40.183 -21.754 -32.511  0.00  0.00    -0.061 A 
ATOM     22  C   UNL A   1      40.627 -22.824 -33.281  0.00  0.00    -0.060 A 
ATOM     23  C   UNL A   1      40.543 -22.790 -34.676  0.00  0.00    -0.038 A 
ATOM     24  C   UNL A   1      40.002 -21.643 -35.282  0.00  0.00    +0.050 A 
ATOM     25  C   UNL A   1      38.397 -18.273 -35.156  0.00  0.00    -0.025 C 
ATOM     26  C   UNL A   1      37.620 -17.765 -36.383  0.00  0.00    -0.049 C 
ATOM     27  C   UNL A   1      38.435 -17.923 -37.679  0.00  0.00    -0.047 C 
ATOM     28  C   UNL A   1      38.797 -19.390 -37.969  0.00  0.00    -0.012 C 
ENDBRANCH  15  16
ENDBRANCH   4  15
TORSDOF 4
ENDMDL
MODEL 6
REMARK VINA RESULT:    -7.670     16.633     20.310
REMARK INTER + INTRA:         -10.005
REMARK INTER:                  -9.010
REMARK INTRA:                  -0.996
REMARK UNBOUND:                -0.542
REMARK  Name = cpd344.pdb
REMARK  4 active torsions:
REMARK  status: ('A' for Active; 'I' for Inactive)
REMARK    1  A    between atoms: C_7  and  C_8
REMARK    2  A    between atoms: C_8  and  N_9
REMARK    3  A    between atoms: C_12  and  C_13
REMARK    4  A    between atoms: C_13  and  N_14
REMARK                            x       y       z     vdW  Elec       q    Type
REMARK                         _______ _______ _______ _____ _____    ______ ____
ROOT
ATOM      1  N   UNL A   1      40.254 -21.237 -37.728  0.00  0.00    -0.349 N 
ATOM      2  C   UNL A   1      40.292 -19.968 -38.195  0.00  0.00    +0.005 A 
ATOM      3  C   UNL A   1      41.248 -19.579 -39.129  0.00  0.00    -0.041 A 
ATOM      4  C   UNL A   1      42.179 -20.506 -39.603  0.00  0.00    -0.025 A 
ATOM      5  C   UNL A   1      42.070 -21.826 -39.159  0.00  0.00    -0.041 A 
ATOM      6  C   UNL A   1      41.110 -22.168 -38.212  0.00  0.00    +0.005 A 
ENDROOT
BRANCH   1   7
ATOM      7  C   UNL A   1      39.259 -21.617 -36.691  0.00  0.00    +0.049 C 
BRANCH   7  14
ATOM      8 CL   UNL A   1      38.308 -23.945 -34.823  0.00  0.00    -0.083 Cl
ATOM      9  C   UNL A   1      39.507 -22.770 -34.424  0.00  0.00    +0.046 A 
ATOM     10  C   UNL A   1      40.101 -22.859 -33.162  0.00  0.00    -0.043 A 
ATOM     11  C   UNL A   1      41.088 -21.951 -32.787  0.00  0.00    -0.060 A 
ATOM     12  C   UNL A   1      41.487 -20.956 -33.674  0.00  0.00    -0.061 A 
ATOM     13  C   UNL A   1      40.896 -20.862 -34.935  0.00  0.00    -0.055 A 
ATOM     14  C   UNL A   1      39.889 -21.764 -35.328  0.00  0.00    -0.009 A 
ENDBRANCH   7  14
ENDBRANCH   1   7
BRANCH   4  15
ATOM     15  C   UNL A   1      43.248 -20.062 -40.585  0.00  0.00    +0.049 C 
BRANCH  15  16
ATOM     16  N   UNL A   1      44.603 -20.326 -40.103  0.00  0.00    -0.339 N 
ATOM     17  C   UNL A   1      45.515 -21.167 -40.692  0.00  0.00    +0.023 A 
ATOM     18  C   UNL A   1      46.665 -21.156 -39.926  0.00  0.00    -0.019 A 
ATOM     19  C   UNL A   1      46.444 -20.292 -38.822  0.00  0.00    +0.003 A 
ATOM     20  C   UNL A   1      47.228 -19.900 -37.718  0.00  0.00    -0.052 A 
ATOM     21  C   UNL A   1      46.711 -18.991 -36.791  0.00  0.00    -0.061 A 
ATOM     22  C   UNL A   1      45.434 -18.465 -36.953  0.00  0.00    -0.060 A 
ATOM     23  C   UNL A   1      44.637 -18.835 -38.040  0.00  0.00    -0.038 A 
ATOM     24  C   UNL A   1      45.157 -19.760 -38.963  0.00  0.00    +0.050 A 
ATOM     25  C   UNL A   1      47.879 -21.953 -40.279  0.00  0.00    -0.025 C 
ATOM     26  C   UNL A   1      47.842 -22.393 -41.753  0.00  0.00    -0.049 C 
ATOM     27  C   UNL A   1      46.464 -22.954 -42.145  0.00  0.00    -0.047 C 
ATOM     28  C   UNL A   1      45.338 -21.920 -41.971  0.00  0.00    -0.012 C 
ENDBRANCH  15  16
ENDBRANCH   4  15
TORSDOF 4
ENDMDL
MODEL 7
REMARK VINA RESULT:    -7.663     17.168     20.837
REMARK INTER + INTRA:          -9.997
REMARK INTER:                  -9.199
REMARK INTRA:                  -0.798
REMARK UNBOUND:                -0.542
REMARK  Name = cpd344.pdb
REMARK  4 active torsions:
REMARK  status: ('A' for Active; 'I' for Inactive)
REMARK    1  A    between atoms: C_7  and  C_8
REMARK    2  A    between atoms: C_8  and  N_9
REMARK    3  A    between atoms: C_12  and  C_13
REMARK    4  A    between atoms: C_13  and  N_14
REMARK                            x       y       z     vdW  Elec       q    Type
REMARK                         _______ _______ _______ _____ _____    ______ ____
ROOT
ATOM      1  N   UNL A   1      40.535 -21.697 -36.705  0.00  0.00    -0.349 N 
ATOM      2  C   UNL A   1      40.843 -21.569 -38.016  0.00  0.00    +0.005 A 
ATOM      3  C   UNL A   1      42.075 -21.061 -38.414  0.00  0.00    -0.041 A 
ATOM      4  C   UNL A   1      43.018 -20.683 -37.455  0.00  0.00    -0.025 A 
ATOM      5  C   UNL A   1      42.702 -20.895 -36.111  0.00  0.00    -0.041 A 
ATOM      6  C   UNL A   1      41.451 -21.390 -35.757  0.00  0.00    +0.005 A 
ENDROOT
BRANCH   1   7
ATOM      7  C   UNL A   1      39.193 -22.193 -36.302  0.00  0.00    +0.049 C 
BRANCH   7  14
ATOM      8 CL   UNL A   1      38.520 -23.822 -33.712  0.00  0.00    -0.083 Cl
ATOM      9  C   UNL A   1      38.315 -22.119 -33.903  0.00  0.00    +0.046 A 
ATOM     10  C   UNL A   1      37.802 -21.407 -32.816  0.00  0.00    -0.043 A 
ATOM     11  C   UNL A   1      37.630 -20.027 -32.902  0.00  0.00    -0.060 A 
ATOM     12  C   UNL A   1      37.975 -19.357 -34.071  0.00  0.00    -0.061 A 
ATOM     13  C   UNL A   1      38.487 -20.065 -35.160  0.00  0.00    -0.055 A 
ATOM     14  C   UNL A   1      38.657 -21.461 -35.097  0.00  0.00    -0.009 A 
ENDBRANCH   7  14
ENDBRANCH   1   7
BRANCH   4  15
ATOM     15  C   UNL A   1      44.342 -20.084 -37.896  0.00  0.00    +0.049 C 
BRANCH  15  16
ATOM     16  N   UNL A   1      44.346 -19.698 -39.306  0.00  0.00    -0.339 N 
ATOM     17  C   UNL A   1      44.791 -20.473 -40.349  0.00  0.00    +0.023 A 
ATOM     18  C   UNL A   1      44.646 -19.747 -41.515  0.00  0.00    -0.019 A 
ATOM     19  C   UNL A   1      44.108 -18.478 -41.174  0.00  0.00    +0.003 A 
ATOM     20  C   UNL A   1      43.763 -17.333 -41.918  0.00  0.00    -0.052 A 
ATOM     21  C   UNL A   1      43.222 -16.221 -41.266  0.00  0.00    -0.061 A 
ATOM     22  C   UNL A   1      43.015 -16.240 -39.891  0.00  0.00    -0.060 A 
ATOM     23  C   UNL A   1      43.347 -17.364 -39.130  0.00  0.00    -0.038 A 
ATOM     24  C   UNL A   1      43.903 -18.474 -39.789  0.00  0.00    +0.050 A 
ATOM     25  C   UNL A   1      45.020 -20.288 -42.857  0.00  0.00    -0.025 C 
ATOM     26  C   UNL A   1      45.147 -21.821 -42.819  0.00  0.00    -0.049 C 
ATOM     27  C   UNL A   1      45.947 -22.296 -41.594  0.00  0.00    -0.047 C 
ATOM     28  C   UNL A   1      45.289 -21.880 -40.266  0.00  0.00    -0.012 C 
ENDBRANCH  15  16
ENDBRANCH   4  15
TORSDOF 4
ENDMDL
MODEL 8
REMARK VINA RESULT:    -7.543     17.742     20.185
REMARK INTER + INTRA:          -9.849
REMARK INTER:                  -8.837
REMARK INTRA:                  -1.012
REMARK UNBOUND:                -0.542
REMARK  Name = cpd344.pdb
REMARK  4 active torsions:
REMARK  status: ('A' for Active; 'I' for Inactive)
REMARK    1  A    between atoms: C_7  and  C_8
REMARK    2  A    between atoms: C_8  and  N_9
REMARK    3  A    between atoms: C_12  and  C_13
REMARK    4  A    between atoms: C_13  and  N_14
REMARK                            x       y       z     vdW  Elec       q    Type
REMARK                         _______ _______ _______ _____ _____    ______ ____
ROOT
ATOM      1  N   UNL A   1      45.744 -19.412 -38.453  0.00  0.00    -0.349 N 
ATOM      2  C   UNL A   1      44.517 -19.885 -38.136  0.00  0.00    +0.005 A 
ATOM      3  C   UNL A   1      44.176 -20.154 -36.814  0.00  0.00    -0.041 A 
ATOM      4  C   UNL A   1      45.101 -19.927 -35.793  0.00  0.00    -0.025 A 
ATOM      5  C   UNL A   1      46.334 -19.369 -36.142  0.00  0.00    -0.041 A 
ATOM      6  C   UNL A   1      46.640 -19.132 -37.478  0.00  0.00    +0.005 A 
ENDROOT
BRANCH   1   7
ATOM      7  C   UNL A   1      46.105 -19.182 -39.877  0.00  0.00    +0.049 C 
BRANCH   7  14
ATOM      8 CL   UNL A   1      44.496 -19.534 -42.542  0.00  0.00    -0.083 Cl
ATOM      9  C   UNL A   1      45.536 -20.719 -41.838  0.00  0.00    +0.046 A 
ATOM     10  C   UNL A   1      45.669 -21.938 -42.508  0.00  0.00    -0.043 A 
ATOM     11  C   UNL A   1      46.508 -22.928 -42.000  0.00  0.00    -0.060 A 
ATOM     12  C   UNL A   1      47.218 -22.699 -40.826  0.00  0.00    -0.061 A 
ATOM     13  C   UNL A   1      47.088 -21.482 -40.153  0.00  0.00    -0.055 A 
ATOM     14  C   UNL A   1      46.237 -20.474 -40.644  0.00  0.00    -0.009 A 
ENDBRANCH   7  14
ENDBRANCH   1   7
BRANCH   4  15
ATOM     15  C   UNL A   1      44.739 -20.269 -34.359  0.00  0.00    +0.049 C 
BRANCH  15  16
ATOM     16  N   UNL A   1      43.676 -19.417 -33.826  0.00  0.00    -0.339 N 
ATOM     17  C   UNL A   1      42.405 -19.826 -33.505  0.00  0.00    +0.023 A 
ATOM     18  C   UNL A   1      41.702 -18.726 -33.054  0.00  0.00    -0.019 A 
ATOM     19  C   UNL A   1      42.567 -17.602 -33.116  0.00  0.00    +0.003 A 
ATOM     20  C   UNL A   1      42.414 -16.235 -32.808  0.00  0.00    -0.052 A 
ATOM     21  C   UNL A   1      43.497 -15.365 -32.964  0.00  0.00    -0.061 A 
ATOM     22  C   UNL A   1      44.725 -15.839 -33.413  0.00  0.00    -0.060 A 
ATOM     23  C   UNL A   1      44.904 -17.190 -33.724  0.00  0.00    -0.038 A 
ATOM     24  C   UNL A   1      43.807 -18.058 -33.577  0.00  0.00    +0.050 A 
ATOM     25  C   UNL A   1      40.280 -18.803 -32.603  0.00  0.00    -0.025 C 
ATOM     26  C   UNL A   1      39.877 -20.256 -32.294  0.00  0.00    -0.049 C 
ATOM     27  C   UNL A   1      40.346 -21.223 -33.395  0.00  0.00    -0.047 C 
ATOM     28  C   UNL A   1      41.875 -21.222 -33.565  0.00  0.00    -0.012 C 
ENDBRANCH  15  16
ENDBRANCH   4  15
TORSDOF 4
ENDMDL
MODEL 9
REMARK VINA RESULT:    -7.532     18.424     21.181
REMARK INTER + INTRA:          -9.835
REMARK INTER:                  -8.794
REMARK INTRA:                  -1.041
REMARK UNBOUND:                -0.542
REMARK  Name = cpd344.pdb
REMARK  4 active torsions:
REMARK  status: ('A' for Active; 'I' for Inactive)
REMARK    1  A    between atoms: C_7  and  C_8
REMARK    2  A    between atoms: C_8  and  N_9
REMARK    3  A    between atoms: C_12  and  C_13
REMARK    4  A    between atoms: C_13  and  N_14
REMARK                            x       y       z     vdW  Elec       q    Type
REMARK                         _______ _______ _______ _____ _____    ______ ____
ROOT
ATOM      1  N   UNL A   1      44.473 -19.855 -41.584  0.00  0.00    -0.349 N 
ATOM      2  C   UNL A   1      43.993 -20.559 -40.534  0.00  0.00    +0.005 A 
ATOM      3  C   UNL A   1      43.436 -19.912 -39.436  0.00  0.00    -0.041 A 
ATOM      4  C   UNL A   1      43.359 -18.517 -39.411  0.00  0.00    -0.025 A 
ATOM      5  C   UNL A   1      43.795 -17.820 -40.540  0.00  0.00    -0.041 A 
ATOM      6  C   UNL A   1      44.361 -18.506 -41.610  0.00  0.00    +0.005 A 
ENDROOT
BRANCH   1   7
ATOM      7  C   UNL A   1      45.112 -20.564 -42.724  0.00  0.00    +0.049 C 
BRANCH   7  14
ATOM      8 CL   UNL A   1      47.581 -19.182 -41.381  0.00  0.00    -0.083 Cl
ATOM      9  C   UNL A   1      47.427 -20.874 -41.685  0.00  0.00    +0.046 A 
ATOM     10  C   UNL A   1      48.491 -21.696 -41.307  0.00  0.00    -0.043 A 
ATOM     11  C   UNL A   1      48.419 -23.072 -41.511  0.00  0.00    -0.060 A 
ATOM     12  C   UNL A   1      47.282 -23.629 -42.087  0.00  0.00    -0.061 A 
ATOM     13  C   UNL A   1      46.216 -22.811 -42.467  0.00  0.00    -0.055 A 
ATOM     14  C   UNL A   1      46.275 -21.417 -42.280  0.00  0.00    -0.009 A 
ENDBRANCH   7  14
ENDBRANCH   1   7
BRANCH   4  15
ATOM     15  C   UNL A   1      42.794 -17.816 -38.188  0.00  0.00    +0.049 C 
BRANCH  15  16
ATOM     16  N   UNL A   1      43.431 -18.247 -36.945  0.00  0.00    -0.339 N 
ATOM     17  C   UNL A   1      42.817 -18.931 -35.924  0.00  0.00    +0.023 A 
ATOM     18  C   UNL A   1      43.748 -19.134 -34.924  0.00  0.00    -0.019 A 
ATOM     19  C   UNL A   1      44.969 -18.542 -35.339  0.00  0.00    +0.003 A 
ATOM     20  C   UNL A   1      46.242 -18.416 -34.749  0.00  0.00    -0.052 A 
ATOM     21  C   UNL A   1      47.269 -17.774 -35.448  0.00  0.00    -0.061 A 
ATOM     22  C   UNL A   1      47.045 -17.265 -36.722  0.00  0.00    -0.060 A 
ATOM     23  C   UNL A   1      45.791 -17.377 -37.331  0.00  0.00    -0.038 A 
ATOM     24  C   UNL A   1      44.759 -18.013 -36.618  0.00  0.00    +0.050 A 
ATOM     25  C   UNL A   1      43.429 -19.862 -33.658  0.00  0.00    -0.025 C 
ATOM     26  C   UNL A   1      42.146 -20.697 -33.809  0.00  0.00    -0.049 C 
ATOM     27  C   UNL A   1      41.022 -19.896 -34.491  0.00  0.00    -0.047 C 
ATOM     28  C   UNL A   1      41.409 -19.432 -35.906  0.00  0.00    -0.012 C 
ENDBRANCH  15  16
ENDBRANCH   4  15
TORSDOF 4
ENDMDL
MODEL 10
REMARK VINA RESULT:    -7.516      3.610      8.492
REMARK INTER + INTRA:          -9.816
REMARK INTER:                  -8.698
REMARK INTRA:                  -1.118
REMARK UNBOUND:                -0.542
REMARK  Name = cpd344.pdb
REMARK  4 active torsions:
REMARK  status: ('A' for Active; 'I' for Inactive)
REMARK    1  A    between atoms: C_7  and  C_8
REMARK    2  A    between atoms: C_8  and  N_9
REMARK    3  A    between atoms: C_12  and  C_13
REMARK    4  A    between atoms: C_13  and  N_14
REMARK                            x       y       z     vdW  Elec       q    Type
REMARK                         _______ _______ _______ _____ _____    ______ ____
ROOT
ATOM      1  N   UNL A   1      33.220 -36.636 -24.601  0.00  0.00    -0.349 N 
ATOM      2  C   UNL A   1      32.281 -36.064 -25.388  0.00  0.00    +0.005 A 
ATOM      3  C   UNL A   1      32.316 -36.220 -26.770  0.00  0.00    -0.041 A 
ATOM      4  C   UNL A   1      33.324 -36.985 -27.362  0.00  0.00    -0.025 A 
ATOM      5  C   UNL A   1      34.237 -37.625 -26.519  0.00  0.00    -0.041 A 
ATOM      6  C   UNL A   1      34.175 -37.427 -25.143  0.00  0.00    +0.005 A 
ENDROOT
BRANCH   1   7
ATOM      7  C   UNL A   1      33.194 -36.412 -23.131  0.00  0.00    +0.049 C 
BRANCH   7  14
ATOM      8 CL   UNL A   1      35.277 -37.072 -20.886  0.00  0.00    -0.083 Cl
ATOM      9  C   UNL A   1      33.959 -38.083 -21.354  0.00  0.00    +0.046 A 
ATOM     10  C   UNL A   1      33.809 -39.298 -20.681  0.00  0.00    -0.043 A 
ATOM     11  C   UNL A   1      32.754 -40.150 -21.001  0.00  0.00    -0.060 A 
ATOM     12  C   UNL A   1      31.845 -39.786 -21.990  0.00  0.00    -0.061 A 
ATOM     13  C   UNL A   1      31.991 -38.573 -22.665  0.00  0.00    -0.055 A 
ATOM     14  C   UNL A   1      33.057 -37.704 -22.364  0.00  0.00    -0.009 A 
ENDBRANCH   7  14
ENDBRANCH   1   7
BRANCH   4  15
ATOM     15  C   UNL A   1      33.383 -37.112 -28.873  0.00  0.00    +0.049 C 
BRANCH  15  16
ATOM     16  N   UNL A   1      34.377 -36.225 -29.477  0.00  0.00    -0.339 N 
ATOM     17  C   UNL A   1      35.678 -36.556 -29.766  0.00  0.00    +0.023 A 
ATOM     18  C   UNL A   1      36.293 -35.444 -30.307  0.00  0.00    -0.019 A 
ATOM     19  C   UNL A   1      35.341 -34.391 -30.336  0.00  0.00    +0.003 A 
ATOM     20  C   UNL A   1      35.387 -33.046 -30.754  0.00  0.00    -0.052 A 
ATOM     21  C   UNL A   1      34.238 -32.255 -30.667  0.00  0.00    -0.061 A 
ATOM     22  C   UNL A   1      33.050 -32.787 -30.178  0.00  0.00    -0.060 A 
ATOM     23  C   UNL A   1      32.977 -34.117 -29.757  0.00  0.00    -0.038 A 
ATOM     24  C   UNL A   1      34.140 -34.905 -29.836  0.00  0.00    +0.050 A 
ATOM     25  C   UNL A   1      37.719 -35.445 -30.753  0.00  0.00    -0.025 C 
ATOM     26  C   UNL A   1      38.237 -36.881 -30.943  0.00  0.00    -0.049 C 
ATOM     27  C   UNL A   1      37.842 -37.790 -29.766  0.00  0.00    -0.047 C 
ATOM     28  C   UNL A   1      36.317 -37.896 -29.593  0.00  0.00    -0.012 C 
ENDBRANCH  15  16
ENDBRANCH   4  15
TORSDOF 4
ENDMDL
MODEL 11
REMARK VINA RESULT:    -7.438     25.379     28.577
REMARK INTER + INTRA:          -9.719
REMARK INTER:                  -8.430
REMARK INTRA:                  -1.289
REMARK UNBOUND:                -0.542
REMARK  Name = cpd344.pdb
REMARK  4 active torsions:
REMARK  status: ('A' for Active; 'I' for Inactive)
REMARK    1  A    between atoms: C_7  and  C_8
REMARK    2  A    between atoms: C_8  and  N_9
REMARK    3  A    between atoms: C_12  and  C_13
REMARK    4  A    between atoms: C_13  and  N_14
REMARK                            x       y       z     vdW  Elec       q    Type
REMARK                         _______ _______ _______ _____ _____    ______ ____
ROOT
ATOM      1  N   UNL A   1      55.066 -33.040 -53.462  0.00  0.00    -0.349 N 
ATOM      2  C   UNL A   1      55.948 -32.736 -52.483  0.00  0.00    +0.005 A 
ATOM      3  C   UNL A   1      56.364 -33.702 -51.572  0.00  0.00    -0.041 A 
ATOM      4  C   UNL A   1      55.878 -35.007 -51.666  0.00  0.00    -0.025 A 
ATOM      5  C   UNL A   1      55.025 -35.311 -52.730  0.00  0.00    -0.041 A 
ATOM      6  C   UNL A   1      54.621 -34.311 -53.609  0.00  0.00    +0.005 A 
ENDROOT
BRANCH   1   7
ATOM      7  C   UNL A   1      54.594 -31.981 -54.392  0.00  0.00    +0.049 C 
BRANCH   7  14
ATOM      8 CL   UNL A   1      52.589 -32.568 -56.727  0.00  0.00    -0.083 Cl
ATOM      9  C   UNL A   1      52.171 -31.882 -55.199  0.00  0.00    +0.046 A 
ATOM     10  C   UNL A   1      50.829 -31.557 -54.985  0.00  0.00    -0.043 A 
ATOM     11  C   UNL A   1      50.425 -31.017 -53.766  0.00  0.00    -0.060 A 
ATOM     12  C   UNL A   1      51.361 -30.807 -52.757  0.00  0.00    -0.061 A 
ATOM     13  C   UNL A   1      52.703 -31.130 -52.967  0.00  0.00    -0.055 A 
ATOM     14  C   UNL A   1      53.132 -31.665 -54.196  0.00  0.00    -0.009 A 
ENDBRANCH   7  14
ENDBRANCH   1   7
BRANCH   4  15
ATOM     15  C   UNL A   1      56.299 -36.043 -50.639  0.00  0.00    +0.049 C 
BRANCH  15  16
ATOM     16  N   UNL A   1      55.322 -36.203 -49.563  0.00  0.00    -0.339 N 
ATOM     17  C   UNL A   1      54.258 -37.070 -49.568  0.00  0.00    +0.023 A 
ATOM     18  C   UNL A   1      53.566 -36.907 -48.383  0.00  0.00    -0.019 A 
ATOM     19  C   UNL A   1      54.220 -35.894 -47.634  0.00  0.00    +0.003 A 
ATOM     20  C   UNL A   1      53.975 -35.296 -46.382  0.00  0.00    -0.052 A 
ATOM     21  C   UNL A   1      54.844 -34.311 -45.904  0.00  0.00    -0.061 A 
ATOM     22  C   UNL A   1      55.951 -33.922 -46.651  0.00  0.00    -0.060 A 
ATOM     23  C   UNL A   1      56.217 -34.501 -47.895  0.00  0.00    -0.038 A 
ATOM     24  C   UNL A   1      55.332 -35.482 -48.376  0.00  0.00    +0.050 A 
ATOM     25  C   UNL A   1      52.349 -37.704 -48.041  0.00  0.00    -0.025 C 
ATOM     26  C   UNL A   1      52.248 -38.963 -48.919  0.00  0.00    -0.049 C 
ATOM     27  C   UNL A   1      52.518 -38.648 -50.400  0.00  0.00    -0.047 C 
ATOM     28  C   UNL A   1      53.925 -38.069 -50.630  0.00  0.00    -0.012 C 
ENDBRANCH  15  16
ENDBRANCH   4  15
TORSDOF 4
ENDMDL
MODEL 12
REMARK VINA RESULT:    -7.410     16.943     19.102
REMARK INTER + INTRA:          -9.685
REMARK INTER:                  -8.602
REMARK INTRA:                  -1.083
REMARK UNBOUND:                -0.542
REMARK  Name = cpd344.pdb
REMARK  4 active torsions:
REMARK  status: ('A' for Active; 'I' for Inactive)
REMARK    1  A    between atoms: C_7  and  C_8
REMARK    2  A    between atoms: C_8  and  N_9
REMARK    3  A    between atoms: C_12  and  C_13
REMARK    4  A    between atoms: C_13  and  N_14
REMARK                            x       y       z     vdW  Elec       q    Type
REMARK                         _______ _______ _______ _____ _____    ______ ____
ROOT
ATOM      1  N   UNL A   1      44.616 -19.555 -39.275  0.00  0.00    -0.349 N 
ATOM      2  C   UNL A   1      43.965 -18.369 -39.238  0.00  0.00    +0.005 A 
ATOM      3  C   UNL A   1      42.667 -18.283 -38.745  0.00  0.00    -0.041 A 
ATOM      4  C   UNL A   1      42.022 -19.427 -38.270  0.00  0.00    -0.025 A 
ATOM      5  C   UNL A   1      42.744 -20.623 -38.251  0.00  0.00    -0.041 A 
ATOM      6  C   UNL A   1      44.034 -20.668 -38.770  0.00  0.00    +0.005 A 
ENDROOT
BRANCH   1   7
ATOM      7  C   UNL A   1      45.983 -19.634 -39.854  0.00  0.00    +0.049 C 
BRANCH   7  14
ATOM      8 CL   UNL A   1      44.603 -19.733 -42.665  0.00  0.00    -0.083 Cl
ATOM      9  C   UNL A   1      45.564 -20.992 -41.979  0.00  0.00    +0.046 A 
ATOM     10  C   UNL A   1      45.739 -22.154 -42.735  0.00  0.00    -0.043 A 
ATOM     11  C   UNL A   1      46.518 -23.198 -42.243  0.00  0.00    -0.060 A 
ATOM     12  C   UNL A   1      47.129 -23.081 -40.998  0.00  0.00    -0.061 A 
ATOM     13  C   UNL A   1      46.956 -21.922 -40.239  0.00  0.00    -0.055 A 
ATOM     14  C   UNL A   1      46.163 -20.861 -40.714  0.00  0.00    -0.009 A 
ENDBRANCH   7  14
ENDBRANCH   1   7
BRANCH   4  15
ATOM     15  C   UNL A   1      40.588 -19.334 -37.778  0.00  0.00    +0.049 C 
BRANCH  15  16
ATOM     16  N   UNL A   1      40.432 -19.794 -36.399  0.00  0.00    -0.339 N 
ATOM     17  C   UNL A   1      40.777 -19.087 -35.274  0.00  0.00    +0.023 A 
ATOM     18  C   UNL A   1      40.492 -19.870 -34.172  0.00  0.00    -0.019 A 
ATOM     19  C   UNL A   1      39.970 -21.105 -34.639  0.00  0.00    +0.003 A 
ATOM     20  C   UNL A   1      39.525 -22.279 -34.000  0.00  0.00    -0.052 A 
ATOM     21  C   UNL A   1      39.036 -23.341 -34.767  0.00  0.00    -0.061 A 
ATOM     22  C   UNL A   1      38.980 -23.244 -36.153  0.00  0.00    -0.060 A 
ATOM     23  C   UNL A   1      39.414 -22.090 -36.811  0.00  0.00    -0.038 A 
ATOM     24  C   UNL A   1      39.916 -21.030 -36.035  0.00  0.00    +0.050 A 
ATOM     25  C   UNL A   1      40.729 -19.411 -32.770  0.00  0.00    -0.025 C 
ATOM     26  C   UNL A   1      40.888 -17.882 -32.709  0.00  0.00    -0.049 C 
ATOM     27  C   UNL A   1      41.825 -17.362 -33.813  0.00  0.00    -0.047 C 
ATOM     28  C   UNL A   1      41.307 -17.690 -35.224  0.00  0.00    -0.012 C 
ENDBRANCH  15  16
ENDBRANCH   4  15
TORSDOF 4
ENDMDL
MODEL 13
REMARK VINA RESULT:    -7.389     16.895     19.171
REMARK INTER + INTRA:          -9.659
REMARK INTER:                  -8.586
REMARK INTRA:                  -1.073
REMARK UNBOUND:                -0.542
REMARK  Name = cpd344.pdb
REMARK  4 active torsions:
REMARK  status: ('A' for Active; 'I' for Inactive)
REMARK    1  A    between atoms: C_7  and  C_8
REMARK    2  A    between atoms: C_8  and  N_9
REMARK    3  A    between atoms: C_12  and  C_13
REMARK    4  A    between atoms: C_13  and  N_14
REMARK                            x       y       z     vdW  Elec       q    Type
REMARK                         _______ _______ _______ _____ _____    ______ ____
ROOT
ATOM      1  N   UNL A   1      45.746 -19.120 -38.194  0.00  0.00    -0.349 N 
ATOM      2  C   UNL A   1      45.031 -17.974 -38.132  0.00  0.00    +0.005 A 
ATOM      3  C   UNL A   1      43.971 -17.841 -37.241  0.00  0.00    -0.041 A 
ATOM      4  C   UNL A   1      43.638 -18.896 -36.389  0.00  0.00    -0.025 A 
ATOM      5  C   UNL A   1      44.439 -20.040 -36.423  0.00  0.00    -0.041 A 
ATOM      6  C   UNL A   1      45.480 -20.138 -37.341  0.00  0.00    +0.005 A 
ENDROOT
BRANCH   1   7
ATOM      7  C   UNL A   1      46.842 -19.260 -39.190  0.00  0.00    +0.049 C 
BRANCH   7  14
ATOM      8 CL   UNL A   1      45.086 -18.496 -41.669  0.00  0.00    -0.083 Cl
ATOM      9  C   UNL A   1      45.743 -20.061 -41.354  0.00  0.00    +0.046 A 
ATOM     10  C   UNL A   1      45.467 -21.073 -42.277  0.00  0.00    -0.043 A 
ATOM     11  C   UNL A   1      45.983 -22.353 -42.087  0.00  0.00    -0.060 A 
ATOM     12  C   UNL A   1      46.781 -22.621 -40.979  0.00  0.00    -0.061 A 
ATOM     13  C   UNL A   1      47.059 -21.613 -40.054  0.00  0.00    -0.055 A 
ATOM     14  C   UNL A   1      46.537 -20.317 -40.222  0.00  0.00    -0.009 A 
ENDBRANCH   7  14
ENDBRANCH   1   7
BRANCH   4  15
ATOM     15  C   UNL A   1      42.449 -18.762 -35.453  0.00  0.00    +0.049 C 
BRANCH  15  16
ATOM     16  N   UNL A   1      41.513 -19.879 -35.565  0.00  0.00    -0.339 N 
ATOM     17  C   UNL A   1      40.768 -20.193 -36.676  0.00  0.00    +0.023 A 
ATOM     18  C   UNL A   1      39.997 -21.300 -36.375  0.00  0.00    -0.019 A 
ATOM     19  C   UNL A   1      40.267 -21.666 -35.031  0.00  0.00    +0.003 A 
ATOM     20  C   UNL A   1      39.784 -22.681 -34.180  0.00  0.00    -0.052 A 
ATOM     21  C   UNL A   1      40.281 -22.787 -32.878  0.00  0.00    -0.061 A 
ATOM     22  C   UNL A   1      41.253 -21.905 -32.419  0.00  0.00    -0.060 A 
ATOM     23  C   UNL A   1      41.750 -20.891 -33.242  0.00  0.00    -0.038 A 
ATOM     24  C   UNL A   1      41.237 -20.781 -34.547  0.00  0.00    +0.050 A 
ATOM     25  C   UNL A   1      39.068 -21.930 -37.361  0.00  0.00    -0.025 C 
ATOM     26  C   UNL A   1      39.407 -21.493 -38.797  0.00  0.00    -0.049 C 
ATOM     27  C   UNL A   1      39.645 -19.976 -38.889  0.00  0.00    -0.047 C 
ATOM     28  C   UNL A   1      40.816 -19.512 -38.005  0.00  0.00    -0.012 C 
ENDBRANCH  15  16
ENDBRANCH   4  15
TORSDOF 4
ENDMDL
MODEL 14
REMARK VINA RESULT:    -7.386     17.476     20.874
REMARK INTER + INTRA:          -9.655
REMARK INTER:                  -8.604
REMARK INTRA:                  -1.051
REMARK UNBOUND:                -0.542
REMARK  Name = cpd344.pdb
REMARK  4 active torsions:
REMARK  status: ('A' for Active; 'I' for Inactive)
REMARK    1  A    between atoms: C_7  and  C_8
REMARK    2  A    between atoms: C_8  and  N_9
REMARK    3  A    between atoms: C_12  and  C_13
REMARK    4  A    between atoms: C_13  and  N_14
REMARK                            x       y       z     vdW  Elec       q    Type
REMARK                         _______ _______ _______ _____ _____    ______ ____
ROOT
ATOM      1  N   UNL A   1      41.977 -19.827 -35.251  0.00  0.00    -0.349 N 
ATOM      2  C   UNL A   1      41.947 -20.410 -36.471  0.00  0.00    +0.005 A 
ATOM      3  C   UNL A   1      43.049 -20.349 -37.319  0.00  0.00    -0.041 A 
ATOM      4  C   UNL A   1      44.209 -19.686 -36.911  0.00  0.00    -0.025 A 
ATOM      5  C   UNL A   1      44.237 -19.157 -35.618  0.00  0.00    -0.041 A 
ATOM      6  C   UNL A   1      43.107 -19.226 -34.810  0.00  0.00    +0.005 A 
ENDROOT
BRANCH   1   7
ATOM      7  C   UNL A   1      40.771 -19.860 -34.382  0.00  0.00    +0.049 C 
BRANCH   7  14
ATOM      8 CL   UNL A   1      38.650 -21.767 -35.678  0.00  0.00    -0.083 Cl
ATOM      9  C   UNL A   1      39.603 -22.131 -34.286  0.00  0.00    +0.046 A 
ATOM     10  C   UNL A   1      39.411 -23.376 -33.682  0.00  0.00    -0.043 A 
ATOM     11  C   UNL A   1      40.163 -23.736 -32.566  0.00  0.00    -0.060 A 
ATOM     12  C   UNL A   1      41.110 -22.855 -32.055  0.00  0.00    -0.061 A 
ATOM     13  C   UNL A   1      41.305 -21.609 -32.654  0.00  0.00    -0.055 A 
ATOM     14  C   UNL A   1      40.547 -21.223 -33.776  0.00  0.00    -0.009 A 
ENDBRANCH   7  14
ENDBRANCH   1   7
BRANCH   4  15
ATOM     15  C   UNL A   1      45.389 -19.581 -37.861  0.00  0.00    +0.049 C 
BRANCH  15  16
ATOM     16  N   UNL A   1      44.990 -19.223 -39.221  0.00  0.00    -0.339 N 
ATOM     17  C   UNL A   1      44.475 -18.013 -39.613  0.00  0.00    +0.023 A 
ATOM     18  C   UNL A   1      44.210 -18.078 -40.968  0.00  0.00    -0.019 A 
ATOM     19  C   UNL A   1      44.560 -19.379 -41.417  0.00  0.00    +0.003 A 
ATOM     20  C   UNL A   1      44.501 -20.028 -42.666  0.00  0.00    -0.052 A 
ATOM     21  C   UNL A   1      44.955 -21.345 -42.784  0.00  0.00    -0.061 A 
ATOM     22  C   UNL A   1      45.470 -22.016 -41.680  0.00  0.00    -0.060 A 
ATOM     23  C   UNL A   1      45.540 -21.395 -40.430  0.00  0.00    -0.038 A 
ATOM     24  C   UNL A   1      45.071 -20.074 -40.315  0.00  0.00    +0.050 A 
ATOM     25  C   UNL A   1      43.650 -16.928 -41.740  0.00  0.00    -0.025 C 
ATOM     26  C   UNL A   1      43.829 -15.607 -40.970  0.00  0.00    -0.049 C 
ATOM     27  C   UNL A   1      43.435 -15.752 -39.490  0.00  0.00    -0.047 C 
ATOM     28  C   UNL A   1      44.287 -16.802 -38.756  0.00  0.00    -0.012 C 
ENDBRANCH  15  16
ENDBRANCH   4  15
TORSDOF 4
ENDMDL
MODEL 15
REMARK VINA RESULT:    -7.336     17.754     20.153
REMARK INTER + INTRA:          -9.594
REMARK INTER:                  -8.504
REMARK INTRA:                  -1.090
REMARK UNBOUND:                -0.542
REMARK  Name = cpd344.pdb
REMARK  4 active torsions:
REMARK  status: ('A' for Active; 'I' for Inactive)
REMARK    1  A    between atoms: C_7  and  C_8
REMARK    2  A    between atoms: C_8  and  N_9
REMARK    3  A    between atoms: C_12  and  C_13
REMARK    4  A    between atoms: C_13  and  N_14
REMARK                            x       y       z     vdW  Elec       q    Type
REMARK                         _______ _______ _______ _____ _____    ______ ____
ROOT
ATOM      1  N   UNL A   1      45.855 -19.368 -38.474  0.00  0.00    -0.349 N 
ATOM      2  C   UNL A   1      44.623 -19.829 -38.160  0.00  0.00    +0.005 A 
ATOM      3  C   UNL A   1      44.278 -20.099 -36.839  0.00  0.00    -0.041 A 
ATOM      4  C   UNL A   1      45.205 -19.888 -35.816  0.00  0.00    -0.025 A 
ATOM      5  C   UNL A   1      46.444 -19.342 -36.162  0.00  0.00    -0.041 A 
ATOM      6  C   UNL A   1      46.754 -19.103 -37.497  0.00  0.00    +0.005 A 
ENDROOT
BRANCH   1   7
ATOM      7  C   UNL A   1      46.221 -19.136 -39.896  0.00  0.00    +0.049 C 
BRANCH   7  14
ATOM      8 CL   UNL A   1      44.435 -19.353 -42.461  0.00  0.00    -0.083 Cl
ATOM      9  C   UNL A   1      45.455 -20.602 -41.845  0.00  0.00    +0.046 A 
ATOM     10  C   UNL A   1      45.484 -21.812 -42.543  0.00  0.00    -0.043 A 
ATOM     11  C   UNL A   1      46.301 -22.852 -42.106  0.00  0.00    -0.060 A 
ATOM     12  C   UNL A   1      47.093 -22.683 -40.974  0.00  0.00    -0.061 A 
ATOM     13  C   UNL A   1      47.066 -21.476 -40.273  0.00  0.00    -0.055 A 
ATOM     14  C   UNL A   1      46.239 -20.417 -40.693  0.00  0.00    -0.009 A 
ENDBRANCH   7  14
ENDBRANCH   1   7
BRANCH   4  15
ATOM     15  C   UNL A   1      44.837 -20.231 -34.384  0.00  0.00    +0.049 C 
BRANCH  15  16
ATOM     16  N   UNL A   1      43.725 -19.428 -33.878  0.00  0.00    -0.339 N 
ATOM     17  C   UNL A   1      43.804 -18.124 -33.456  0.00  0.00    +0.023 A 
ATOM     18  C   UNL A   1      42.547 -17.733 -33.036  0.00  0.00    -0.019 A 
ATOM     19  C   UNL A   1      41.672 -18.840 -33.192  0.00  0.00    +0.003 A 
ATOM     20  C   UNL A   1      40.303 -19.046 -32.926  0.00  0.00    -0.052 A 
ATOM     21  C   UNL A   1      39.721 -20.282 -33.219  0.00  0.00    -0.061 A 
ATOM     22  C   UNL A   1      40.478 -21.306 -33.778  0.00  0.00    -0.060 A 
ATOM     23  C   UNL A   1      41.837 -21.127 -34.053  0.00  0.00    -0.038 A 
ATOM     24  C   UNL A   1      42.420 -19.885 -33.744  0.00  0.00    +0.050 A 
ATOM     25  C   UNL A   1      42.257 -16.360 -32.521  0.00  0.00    -0.025 C 
ATOM     26  C   UNL A   1      43.365 -15.373 -32.926  0.00  0.00    -0.049 C 
ATOM     27  C   UNL A   1      44.767 -15.959 -32.686  0.00  0.00    -0.047 C 
ATOM     28  C   UNL A   1      45.012 -17.245 -33.495  0.00  0.00    -0.012 C 
ENDBRANCH  15  16
ENDBRANCH   4  15
TORSDOF 4
ENDMDL
MODEL 16
REMARK VINA RESULT:    -7.320     16.828     19.053
REMARK INTER + INTRA:          -9.574
REMARK INTER:                  -8.475
REMARK INTRA:                  -1.100
REMARK UNBOUND:                -0.542
REMARK  Name = cpd344.pdb
REMARK  4 active torsions:
REMARK  status: ('A' for Active; 'I' for Inactive)
REMARK    1  A    between atoms: C_7  and  C_8
REMARK    2  A    between atoms: C_8  and  N_9
REMARK    3  A    between atoms: C_12  and  C_13
REMARK    4  A    between atoms: C_13  and  N_14
REMARK                            x       y       z     vdW  Elec       q    Type
REMARK                         _______ _______ _______ _____ _____    ______ ____
ROOT
ATOM      1  N   UNL A   1      44.211 -19.722 -39.122  0.00  0.00    -0.349 N 
ATOM      2  C   UNL A   1      43.691 -20.859 -38.605  0.00  0.00    +0.005 A 
ATOM      3  C   UNL A   1      42.404 -20.880 -38.078  0.00  0.00    -0.041 A 
ATOM      4  C   UNL A   1      41.625 -19.721 -38.088  0.00  0.00    -0.025 A 
ATOM      5  C   UNL A   1      42.159 -18.581 -38.694  0.00  0.00    -0.041 A 
ATOM      6  C   UNL A   1      43.458 -18.599 -39.193  0.00  0.00    +0.005 A 
ENDROOT
BRANCH   1   7
ATOM      7  C   UNL A   1      45.607 -19.708 -39.631  0.00  0.00    +0.049 C 
BRANCH   7  14
ATOM      8 CL   UNL A   1      44.363 -19.730 -42.507  0.00  0.00    -0.083 Cl
ATOM      9  C   UNL A   1      45.356 -20.974 -41.838  0.00  0.00    +0.046 A 
ATOM     10  C   UNL A   1      45.625 -22.085 -42.642  0.00  0.00    -0.043 A 
ATOM     11  C   UNL A   1      46.435 -23.113 -42.165  0.00  0.00    -0.060 A 
ATOM     12  C   UNL A   1      46.981 -23.031 -40.889  0.00  0.00    -0.061 A 
ATOM     13  C   UNL A   1      46.715 -21.923 -40.082  0.00  0.00    -0.055 A 
ATOM     14  C   UNL A   1      45.890 -20.879 -40.541  0.00  0.00    -0.009 A 
ENDBRANCH   7  14
ENDBRANCH   1   7
BRANCH   4  15
ATOM     15  C   UNL A   1      40.239 -19.740 -37.468  0.00  0.00    +0.049 C 
BRANCH  15  16
ATOM     16  N   UNL A   1      40.270 -19.944 -36.020  0.00  0.00    -0.339 N 
ATOM     17  C   UNL A   1      39.937 -21.104 -35.366  0.00  0.00    +0.023 A 
ATOM     18  C   UNL A   1      40.078 -20.887 -34.009  0.00  0.00    -0.019 A 
ATOM     19  C   UNL A   1      40.497 -19.543 -33.825  0.00  0.00    +0.003 A 
ATOM     20  C   UNL A   1      40.783 -18.758 -32.690  0.00  0.00    -0.052 A 
ATOM     21  C   UNL A   1      41.203 -17.434 -32.853  0.00  0.00    -0.061 A 
ATOM     22  C   UNL A   1      41.346 -16.890 -34.125  0.00  0.00    -0.060 A 
ATOM     23  C   UNL A   1      41.070 -17.648 -35.267  0.00  0.00    -0.038 A 
ATOM     24  C   UNL A   1      40.636 -18.975 -35.096  0.00  0.00    +0.050 A 
ATOM     25  C   UNL A   1      39.811 -21.945 -32.988  0.00  0.00    -0.025 C 
ATOM     26  C   UNL A   1      39.806 -23.343 -33.631  0.00  0.00    -0.049 C 
ATOM     27  C   UNL A   1      38.990 -23.368 -34.935  0.00  0.00    -0.047 C 
ATOM     28  C   UNL A   1      39.550 -22.404 -35.995  0.00  0.00    -0.012 C 
ENDBRANCH  15  16
ENDBRANCH   4  15
TORSDOF 4
ENDMDL
MODEL 17
REMARK VINA RESULT:    -7.256     16.755     20.304
REMARK INTER + INTRA:          -9.495
REMARK INTER:                  -8.314
REMARK INTRA:                  -1.182
REMARK UNBOUND:                -0.542
REMARK  Name = cpd344.pdb
REMARK  4 active torsions:
REMARK  status: ('A' for Active; 'I' for Inactive)
REMARK    1  A    between atoms: C_7  and  C_8
REMARK    2  A    between atoms: C_8  and  N_9
REMARK    3  A    between atoms: C_12  and  C_13
REMARK    4  A    between atoms: C_13  and  N_14
REMARK                            x       y       z     vdW  Elec       q    Type
REMARK                         _______ _______ _______ _____ _____    ______ ____
ROOT
ATOM      1  N   UNL A   1      39.952 -20.560 -36.872  0.00  0.00    -0.349 N 
ATOM      2  C   UNL A   1      40.052 -19.227 -37.074  0.00  0.00    +0.005 A 
ATOM      3  C   UNL A   1      40.943 -18.711 -38.010  0.00  0.00    -0.041 A 
ATOM      4  C   UNL A   1      41.743 -19.574 -38.763  0.00  0.00    -0.025 A 
ATOM      5  C   UNL A   1      41.566 -20.948 -38.585  0.00  0.00    -0.041 A 
ATOM      6  C   UNL A   1      40.676 -21.420 -37.626  0.00  0.00    +0.005 A 
ENDROOT
BRANCH   1   7
ATOM      7  C   UNL A   1      39.032 -21.087 -35.830  0.00  0.00    +0.049 C 
BRANCH   7  14
ATOM      8 CL   UNL A   1      38.473 -24.035 -34.929  0.00  0.00    -0.083 Cl
ATOM      9  C   UNL A   1      39.575 -22.949 -34.165  0.00  0.00    +0.046 A 
ATOM     10  C   UNL A   1      40.272 -23.418 -33.049  0.00  0.00    -0.043 A 
ATOM     11  C   UNL A   1      41.189 -22.595 -32.398  0.00  0.00    -0.060 A 
ATOM     12  C   UNL A   1      41.413 -21.304 -32.865  0.00  0.00    -0.061 A 
ATOM     13  C   UNL A   1      40.718 -20.830 -33.979  0.00  0.00    -0.055 A 
ATOM     14  C   UNL A   1      39.779 -21.642 -34.643  0.00  0.00    -0.009 A 
ENDBRANCH   7  14
ENDBRANCH   1   7
BRANCH   4  15
ATOM     15  C   UNL A   1      42.747 -19.002 -39.747  0.00  0.00    +0.049 C 
BRANCH  15  16
ATOM     16  N   UNL A   1      44.108 -19.483 -39.511  0.00  0.00    -0.339 N 
ATOM     17  C   UNL A   1      44.942 -19.067 -38.503  0.00  0.00    +0.023 A 
ATOM     18  C   UNL A   1      46.140 -19.742 -38.633  0.00  0.00    -0.019 A 
ATOM     19  C   UNL A   1      46.042 -20.589 -39.768  0.00  0.00    +0.003 A 
ATOM     20  C   UNL A   1      46.929 -21.487 -40.395  0.00  0.00    -0.052 A 
ATOM     21  C   UNL A   1      46.508 -22.204 -41.518  0.00  0.00    -0.061 A 
ATOM     22  C   UNL A   1      45.220 -22.044 -42.017  0.00  0.00    -0.060 A 
ATOM     23  C   UNL A   1      44.320 -21.160 -41.414  0.00  0.00    -0.038 A 
ATOM     24  C   UNL A   1      44.754 -20.432 -40.291  0.00  0.00    +0.050 A 
ATOM     25  C   UNL A   1      47.285 -19.547 -37.692  0.00  0.00    -0.025 C 
ATOM     26  C   UNL A   1      46.818 -18.885 -36.384  0.00  0.00    -0.049 C 
ATOM     27  C   UNL A   1      45.884 -17.693 -36.651  0.00  0.00    -0.047 C 
ATOM     28  C   UNL A   1      44.610 -18.104 -37.410  0.00  0.00    -0.012 C 
ENDBRANCH  15  16
ENDBRANCH   4  15
TORSDOF 4
ENDMDL
MODEL 18
REMARK VINA RESULT:    -7.228     16.422     18.492
REMARK INTER + INTRA:          -9.460
REMARK INTER:                  -8.357
REMARK INTRA:                  -1.103
REMARK UNBOUND:                -0.542
REMARK  Name = cpd344.pdb
REMARK  4 active torsions:
REMARK  status: ('A' for Active; 'I' for Inactive)
REMARK    1  A    between atoms: C_7  and  C_8
REMARK    2  A    between atoms: C_8  and  N_9
REMARK    3  A    between atoms: C_12  and  C_13
REMARK    4  A    between atoms: C_13  and  N_14
REMARK                            x       y       z     vdW  Elec       q    Type
REMARK                         _______ _______ _______ _____ _____    ______ ____
ROOT
ATOM      1  N   UNL A   1      43.648 -19.814 -37.548  0.00  0.00    -0.349 N 
ATOM      2  C   UNL A   1      44.296 -19.363 -36.450  0.00  0.00    +0.005 A 
ATOM      3  C   UNL A   1      43.838 -19.676 -35.173  0.00  0.00    -0.041 A 
ATOM      4  C   UNL A   1      42.702 -20.472 -35.013  0.00  0.00    -0.025 A 
ATOM      5  C   UNL A   1      42.097 -20.984 -36.164  0.00  0.00    -0.041 A 
ATOM      6  C   UNL A   1      42.577 -20.633 -37.421  0.00  0.00    +0.005 A 
ENDROOT
BRANCH   1   7
ATOM      7  C   UNL A   1      44.124 -19.425 -38.902  0.00  0.00    +0.049 C 
BRANCH   7  14
ATOM      8 CL   UNL A   1      43.120 -21.221 -41.265  0.00  0.00    -0.083 Cl
ATOM      9  C   UNL A   1      44.683 -21.307 -40.539  0.00  0.00    +0.046 A 
ATOM     10  C   UNL A   1      45.574 -22.259 -41.041  0.00  0.00    -0.043 A 
ATOM     11  C   UNL A   1      46.857 -22.366 -40.508  0.00  0.00    -0.060 A 
ATOM     12  C   UNL A   1      47.253 -21.519 -39.478  0.00  0.00    -0.061 A 
ATOM     13  C   UNL A   1      46.365 -20.567 -38.973  0.00  0.00    -0.055 A 
ATOM     14  C   UNL A   1      45.061 -20.451 -39.489  0.00  0.00    -0.009 A 
ENDBRANCH   7  14
ENDBRANCH   1   7
BRANCH   4  15
ATOM     15  C   UNL A   1      42.181 -20.768 -33.618  0.00  0.00    +0.049 C 
BRANCH  15  16
ATOM     16  N   UNL A   1      40.848 -20.215 -33.383  0.00  0.00    -0.339 N 
ATOM     17  C   UNL A   1      39.670 -20.920 -33.419  0.00  0.00    +0.023 A 
ATOM     18  C   UNL A   1      38.636 -20.039 -33.164  0.00  0.00    -0.019 A 
ATOM     19  C   UNL A   1      39.200 -18.749 -32.981  0.00  0.00    +0.003 A 
ATOM     20  C   UNL A   1      38.656 -17.476 -32.714  0.00  0.00    -0.052 A 
ATOM     21  C   UNL A   1      39.507 -16.377 -32.566  0.00  0.00    -0.061 A 
ATOM     22  C   UNL A   1      40.885 -16.532 -32.673  0.00  0.00    -0.060 A 
ATOM     23  C   UNL A   1      41.450 -17.783 -32.936  0.00  0.00    -0.038 A 
ATOM     24  C   UNL A   1      40.588 -18.882 -33.096  0.00  0.00    +0.050 A 
ATOM     25  C   UNL A   1      37.205 -20.464 -33.112  0.00  0.00    -0.025 C 
ATOM     26  C   UNL A   1      37.088 -21.988 -32.935  0.00  0.00    -0.049 C 
ATOM     27  C   UNL A   1      38.039 -22.746 -33.878  0.00  0.00    -0.047 C 
ATOM     28  C   UNL A   1      39.515 -22.391 -33.631  0.00  0.00    -0.012 C 
ENDBRANCH  15  16
ENDBRANCH   4  15
TORSDOF 4
ENDMDL
MODEL 19
REMARK VINA RESULT:    -7.226     17.054     20.613
REMARK INTER + INTRA:          -9.458
REMARK INTER:                  -8.657
REMARK INTRA:                  -0.801
REMARK UNBOUND:                -0.542
REMARK  Name = cpd344.pdb
REMARK  4 active torsions:
REMARK  status: ('A' for Active; 'I' for Inactive)
REMARK    1  A    between atoms: C_7  and  C_8
REMARK    2  A    between atoms: C_8  and  N_9
REMARK    3  A    between atoms: C_12  and  C_13
REMARK    4  A    between atoms: C_13  and  N_14
REMARK                            x       y       z     vdW  Elec       q    Type
REMARK                         _______ _______ _______ _____ _____    ______ ____
ROOT
ATOM      1  N   UNL A   1      40.586 -21.589 -36.299  0.00  0.00    -0.349 N 
ATOM      2  C   UNL A   1      40.981 -21.355 -37.572  0.00  0.00    +0.005 A 
ATOM      3  C   UNL A   1      42.184 -20.708 -37.838  0.00  0.00    -0.041 A 
ATOM      4  C   UNL A   1      43.007 -20.301 -36.785  0.00  0.00    -0.025 A 
ATOM      5  C   UNL A   1      42.609 -20.622 -35.484  0.00  0.00    -0.041 A 
ATOM      6  C   UNL A   1      41.390 -21.254 -35.263  0.00  0.00    +0.005 A 
ENDROOT
BRANCH   1   7
ATOM      7  C   UNL A   1      39.272 -22.234 -36.037  0.00  0.00    +0.049 C 
BRANCH   7  14
ATOM      8 CL   UNL A   1      38.386 -23.841 -33.498  0.00  0.00    -0.083 Cl
ATOM      9  C   UNL A   1      38.050 -22.174 -33.793  0.00  0.00    +0.046 A 
ATOM     10  C   UNL A   1      37.318 -21.483 -32.823  0.00  0.00    -0.043 A 
ATOM     11  C   UNL A   1      37.030 -20.131 -32.995  0.00  0.00    -0.060 A 
ATOM     12  C   UNL A   1      37.477 -19.467 -34.133  0.00  0.00    -0.061 A 
ATOM     13  C   UNL A   1      38.207 -20.153 -35.104  0.00  0.00    -0.055 A 
ATOM     14  C   UNL A   1      38.499 -21.522 -34.954  0.00  0.00    -0.009 A 
ENDBRANCH   7  14
ENDBRANCH   1   7
BRANCH   4  15
ATOM     15  C   UNL A   1      44.295 -19.554 -37.082  0.00  0.00    +0.049 C 
BRANCH  15  16
ATOM     16  N   UNL A   1      44.532 -19.383 -38.514  0.00  0.00    -0.339 N 
ATOM     17  C   UNL A   1      43.996 -18.396 -39.304  0.00  0.00    +0.023 A 
ATOM     18  C   UNL A   1      44.446 -18.590 -40.596  0.00  0.00    -0.019 A 
ATOM     19  C   UNL A   1      45.273 -19.744 -40.600  0.00  0.00    +0.003 A 
ATOM     20  C   UNL A   1      45.986 -20.428 -41.605  0.00  0.00    -0.052 A 
ATOM     21  C   UNL A   1      46.744 -21.554 -41.270  0.00  0.00    -0.061 A 
ATOM     22  C   UNL A   1      46.804 -21.999 -39.953  0.00  0.00    -0.060 A 
ATOM     23  C   UNL A   1      46.106 -21.338 -38.938  0.00  0.00    -0.038 A 
ATOM     24  C   UNL A   1      45.336 -20.213 -39.284  0.00  0.00    +0.050 A 
ATOM     25  C   UNL A   1      44.070 -17.688 -41.727  0.00  0.00    -0.025 C 
ATOM     26  C   UNL A   1      43.528 -16.346 -41.206  0.00  0.00    -0.049 C 
ATOM     27  C   UNL A   1      42.515 -16.544 -40.066  0.00  0.00    -0.047 C 
ATOM     28  C   UNL A   1      43.129 -17.265 -38.854  0.00  0.00    -0.012 C 
ENDBRANCH  15  16
ENDBRANCH   4  15
TORSDOF 4
ENDMDL
MODEL 20
REMARK VINA RESULT:    -7.190     18.334     21.998
REMARK INTER + INTRA:          -9.413
REMARK INTER:                  -8.329
REMARK INTRA:                  -1.084
REMARK UNBOUND:                -0.542
REMARK  Name = cpd344.pdb
REMARK  4 active torsions:
REMARK  status: ('A' for Active; 'I' for Inactive)
REMARK    1  A    between atoms: C_7  and  C_8
REMARK    2  A    between atoms: C_8  and  N_9
REMARK    3  A    between atoms: C_12  and  C_13
REMARK    4  A    between atoms: C_13  and  N_14
REMARK                            x       y       z     vdW  Elec       q    Type
REMARK                         _______ _______ _______ _____ _____    ______ ____
ROOT
ATOM      1  N   UNL A   1      43.459 -18.832 -34.127  0.00  0.00    -0.349 N 
ATOM      2  C   UNL A   1      43.891 -17.692 -34.712  0.00  0.00    +0.005 A 
ATOM      3  C   UNL A   1      45.088 -17.663 -35.421  0.00  0.00    -0.041 A 
ATOM      4  C   UNL A   1      45.856 -18.823 -35.544  0.00  0.00    -0.025 A 
ATOM      5  C   UNL A   1      45.349 -20.002 -34.992  0.00  0.00    -0.041 A 
ATOM      6  C   UNL A   1      44.157 -19.982 -34.277  0.00  0.00    +0.005 A 
ENDROOT
BRANCH   1   7
ATOM      7  C   UNL A   1      42.204 -18.828 -33.330  0.00  0.00    +0.049 C 
BRANCH   7  14
ATOM      8 CL   UNL A   1      40.596 -19.043 -36.009  0.00  0.00    -0.083 Cl
ATOM      9  C   UNL A   1      40.604 -20.225 -34.751  0.00  0.00    +0.046 A 
ATOM     10  C   UNL A   1      39.827 -21.370 -34.939  0.00  0.00    -0.043 A 
ATOM     11  C   UNL A   1      39.806 -22.369 -33.967  0.00  0.00    -0.060 A 
ATOM     12  C   UNL A   1      40.565 -22.226 -32.811  0.00  0.00    -0.061 A 
ATOM     13  C   UNL A   1      41.343 -21.083 -32.619  0.00  0.00    -0.055 A 
ATOM     14  C   UNL A   1      41.369 -20.058 -33.583  0.00  0.00    -0.009 A 
ENDBRANCH   7  14
ENDBRANCH   1   7
BRANCH   4  15
ATOM     15  C   UNL A   1      47.185 -18.772 -36.278  0.00  0.00    +0.049 C 
BRANCH  15  16
ATOM     16  N   UNL A   1      47.028 -18.556 -37.716  0.00  0.00    -0.339 N 
ATOM     17  C   UNL A   1      46.779 -19.531 -38.651  0.00  0.00    +0.023 A 
ATOM     18  C   UNL A   1      46.719 -18.928 -39.892  0.00  0.00    -0.019 A 
ATOM     19  C   UNL A   1      46.955 -17.540 -39.714  0.00  0.00    +0.003 A 
ATOM     20  C   UNL A   1      47.029 -16.442 -40.595  0.00  0.00    -0.052 A 
ATOM     21  C   UNL A   1      47.263 -15.161 -40.086  0.00  0.00    -0.061 A 
ATOM     22  C   UNL A   1      47.414 -14.962 -38.718  0.00  0.00    -0.060 A 
ATOM     23  C   UNL A   1      47.344 -16.033 -37.823  0.00  0.00    -0.038 A 
ATOM     24  C   UNL A   1      47.121 -17.321 -38.342  0.00  0.00    +0.050 A 
ATOM     25  C   UNL A   1      46.449 -19.690 -41.149  0.00  0.00    -0.025 C 
ATOM     26  C   UNL A   1      45.833 -21.066 -40.840  0.00  0.00    -0.049 C 
ATOM     27  C   UNL A   1      46.580 -21.781 -39.701  0.00  0.00    -0.047 C 
ATOM     28  C   UNL A   1      46.547 -20.984 -38.386  0.00  0.00    -0.012 C 
ENDBRANCH  15  16
ENDBRANCH   4  15
TORSDOF 4
ENDMDL
