REMARK  Name = cpd344.pdb
REMARK  4 active torsions:
REMARK  status: ('A' for Active; 'I' for Inactive)
REMARK    1  A    between atoms: C_7  and  C_8
REMARK    2  A    between atoms: C_8  and  N_9
REMARK    3  A    between atoms: C_12  and  C_13
REMARK    4  A    between atoms: C_13  and  N_14
REMARK                            x       y       z     vdW  Elec       q    Type
REMARK                         _______ _______ _______ _____ _____    ______ ____
ROOT
ATOM      1  N   UNL A   1      -4.518   3.823  -0.040  0.00  0.00    -0.349 N 
ATOM      2  C   UNL A   1      -3.946   4.068   1.161  0.00  0.00    +0.005 A 
ATOM      3  C   UNL A   1      -2.868   3.309   1.606  0.00  0.00    -0.041 A 
ATOM      4  C   UNL A   1      -2.356   2.285   0.806  0.00  0.00    -0.025 A 
ATOM      5  C   UNL A   1      -2.919   2.103  -0.460  0.00  0.00    -0.041 A 
ATOM      6  C   UNL A   1      -4.007   2.873  -0.858  0.00  0.00    +0.005 A 
ENDROOT
BRANCH   1   7
ATOM      7  C   UNL A   1      -5.702   4.611  -0.473  0.00  0.00    +0.049 C 
BRANCH   7  14
ATOM      8 CL   UNL A   1      -7.148   3.614   2.121  0.00  0.00    -0.083 Cl
ATOM      9  C   UNL A   1      -7.632   3.250   0.505  0.00  0.00    +0.046 A 
ATOM     10  C   UNL A   1      -8.758   2.440   0.337  0.00  0.00    -0.043 A 
ATOM     11  C   UNL A   1      -9.209   2.125  -0.943  0.00  0.00    -0.060 A 
ATOM     12  C   UNL A   1      -8.539   2.623  -2.056  0.00  0.00    -0.061 A 
ATOM     13  C   UNL A   1      -7.413   3.432  -1.893  0.00  0.00    -0.055 A 
ATOM     14  C   UNL A   1      -6.935   3.752  -0.608  0.00  0.00    -0.009 A 
ENDBRANCH   7  14
ENDBRANCH   1   7
BRANCH   4  15
ATOM     15  C   UNL A   1      -1.211   1.430   1.319  0.00  0.00    +0.049 C 
BRANCH  15  16
ATOM     16  N   UNL A   1      -1.295   0.042   0.867  0.00  0.00    -0.339 N 
ATOM     17  C   UNL A   1      -0.420  -0.576   0.008  0.00  0.00    +0.023 A 
ATOM     18  C   UNL A   1      -0.853  -1.874  -0.184  0.00  0.00    -0.019 A 
ATOM     19  C   UNL A   1      -2.042  -2.052   0.571  0.00  0.00    +0.003 A 
ATOM     20  C   UNL A   1      -2.927  -3.133   0.756  0.00  0.00    -0.052 A 
ATOM     21  C   UNL A   1      -4.028  -2.988   1.605  0.00  0.00    -0.061 A 
ATOM     22  C   UNL A   1      -4.252  -1.789   2.273  0.00  0.00    -0.060 A 
ATOM     23  C   UNL A   1      -3.389  -0.702   2.108  0.00  0.00    -0.038 A 
ATOM     24  C   UNL A   1      -2.290  -0.850   1.243  0.00  0.00    +0.050 A 
ATOM     25  C   UNL A   1      -0.129  -2.848  -1.056  0.00  0.00    -0.025 C 
ATOM     26  C   UNL A   1       1.313  -2.383  -1.324  0.00  0.00    -0.049 C 
ATOM     27  C   UNL A   1       1.371  -0.891  -1.695  0.00  0.00    -0.047 C 
ATOM     28  C   UNL A   1       0.823   0.013  -0.577  0.00  0.00    -0.012 C 
ENDBRANCH  15  16
ENDBRANCH   4  15
TORSDOF 4
