@<TRIPOS>MOLECULE
*****
 36 39 0 0 0
SMALL
GASTEIGER

@<TRIPOS>ATOM
      1 C           0.8660   -2.5000    0.0000 C.3     1  UNL1        0.2526
      2 O           0.8660   -1.5000    0.0000 O.3     1  UNL1       -0.4683
      3 C           0.0000   -1.0000    0.0000 C.ar    1  UNL1        0.1751
      4 C          -0.8660   -1.5000    0.0000 C.ar    1  UNL1        0.0360
      5 C          -1.7321   -1.0000    0.0000 C.ar    1  UNL1       -0.0155
      6 C          -2.5981   -1.5000    0.0000 C.3     1  UNL1        0.0362
      7 C          -3.4641   -1.0000    0.0000 C.3     1  UNL1        0.0915
      8 C          -4.3301   -1.5000    0.0000 C.2     1  UNL1        0.2422
      9 O          -5.1962   -1.0000    0.0000 O.2     1  UNL1       -0.2733
     10 N          -4.3301   -2.5000    0.0000 N.am    1  UNL1       -0.1954
     11 C          -5.1962   -3.0000    0.0000 C.3     1  UNL1        0.2030
     12 C          -6.0622   -2.5000    0.0000 C.2     1  UNL1        0.2827
     13 O          -6.0622   -1.5000    0.0000 O.2     1  UNL1       -0.2697
     14 N          -6.9282   -3.0000    0.0000 N.am    1  UNL1       -0.0890
     15 N          -7.7942   -2.5000    0.0000 N.pl3   1  UNL1       -0.1255
     16 C          -8.6603   -3.0000    0.0000 C.ar    1  UNL1        0.0877
     17 C          -8.6603   -4.0000    0.0000 C.ar    1  UNL1        0.0081
     18 C          -9.5263   -4.5000    0.0000 C.ar    1  UNL1        0.0563
     19 N         -10.3923   -4.0000    0.0000 N.ar    1  UNL1       -0.2499
     20 C         -10.3923   -3.0000    0.0000 C.ar    1  UNL1        0.0822
     21 C         -11.2583   -2.5000    0.0000 C.ar    1  UNL1        0.0191
     22 C         -11.2583   -1.5000    0.0000 C.ar    1  UNL1        0.0015
     23 C         -10.3923   -1.0000    0.0000 C.ar    1  UNL1        0.0001
     24 C          -9.5263   -1.5000    0.0000 C.ar    1  UNL1        0.0028
     25 C          -9.5263   -2.5000    0.0000 C.ar    1  UNL1        0.0341
     26 C          -9.5263   -5.5000    0.0000 C.3     1  UNL1        0.0455
     27 C          -8.6603   -6.0000    0.0000 C.3     1  UNL1        0.0066
     28 C          -7.7942   -5.5000    0.0000 C.3     1  UNL1        0.0052
     29 C          -7.7942   -4.5000    0.0000 C.3     1  UNL1        0.0289
     30 C          -1.7321   -0.0000    0.0000 C.ar    1  UNL1        0.0360
     31 C          -0.8660    0.5000    0.0000 C.ar    1  UNL1        0.1751
     32 O          -0.8660    1.5000    0.0000 O.3     1  UNL1       -0.4683
     33 C          -1.7321    2.0000    0.0000 C.3     1  UNL1        0.2526
     34 C           0.0000    0.0000    0.0000 C.ar    1  UNL1        0.2060
     35 O           0.8660    0.5000    0.0000 O.3     1  UNL1       -0.4654
     36 C           0.8660    1.5000    0.0000 C.3     1  UNL1        0.2528
@<TRIPOS>BOND
     1     1     2    1
     2     2     3    1
     3     3     4   ar
     4     4     5   ar
     5     5     6    1
     6     6     7    1
     7     7     8    1
     8     8     9    2
     9     8    10   am
    10    10    11    1
    11    11    12    1
    12    12    13    2
    13    12    14   am
    14    14    15    1
    15    15    16    1
    16    16    17   ar
    17    17    18   ar
    18    18    19   ar
    19    19    20   ar
    20    20    21   ar
    21    21    22   ar
    22    22    23   ar
    23    23    24   ar
    24    24    25   ar
    25    16    25   ar
    26    20    25   ar
    27    18    26    1
    28    26    27    1
    29    27    28    1
    30    28    29    1
    31    17    29    1
    32     5    30   ar
    33    30    31   ar
    34    31    32    1
    35    32    33    1
    36    31    34   ar
    37     3    34   ar
    38    34    35    1
    39    35    36    1
