REMARK  Name = cpd104.pdb
REMARK  13 active torsions:
REMARK  status: ('A' for Active; 'I' for Inactive)
REMARK    1  A    between atoms: C_1  and  O_2
REMARK    2  A    between atoms: O_2  and  C_3
REMARK    3  A    between atoms: C_5  and  C_6
REMARK    4  A    between atoms: C_6  and  C_7
REMARK    5  A    between atoms: C_7  and  C_8
REMARK    6  A    between atoms: N_10  and  C_11
REMARK    7  A    between atoms: C_11  and  C_12
REMARK    8  A    between atoms: N_14  and  N_15
REMARK    9  A    between atoms: N_15  and  C_16
REMARK   10  A    between atoms: C_31  and  O_32
REMARK   11  A    between atoms: O_32  and  C_33
REMARK   12  A    between atoms: C_34  and  O_35
REMARK   13  A    between atoms: O_35  and  C_36
REMARK                            x       y       z     vdW  Elec       q    Type
REMARK                         _______ _______ _______ _____ _____    ______ ____
ROOT
ATOM      1  C   UNL A   1      -6.066  -3.302  -1.371  0.00  0.00    +0.246 C 
ATOM      2  O   UNL A   1      -6.106  -3.689  -2.540  0.00  0.00    -0.273 OA
ATOM      3  N   UNL A   1      -7.189  -2.863  -0.692  0.00  0.00    -0.235 N 
ATOM      4  H   UNL A   1      -7.164  -2.666   0.272  0.00  0.00    +0.000 HD
ENDROOT
BRANCH   3   5
ATOM      5  N   UNL A   1      -8.377  -2.710  -1.449  0.00  0.00    -0.263 N 
ATOM      6  H   UNL A   1      -8.425  -2.292  -2.339  0.00  0.00    +0.000 HD
BRANCH   5   7
ATOM      7  C   UNL A   1      -9.498  -3.249  -0.738  0.00  0.00    +0.058 A 
ATOM      8  C   UNL A   1      -9.659  -4.639  -0.551  0.00  0.00    -0.003 A 
ATOM      9  C   UNL A   1     -10.749  -5.062   0.214  0.00  0.00    +0.047 A 
ATOM     10  N   UNL A   1     -11.661  -4.210   0.741  0.00  0.00    -0.251 NA
ATOM     11  C   UNL A   1     -11.515  -2.893   0.547  0.00  0.00    +0.073 A 
ATOM     12  C   UNL A   1     -12.467  -2.039   1.089  0.00  0.00    -0.036 A 
ATOM     13  C   UNL A   1     -12.392  -0.653   0.931  0.00  0.00    -0.060 A 
ATOM     14  C   UNL A   1     -11.339  -0.101   0.217  0.00  0.00    -0.061 A 
ATOM     15  C   UNL A   1     -10.371  -0.940  -0.334  0.00  0.00    -0.051 A 
ATOM     16  C   UNL A   1     -10.443  -2.346  -0.181  0.00  0.00    +0.023 A 
ATOM     17  C   UNL A   1     -11.031  -6.522   0.462  0.00  0.00    -0.010 C 
ATOM     18  C   UNL A   1      -9.817  -7.417   0.246  0.00  0.00    -0.047 C 
ATOM     19  C   UNL A   1      -9.168  -7.085  -1.088  0.00  0.00    -0.049 C 
ATOM     20  C   UNL A   1      -8.667  -5.642  -1.091  0.00  0.00    -0.024 C 
ENDBRANCH   5   7
ENDBRANCH   3   5
BRANCH   1  21
ATOM     21  C   UNL A   1      -4.762  -3.266  -0.572  0.00  0.00    +0.090 C 
BRANCH  21  24
ATOM     22  C   UNL A   1      -4.464  -1.951   1.591  0.00  0.00    +0.214 C 
ATOM     23  O   UNL A   1      -4.816  -1.864   2.766  0.00  0.00    -0.276 OA
ATOM     24  N   UNL A   1      -4.953  -2.976   0.843  0.00  0.00    -0.307 N 
ATOM     25  H   UNL A   1      -5.520  -3.617   1.330  0.00  0.00    +0.000 HD
BRANCH  22  26
ATOM     26  C   UNL A   1      -3.488  -0.969   0.987  0.00  0.00    +0.028 C 
BRANCH  26  27
ATOM     27  C   UNL A   1      -2.083  -1.569   0.945  0.00  0.00    -0.019 C 
BRANCH  27  30
ATOM     28  C   UNL A   1       1.434  -0.435   0.030  0.00  0.00    +0.165 A 
ATOM     29  C   UNL A   1       0.344  -1.198   0.458  0.00  0.00    -0.013 A 
ATOM     30  C   UNL A   1      -0.963  -0.671   0.458  0.00  0.00    -0.040 A 
ATOM     31  C   UNL A   1      -1.161   0.645   0.011  0.00  0.00    -0.013 A 
ATOM     32  C   UNL A   1      -0.085   1.431  -0.416  0.00  0.00    +0.165 A 
ATOM     33  C   UNL A   1       1.209   0.886  -0.388  0.00  0.00    +0.204 A 
BRANCH  28  35
ATOM     34  C   UNL A   1       2.979  -2.234   0.303  0.00  0.00    +0.079 C 
ATOM     35  O   UNL A   1       2.734  -0.868   0.001  0.00  0.00    -0.491 OA
ENDBRANCH  28  35
BRANCH  32  36
ATOM     36  O   UNL A   1      -0.186   2.723  -0.865  0.00  0.00    -0.491 OA
ATOM     37  C   UNL A   1      -1.475   3.320  -0.878  0.00  0.00    +0.079 C 
ENDBRANCH  32  36
BRANCH  33  38
ATOM     38  O   UNL A   1       2.270   1.636  -0.848  0.00  0.00    -0.488 OA
ATOM     39  C   UNL A   1       2.832   2.385   0.228  0.00  0.00    +0.079 C 
ENDBRANCH  33  38
ENDBRANCH  27  30
ENDBRANCH  26  27
ENDBRANCH  22  26
ENDBRANCH  21  24
ENDBRANCH   1  21
TORSDOF 10
