MODEL 1
REMARK VINA RESULT:   -10.510      0.000      0.000
REMARK INTER + INTRA:         -17.020
REMARK INTER:                 -16.655
REMARK INTRA:                  -0.365
REMARK UNBOUND:                -0.365
REMARK  Name = cpd104.pdb
REMARK  13 active torsions:
REMARK  status: ('A' for Active; 'I' for Inactive)
REMARK    1  A    between atoms: C_1  and  O_2
REMARK    2  A    between atoms: O_2  and  C_3
REMARK    3  A    between atoms: C_5  and  C_6
REMARK    4  A    between atoms: C_6  and  C_7
REMARK    5  A    between atoms: C_7  and  C_8
REMARK    6  A    between atoms: N_10  and  C_11
REMARK    7  A    between atoms: C_11  and  C_12
REMARK    8  A    between atoms: N_14  and  N_15
REMARK    9  A    between atoms: N_15  and  C_16
REMARK   10  A    between atoms: C_31  and  O_32
REMARK   11  A    between atoms: O_32  and  C_33
REMARK   12  A    between atoms: C_34  and  O_35
REMARK   13  A    between atoms: O_35  and  C_36
REMARK                            x       y       z     vdW  Elec       q    Type
REMARK                         _______ _______ _______ _____ _____    ______ ____
ROOT
ATOM      1  C   UNL A   1      44.062 -39.743 -29.268  0.00  0.00    +0.246 C 
ATOM      2  O   UNL A   1      43.909 -40.849 -28.748  0.00  0.00    -0.273 OA
ATOM      3  N   UNL A   1      45.306 -39.154 -29.413  0.00  0.00    -0.235 N 
ATOM      4  H   UNL A   1      45.426 -38.326 -29.932  0.00  0.00    +0.000 HD
ENDROOT
BRANCH   3   5
ATOM      5  N   UNL A   1      46.399 -39.798 -28.782  0.00  0.00    -0.263 N 
ATOM      6  H   UNL A   1      46.410 -40.091 -27.842  0.00  0.00    +0.000 HD
BRANCH   5   7
ATOM      7  C   UNL A   1      47.484 -39.963 -29.702  0.00  0.00    +0.058 A 
ATOM      8  C   UNL A   1      48.657 -39.182 -29.613  0.00  0.00    -0.003 A 
ATOM      9  C   UNL A   1      49.686 -39.465 -30.515  0.00  0.00    +0.047 A 
ATOM     10  N   UNL A   1      49.591 -40.414 -31.476  0.00  0.00    -0.251 NA
ATOM     11  C   UNL A   1      48.470 -41.142 -31.569  0.00  0.00    +0.073 A 
ATOM     12  C   UNL A   1      48.391 -42.104 -32.568  0.00  0.00    -0.036 A 
ATOM     13  C   UNL A   1      47.258 -42.903 -32.736  0.00  0.00    -0.060 A 
ATOM     14  C   UNL A   1      46.174 -42.743 -31.885  0.00  0.00    -0.061 A 
ATOM     15  C   UNL A   1      46.233 -41.785 -30.874  0.00  0.00    -0.051 A 
ATOM     16  C   UNL A   1      47.378 -40.969 -30.700  0.00  0.00    +0.023 A 
ATOM     17  C   UNL A   1      50.974 -38.682 -30.526  0.00  0.00    -0.010 C 
ATOM     18  C   UNL A   1      51.242 -37.940 -29.222  0.00  0.00    -0.047 C 
ATOM     19  C   UNL A   1      50.000 -37.166 -28.811  0.00  0.00    -0.049 C 
ATOM     20  C   UNL A   1      48.838 -38.123 -28.551  0.00  0.00    -0.024 C 
ENDBRANCH   5   7
ENDBRANCH   3   5
BRANCH   1  21
ATOM     21  C   UNL A   1      42.883 -38.921 -29.791  0.00  0.00    +0.090 C 
BRANCH  21  24
ATOM     22  C   UNL A   1      42.542 -36.826 -31.203  0.00  0.00    +0.214 C 
ATOM     23  O   UNL A   1      43.074 -35.793 -31.606  0.00  0.00    -0.276 OA
ATOM     24  N   UNL A   1      43.281 -37.684 -30.449  0.00  0.00    -0.307 N 
ATOM     25  H   UNL A   1      44.226 -37.430 -30.331  0.00  0.00    +0.000 HD
BRANCH  22  26
ATOM     26  C   UNL A   1      41.112 -37.164 -31.554  0.00  0.00    +0.028 C 
BRANCH  26  27
ATOM     27  C   UNL A   1      40.210 -35.947 -31.352  0.00  0.00    -0.019 C 
BRANCH  27  30
ATOM     28  C   UNL A   1      37.405 -37.532 -29.324  0.00  0.00    +0.165 A 
ATOM     29  C   UNL A   1      38.658 -37.227 -29.863  0.00  0.00    -0.013 A 
ATOM     30  C   UNL A   1      38.815 -36.203 -30.818  0.00  0.00    -0.040 A 
ATOM     31  C   UNL A   1      37.683 -35.478 -31.223  0.00  0.00    -0.013 A 
ATOM     32  C   UNL A   1      36.417 -35.768 -30.703  0.00  0.00    +0.165 A 
ATOM     33  C   UNL A   1      36.287 -36.806 -29.766  0.00  0.00    +0.204 A 
BRANCH  28  35
ATOM     34  C   UNL A   1      37.375 -39.859 -28.793  0.00  0.00    +0.079 C 
ATOM     35  O   UNL A   1      37.165 -38.511 -28.396  0.00  0.00    -0.491 OA
ENDBRANCH  28  35
BRANCH  32  36
ATOM     36  O   UNL A   1      35.260 -35.114 -31.043  0.00  0.00    -0.491 OA
ATOM     37  C   UNL A   1      35.046 -33.821 -30.496  0.00  0.00    +0.079 C 
ENDBRANCH  32  36
BRANCH  33  38
ATOM     38  O   UNL A   1      35.052 -37.071 -29.215  0.00  0.00    -0.488 OA
ATOM     39  C   UNL A   1      34.965 -36.475 -27.922  0.00  0.00    +0.079 C 
ENDBRANCH  33  38
ENDBRANCH  27  30
ENDBRANCH  26  27
ENDBRANCH  22  26
ENDBRANCH  21  24
ENDBRANCH   1  21
TORSDOF 10
ENDMDL
MODEL 2
REMARK VINA RESULT:   -10.385      0.719      2.159
REMARK INTER + INTRA:         -16.821
REMARK INTER:                 -16.637
REMARK INTRA:                  -0.184
REMARK UNBOUND:                -0.365
REMARK  Name = cpd104.pdb
REMARK  13 active torsions:
REMARK  status: ('A' for Active; 'I' for Inactive)
REMARK    1  A    between atoms: C_1  and  O_2
REMARK    2  A    between atoms: O_2  and  C_3
REMARK    3  A    between atoms: C_5  and  C_6
REMARK    4  A    between atoms: C_6  and  C_7
REMARK    5  A    between atoms: C_7  and  C_8
REMARK    6  A    between atoms: N_10  and  C_11
REMARK    7  A    between atoms: C_11  and  C_12
REMARK    8  A    between atoms: N_14  and  N_15
REMARK    9  A    between atoms: N_15  and  C_16
REMARK   10  A    between atoms: C_31  and  O_32
REMARK   11  A    between atoms: O_32  and  C_33
REMARK   12  A    between atoms: C_34  and  O_35
REMARK   13  A    between atoms: O_35  and  C_36
REMARK                            x       y       z     vdW  Elec       q    Type
REMARK                         _______ _______ _______ _____ _____    ______ ____
ROOT
ATOM      1  C   UNL A   1      44.148 -39.907 -29.159  0.00  0.00    +0.246 C 
ATOM      2  O   UNL A   1      44.084 -40.975 -28.548  0.00  0.00    -0.273 OA
ATOM      3  N   UNL A   1      45.345 -39.256 -29.401  0.00  0.00    -0.235 N 
ATOM      4  H   UNL A   1      45.393 -38.467 -29.987  0.00  0.00    +0.000 HD
ENDROOT
BRANCH   3   5
ATOM      5  N   UNL A   1      46.499 -39.779 -28.767  0.00  0.00    -0.263 N 
ATOM      6  H   UNL A   1      46.564 -39.989 -27.807  0.00  0.00    +0.000 HD
BRANCH   5   7
ATOM      7  C   UNL A   1      47.555 -39.960 -29.717  0.00  0.00    +0.058 A 
ATOM      8  C   UNL A   1      48.739 -39.192 -29.665  0.00  0.00    -0.003 A 
ATOM      9  C   UNL A   1      49.739 -39.490 -30.594  0.00  0.00    +0.047 A 
ATOM     10  N   UNL A   1      49.605 -40.441 -31.549  0.00  0.00    -0.251 NA
ATOM     11  C   UNL A   1      48.474 -41.156 -31.607  0.00  0.00    +0.073 A 
ATOM     12  C   UNL A   1      48.355 -42.120 -32.600  0.00  0.00    -0.036 A 
ATOM     13  C   UNL A   1      47.208 -42.907 -32.733  0.00  0.00    -0.060 A 
ATOM     14  C   UNL A   1      46.152 -42.732 -31.852  0.00  0.00    -0.061 A 
ATOM     15  C   UNL A   1      46.251 -41.771 -30.846  0.00  0.00    -0.051 A 
ATOM     16  C   UNL A   1      47.409 -40.967 -30.708  0.00  0.00    +0.023 A 
ATOM     17  C   UNL A   1      51.035 -38.722 -30.645  0.00  0.00    -0.010 C 
ATOM     18  C   UNL A   1      51.348 -37.979 -29.352  0.00  0.00    -0.047 C 
ATOM     19  C   UNL A   1      50.128 -37.190 -28.907  0.00  0.00    -0.049 C 
ATOM     20  C   UNL A   1      48.963 -38.133 -28.612  0.00  0.00    -0.024 C 
ENDBRANCH   5   7
ENDBRANCH   3   5
BRANCH   1  21
ATOM     21  C   UNL A   1      42.900 -39.204 -29.696  0.00  0.00    +0.090 C 
BRANCH  21  24
ATOM     22  C   UNL A   1      42.563 -36.966 -30.868  0.00  0.00    +0.214 C 
ATOM     23  O   UNL A   1      43.030 -36.192 -31.702  0.00  0.00    -0.276 OA
ATOM     24  N   UNL A   1      43.193 -38.153 -30.662  0.00  0.00    -0.307 N 
ATOM     25  H   UNL A   1      43.961 -38.328 -31.253  0.00  0.00    +0.000 HD
BRANCH  22  26
ATOM     26  C   UNL A   1      41.302 -36.633 -30.106  0.00  0.00    +0.028 C 
BRANCH  26  27
ATOM     27  C   UNL A   1      40.091 -36.658 -31.039  0.00  0.00    -0.019 C 
BRANCH  27  30
ATOM     28  C   UNL A   1      36.435 -36.075 -30.152  0.00  0.00    +0.165 A 
ATOM     29  C   UNL A   1      37.714 -35.950 -30.702  0.00  0.00    -0.013 A 
ATOM     30  C   UNL A   1      38.733 -36.876 -30.402  0.00  0.00    -0.040 A 
ATOM     31  C   UNL A   1      38.443 -37.943 -29.537  0.00  0.00    -0.013 A 
ATOM     32  C   UNL A   1      37.172 -38.086 -28.969  0.00  0.00    +0.165 A 
ATOM     33  C   UNL A   1      36.181 -37.138 -29.272  0.00  0.00    +0.204 A 
BRANCH  28  35
ATOM     34  C   UNL A   1      34.799 -35.244 -31.680  0.00  0.00    +0.079 C 
ATOM     35  O   UNL A   1      35.391 -35.219 -30.389  0.00  0.00    -0.491 OA
ENDBRANCH  28  35
BRANCH  32  36
ATOM     36  O   UNL A   1      36.802 -39.094 -28.115  0.00  0.00    -0.491 OA
ATOM     37  C   UNL A   1      36.739 -40.413 -28.638  0.00  0.00    +0.079 C 
ENDBRANCH  32  36
BRANCH  33  38
ATOM     38  O   UNL A   1      34.914 -37.294 -28.753  0.00  0.00    -0.488 OA
ATOM     39  C   UNL A   1      34.147 -38.145 -29.603  0.00  0.00    +0.079 C 
ENDBRANCH  33  38
ENDBRANCH  27  30
ENDBRANCH  26  27
ENDBRANCH  22  26
ENDBRANCH  21  24
ENDBRANCH   1  21
TORSDOF 10
ENDMDL
MODEL 3
REMARK VINA RESULT:    -9.134      6.630     10.173
REMARK INTER + INTRA:         -14.839
REMARK INTER:                 -13.017
REMARK INTRA:                  -1.822
REMARK UNBOUND:                -0.365
REMARK  Name = cpd104.pdb
REMARK  13 active torsions:
REMARK  status: ('A' for Active; 'I' for Inactive)
REMARK    1  A    between atoms: C_1  and  O_2
REMARK    2  A    between atoms: O_2  and  C_3
REMARK    3  A    between atoms: C_5  and  C_6
REMARK    4  A    between atoms: C_6  and  C_7
REMARK    5  A    between atoms: C_7  and  C_8
REMARK    6  A    between atoms: N_10  and  C_11
REMARK    7  A    between atoms: C_11  and  C_12
REMARK    8  A    between atoms: N_14  and  N_15
REMARK    9  A    between atoms: N_15  and  C_16
REMARK   10  A    between atoms: C_31  and  O_32
REMARK   11  A    between atoms: O_32  and  C_33
REMARK   12  A    between atoms: C_34  and  O_35
REMARK   13  A    between atoms: O_35  and  C_36
REMARK                            x       y       z     vdW  Elec       q    Type
REMARK                         _______ _______ _______ _____ _____    ______ ____
ROOT
ATOM      1  C   UNL A   1      34.737 -33.486 -31.516  0.00  0.00    +0.246 C 
ATOM      2  O   UNL A   1      33.947 -34.015 -32.300  0.00  0.00    -0.273 OA
ATOM      3  N   UNL A   1      35.998 -33.999 -31.269  0.00  0.00    -0.235 N 
ATOM      4  H   UNL A   1      36.659 -33.506 -30.731  0.00  0.00    +0.000 HD
ENDROOT
BRANCH   3   5
ATOM      5  N   UNL A   1      36.295 -35.267 -31.827  0.00  0.00    -0.263 N 
ATOM      6  H   UNL A   1      35.937 -35.602 -32.681  0.00  0.00    +0.000 HD
BRANCH   5   7
ATOM      7  C   UNL A   1      37.190 -35.993 -30.976  0.00  0.00    +0.058 A 
ATOM      8  C   UNL A   1      36.767 -36.529 -29.740  0.00  0.00    -0.003 A 
ATOM      9  C   UNL A   1      37.696 -37.278 -29.014  0.00  0.00    +0.047 A 
ATOM     10  N   UNL A   1      38.973 -37.475 -29.422  0.00  0.00    -0.251 NA
ATOM     11  C   UNL A   1      39.376 -36.951 -30.586  0.00  0.00    +0.073 A 
ATOM     12  C   UNL A   1      40.692 -37.158 -30.980  0.00  0.00    -0.036 A 
ATOM     13  C   UNL A   1      41.194 -36.643 -32.178  0.00  0.00    -0.060 A 
ATOM     14  C   UNL A   1      40.364 -35.905 -33.008  0.00  0.00    -0.061 A 
ATOM     15  C   UNL A   1      39.039 -35.686 -32.633  0.00  0.00    -0.051 A 
ATOM     16  C   UNL A   1      38.524 -36.202 -31.418  0.00  0.00    +0.023 A 
ATOM     17  C   UNL A   1      37.361 -37.881 -27.673  0.00  0.00    -0.010 C 
ATOM     18  C   UNL A   1      35.864 -38.021 -27.430  0.00  0.00    -0.047 C 
ATOM     19  C   UNL A   1      35.168 -36.710 -27.760  0.00  0.00    -0.049 C 
ATOM     20  C   UNL A   1      35.352 -36.367 -29.237  0.00  0.00    -0.024 C 
ENDBRANCH   5   7
ENDBRANCH   3   5
BRANCH   1  21
ATOM     21  C   UNL A   1      34.383 -32.216 -30.740  0.00  0.00    +0.090 C 
BRANCH  21  24
ATOM     22  C   UNL A   1      32.172 -32.678 -29.559  0.00  0.00    +0.214 C 
ATOM     23  O   UNL A   1      30.992 -32.344 -29.478  0.00  0.00    -0.276 OA
ATOM     24  N   UNL A   1      32.956 -32.066 -30.486  0.00  0.00    -0.307 N 
ATOM     25  H   UNL A   1      32.491 -31.428 -31.073  0.00  0.00    +0.000 HD
BRANCH  22  26
ATOM     26  C   UNL A   1      32.745 -33.764 -28.679  0.00  0.00    +0.028 C 
BRANCH  26  27
ATOM     27  C   UNL A   1      31.767 -34.115 -27.558  0.00  0.00    -0.019 C 
BRANCH  27  30
ATOM     28  C   UNL A   1      32.207 -36.959 -25.066  0.00  0.00    +0.165 A 
ATOM     29  C   UNL A   1      32.132 -35.690 -25.648  0.00  0.00    -0.013 A 
ATOM     30  C   UNL A   1      31.820 -35.528 -27.012  0.00  0.00    -0.040 A 
ATOM     31  C   UNL A   1      31.574 -36.671 -27.790  0.00  0.00    -0.013 A 
ATOM     32  C   UNL A   1      31.650 -37.952 -27.233  0.00  0.00    +0.165 A 
ATOM     33  C   UNL A   1      31.981 -38.085 -25.874  0.00  0.00    +0.204 A 
BRANCH  28  35
ATOM     34  C   UNL A   1      33.460 -36.360 -23.125  0.00  0.00    +0.079 C 
ATOM     35  O   UNL A   1      32.507 -37.206 -23.752  0.00  0.00    -0.491 OA
ENDBRANCH  28  35
BRANCH  32  36
ATOM     36  O   UNL A   1      31.428 -39.120 -27.917  0.00  0.00    -0.491 OA
ATOM     37  C   UNL A   1      32.338 -39.462 -28.953  0.00  0.00    +0.079 C 
ENDBRANCH  32  36
BRANCH  33  38
ATOM     38  O   UNL A   1      32.014 -39.339 -25.305  0.00  0.00    -0.488 OA
ATOM     39  C   UNL A   1      33.343 -39.855 -25.354  0.00  0.00    +0.079 C 
ENDBRANCH  33  38
ENDBRANCH  27  30
ENDBRANCH  26  27
ENDBRANCH  22  26
ENDBRANCH  21  24
ENDBRANCH   1  21
TORSDOF 10
ENDMDL
MODEL 4
REMARK VINA RESULT:    -8.958      6.786     10.486
REMARK INTER + INTRA:         -14.561
REMARK INTER:                 -12.963
REMARK INTRA:                  -1.598
REMARK UNBOUND:                -0.365
REMARK  Name = cpd104.pdb
REMARK  13 active torsions:
REMARK  status: ('A' for Active; 'I' for Inactive)
REMARK    1  A    between atoms: C_1  and  O_2
REMARK    2  A    between atoms: O_2  and  C_3
REMARK    3  A    between atoms: C_5  and  C_6
REMARK    4  A    between atoms: C_6  and  C_7
REMARK    5  A    between atoms: C_7  and  C_8
REMARK    6  A    between atoms: N_10  and  C_11
REMARK    7  A    between atoms: C_11  and  C_12
REMARK    8  A    between atoms: N_14  and  N_15
REMARK    9  A    between atoms: N_15  and  C_16
REMARK   10  A    between atoms: C_31  and  O_32
REMARK   11  A    between atoms: O_32  and  C_33
REMARK   12  A    between atoms: C_34  and  O_35
REMARK   13  A    between atoms: O_35  and  C_36
REMARK                            x       y       z     vdW  Elec       q    Type
REMARK                         _______ _______ _______ _____ _____    ______ ____
ROOT
ATOM      1  C   UNL A   1      34.058 -35.234 -32.774  0.00  0.00    +0.246 C 
ATOM      2  O   UNL A   1      33.682 -34.175 -32.269  0.00  0.00    -0.273 OA
ATOM      3  N   UNL A   1      35.318 -35.761 -32.551  0.00  0.00    -0.235 N 
ATOM      4  H   UNL A   1      35.564 -36.660 -32.866  0.00  0.00    +0.000 HD
ENDROOT
BRANCH   3   5
ATOM      5  N   UNL A   1      36.238 -34.945 -31.847  0.00  0.00    -0.263 N 
ATOM      6  H   UNL A   1      36.301 -33.966 -31.935  0.00  0.00    +0.000 HD
BRANCH   5   7
ATOM      7  C   UNL A   1      37.063 -35.743 -30.990  0.00  0.00    +0.058 A 
ATOM      8  C   UNL A   1      36.577 -36.272 -29.775  0.00  0.00    -0.003 A 
ATOM      9  C   UNL A   1      37.438 -37.094 -29.043  0.00  0.00    +0.047 A 
ATOM     10  N   UNL A   1      38.708 -37.367 -29.426  0.00  0.00    -0.251 NA
ATOM     11  C   UNL A   1      39.172 -36.850 -30.571  0.00  0.00    +0.073 A 
ATOM     12  C   UNL A   1      40.480 -37.136 -30.939  0.00  0.00    -0.036 A 
ATOM     13  C   UNL A   1      41.043 -36.634 -32.115  0.00  0.00    -0.060 A 
ATOM     14  C   UNL A   1      40.283 -35.828 -32.949  0.00  0.00    -0.061 A 
ATOM     15  C   UNL A   1      38.967 -35.530 -32.599  0.00  0.00    -0.051 A 
ATOM     16  C   UNL A   1      38.391 -36.032 -31.407  0.00  0.00    +0.023 A 
ATOM     17  C   UNL A   1      37.033 -37.697 -27.721  0.00  0.00    -0.010 C 
ATOM     18  C   UNL A   1      35.524 -37.743 -27.515  0.00  0.00    -0.047 C 
ATOM     19  C   UNL A   1      34.924 -36.383 -27.835  0.00  0.00    -0.049 C 
ATOM     20  C   UNL A   1      35.165 -36.027 -29.300  0.00  0.00    -0.024 C 
ENDBRANCH   5   7
ENDBRANCH   3   5
BRANCH   1  21
ATOM     21  C   UNL A   1      33.160 -36.055 -33.702  0.00  0.00    +0.090 C 
BRANCH  21  24
ATOM     22  C   UNL A   1      31.250 -37.576 -32.972  0.00  0.00    +0.214 C 
ATOM     23  O   UNL A   1      30.973 -38.646 -32.432  0.00  0.00    -0.276 OA
ATOM     24  N   UNL A   1      32.558 -37.214 -33.056  0.00  0.00    -0.307 N 
ATOM     25  H   UNL A   1      33.192 -37.826 -32.616  0.00  0.00    +0.000 HD
BRANCH  22  26
ATOM     26  C   UNL A   1      30.173 -36.662 -33.505  0.00  0.00    +0.028 C 
BRANCH  26  27
ATOM     27  C   UNL A   1      29.388 -36.034 -32.354  0.00  0.00    -0.019 C 
BRANCH  27  30
ATOM     28  C   UNL A   1      31.385 -33.956 -29.867  0.00  0.00    +0.165 A 
ATOM     29  C   UNL A   1      30.793 -35.025 -30.545  0.00  0.00    -0.013 A 
ATOM     30  C   UNL A   1      29.995 -34.815 -31.687  0.00  0.00    -0.040 A 
ATOM     31  C   UNL A   1      29.804 -33.502 -32.147  0.00  0.00    -0.013 A 
ATOM     32  C   UNL A   1      30.381 -32.415 -31.482  0.00  0.00    +0.165 A 
ATOM     33  C   UNL A   1      31.157 -32.652 -30.335  0.00  0.00    +0.204 A 
BRANCH  28  35
ATOM     34  C   UNL A   1      31.540 -34.470 -27.541  0.00  0.00    +0.079 C 
ATOM     35  O   UNL A   1      32.170 -34.071 -28.750  0.00  0.00    -0.491 OA
ENDBRANCH  28  35
BRANCH  32  36
ATOM     36  O   UNL A   1      30.247 -31.103 -31.858  0.00  0.00    -0.491 OA
ATOM     37  C   UNL A   1      28.955 -30.654 -32.242  0.00  0.00    +0.079 C 
ENDBRANCH  32  36
BRANCH  33  38
ATOM     38  O   UNL A   1      31.766 -31.592 -29.698  0.00  0.00    -0.488 OA
ATOM     39  C   UNL A   1      33.046 -31.353 -30.280  0.00  0.00    +0.079 C 
ENDBRANCH  33  38
ENDBRANCH  27  30
ENDBRANCH  26  27
ENDBRANCH  22  26
ENDBRANCH  21  24
ENDBRANCH   1  21
TORSDOF 10
ENDMDL
MODEL 5
REMARK VINA RESULT:    -8.928      6.518     10.030
REMARK INTER + INTRA:         -14.512
REMARK INTER:                 -12.900
REMARK INTRA:                  -1.612
REMARK UNBOUND:                -0.365
REMARK  Name = cpd104.pdb
REMARK  13 active torsions:
REMARK  status: ('A' for Active; 'I' for Inactive)
REMARK    1  A    between atoms: C_1  and  O_2
REMARK    2  A    between atoms: O_2  and  C_3
REMARK    3  A    between atoms: C_5  and  C_6
REMARK    4  A    between atoms: C_6  and  C_7
REMARK    5  A    between atoms: C_7  and  C_8
REMARK    6  A    between atoms: N_10  and  C_11
REMARK    7  A    between atoms: C_11  and  C_12
REMARK    8  A    between atoms: N_14  and  N_15
REMARK    9  A    between atoms: N_15  and  C_16
REMARK   10  A    between atoms: C_31  and  O_32
REMARK   11  A    between atoms: O_32  and  C_33
REMARK   12  A    between atoms: C_34  and  O_35
REMARK   13  A    between atoms: O_35  and  C_36
REMARK                            x       y       z     vdW  Elec       q    Type
REMARK                         _______ _______ _______ _____ _____    ______ ____
ROOT
ATOM      1  C   UNL A   1      34.739 -33.596 -31.343  0.00  0.00    +0.246 C 
ATOM      2  O   UNL A   1      33.857 -34.195 -31.960  0.00  0.00    -0.273 OA
ATOM      3  N   UNL A   1      36.061 -34.006 -31.347  0.00  0.00    -0.235 N 
ATOM      4  H   UNL A   1      36.772 -33.456 -30.945  0.00  0.00    +0.000 HD
ENDROOT
BRANCH   3   5
ATOM      5  N   UNL A   1      36.344 -35.254 -31.956  0.00  0.00    -0.263 N 
ATOM      6  H   UNL A   1      35.944 -35.571 -32.797  0.00  0.00    +0.000 HD
BRANCH   5   7
ATOM      7  C   UNL A   1      37.294 -35.989 -31.175  0.00  0.00    +0.058 A 
ATOM      8  C   UNL A   1      38.625 -36.174 -31.607  0.00  0.00    -0.003 A 
ATOM      9  C   UNL A   1      39.493 -36.848 -30.744  0.00  0.00    +0.047 A 
ATOM     10  N   UNL A   1      39.105 -37.354 -29.549  0.00  0.00    -0.251 NA
ATOM     11  C   UNL A   1      37.837 -37.192 -29.149  0.00  0.00    +0.073 A 
ATOM     12  C   UNL A   1      37.460 -37.728 -27.924  0.00  0.00    -0.036 A 
ATOM     13  C   UNL A   1      36.158 -37.608 -27.434  0.00  0.00    -0.060 A 
ATOM     14  C   UNL A   1      35.204 -36.933 -28.182  0.00  0.00    -0.061 A 
ATOM     15  C   UNL A   1      35.562 -36.386 -29.414  0.00  0.00    -0.051 A 
ATOM     16  C   UNL A   1      36.879 -36.508 -29.918  0.00  0.00    +0.023 A 
ATOM     17  C   UNL A   1      40.930 -37.120 -31.110  0.00  0.00    -0.010 C 
ATOM     18  C   UNL A   1      41.455 -36.210 -32.214  0.00  0.00    -0.047 C 
ATOM     19  C   UNL A   1      40.469 -36.189 -33.371  0.00  0.00    -0.049 C 
ATOM     20  C   UNL A   1      39.128 -35.615 -32.917  0.00  0.00    -0.024 C 
ENDBRANCH   5   7
ENDBRANCH   3   5
BRANCH   1  21
ATOM     21  C   UNL A   1      34.443 -32.349 -30.509  0.00  0.00    +0.090 C 
BRANCH  21  24
ATOM     22  C   UNL A   1      32.245 -32.745 -29.280  0.00  0.00    +0.214 C 
ATOM     23  O   UNL A   1      31.076 -32.378 -29.176  0.00  0.00    -0.276 OA
ATOM     24  N   UNL A   1      33.026 -32.159 -30.226  0.00  0.00    -0.307 N 
ATOM     25  H   UNL A   1      32.565 -31.511 -30.807  0.00  0.00    +0.000 HD
BRANCH  22  26
ATOM     26  C   UNL A   1      32.806 -33.842 -28.405  0.00  0.00    +0.028 C 
BRANCH  26  27
ATOM     27  C   UNL A   1      31.722 -34.397 -27.482  0.00  0.00    -0.019 C 
BRANCH  27  30
ATOM     28  C   UNL A   1      31.562 -38.186 -27.154  0.00  0.00    +0.165 A 
ATOM     29  C   UNL A   1      31.406 -36.877 -27.616  0.00  0.00    -0.013 A 
ATOM     30  C   UNL A   1      31.946 -35.783 -26.910  0.00  0.00    -0.040 A 
ATOM     31  C   UNL A   1      32.657 -36.028 -25.724  0.00  0.00    -0.013 A 
ATOM     32  C   UNL A   1      32.821 -37.330 -25.238  0.00  0.00    +0.165 A 
ATOM     33  C   UNL A   1      32.257 -38.399 -25.953  0.00  0.00    +0.204 A 
BRANCH  28  35
ATOM     34  C   UNL A   1      31.199 -39.382 -29.188  0.00  0.00    +0.079 C 
ATOM     35  O   UNL A   1      31.069 -39.303 -27.776  0.00  0.00    -0.491 OA
ENDBRANCH  28  35
BRANCH  32  36
ATOM     36  O   UNL A   1      33.496 -37.660 -24.091  0.00  0.00    -0.491 OA
ATOM     37  C   UNL A   1      33.601 -36.671 -23.077  0.00  0.00    +0.079 C 
ENDBRANCH  32  36
BRANCH  33  38
ATOM     38  O   UNL A   1      32.450 -39.689 -25.506  0.00  0.00    -0.488 OA
ATOM     39  C   UNL A   1      33.633 -40.229 -26.093  0.00  0.00    +0.079 C 
ENDBRANCH  33  38
ENDBRANCH  27  30
ENDBRANCH  26  27
ENDBRANCH  22  26
ENDBRANCH  21  24
ENDBRANCH   1  21
TORSDOF 10
ENDMDL
MODEL 6
REMARK VINA RESULT:    -8.909      5.854      9.498
REMARK INTER + INTRA:         -14.483
REMARK INTER:                 -13.305
REMARK INTRA:                  -1.177
REMARK UNBOUND:                -0.365
REMARK  Name = cpd104.pdb
REMARK  13 active torsions:
REMARK  status: ('A' for Active; 'I' for Inactive)
REMARK    1  A    between atoms: C_1  and  O_2
REMARK    2  A    between atoms: O_2  and  C_3
REMARK    3  A    between atoms: C_5  and  C_6
REMARK    4  A    between atoms: C_6  and  C_7
REMARK    5  A    between atoms: C_7  and  C_8
REMARK    6  A    between atoms: N_10  and  C_11
REMARK    7  A    between atoms: C_11  and  C_12
REMARK    8  A    between atoms: N_14  and  N_15
REMARK    9  A    between atoms: N_15  and  C_16
REMARK   10  A    between atoms: C_31  and  O_32
REMARK   11  A    between atoms: O_32  and  C_33
REMARK   12  A    between atoms: C_34  and  O_35
REMARK   13  A    between atoms: O_35  and  C_36
REMARK                            x       y       z     vdW  Elec       q    Type
REMARK                         _______ _______ _______ _____ _____    ______ ____
ROOT
ATOM      1  C   UNL A   1      37.338 -40.276 -28.611  0.00  0.00    +0.246 C 
ATOM      2  O   UNL A   1      38.301 -40.634 -27.931  0.00  0.00    -0.273 OA
ATOM      3  N   UNL A   1      37.235 -39.005 -29.147  0.00  0.00    -0.235 N 
ATOM      4  H   UNL A   1      36.519 -38.769 -29.780  0.00  0.00    +0.000 HD
ENDROOT
BRANCH   3   5
ATOM      5  N   UNL A   1      38.208 -38.057 -28.742  0.00  0.00    -0.263 N 
ATOM      6  H   UNL A   1      38.693 -38.082 -27.885  0.00  0.00    +0.000 HD
BRANCH   5   7
ATOM      7  C   UNL A   1      38.388 -37.059 -29.753  0.00  0.00    +0.058 A 
ATOM      8  C   UNL A   1      39.573 -36.980 -30.515  0.00  0.00    -0.003 A 
ATOM      9  C   UNL A   1      39.626 -36.014 -31.524  0.00  0.00    +0.047 A 
ATOM     10  N   UNL A   1      38.618 -35.142 -31.769  0.00  0.00    -0.251 NA
ATOM     11  C   UNL A   1      37.501 -35.209 -31.033  0.00  0.00    +0.073 A 
ATOM     12  C   UNL A   1      36.485 -34.299 -31.297  0.00  0.00    -0.036 A 
ATOM     13  C   UNL A   1      35.289 -34.297 -30.574  0.00  0.00    -0.060 A 
ATOM     14  C   UNL A   1      35.098 -35.227 -29.564  0.00  0.00    -0.061 A 
ATOM     15  C   UNL A   1      36.105 -36.151 -29.284  0.00  0.00    -0.051 A 
ATOM     16  C   UNL A   1      37.321 -36.156 -30.009  0.00  0.00    +0.023 A 
ATOM     17  C   UNL A   1      40.848 -35.826 -32.385  0.00  0.00    -0.010 C 
ATOM     18  C   UNL A   1      41.771 -37.038 -32.398  0.00  0.00    -0.047 C 
ATOM     19  C   UNL A   1      42.030 -37.498 -30.972  0.00  0.00    -0.049 C 
ATOM     20  C   UNL A   1      40.725 -37.935 -30.309  0.00  0.00    -0.024 C 
ENDBRANCH   5   7
ENDBRANCH   3   5
BRANCH   1  21
ATOM     21  C   UNL A   1      36.165 -41.211 -28.912  0.00  0.00    +0.090 C 
BRANCH  21  24
ATOM     22  C   UNL A   1      34.305 -40.754 -27.230  0.00  0.00    +0.214 C 
ATOM     23  O   UNL A   1      33.682 -41.218 -26.277  0.00  0.00    -0.276 OA
ATOM     24  N   UNL A   1      35.326 -41.485 -27.753  0.00  0.00    -0.307 N 
ATOM     25  H   UNL A   1      35.527 -42.324 -27.278  0.00  0.00    +0.000 HD
BRANCH  22  26
ATOM     26  C   UNL A   1      33.977 -39.393 -27.798  0.00  0.00    +0.028 C 
BRANCH  26  27
ATOM     27  C   UNL A   1      34.507 -38.290 -26.882  0.00  0.00    -0.019 C 
BRANCH  27  30
ATOM     28  C   UNL A   1      33.281 -37.110 -23.477  0.00  0.00    +0.165 A 
ATOM     29  C   UNL A   1      34.084 -37.584 -24.519  0.00  0.00    -0.013 A 
ATOM     30  C   UNL A   1      33.565 -37.766 -25.816  0.00  0.00    -0.040 A 
ATOM     31  C   UNL A   1      32.217 -37.456 -26.055  0.00  0.00    -0.013 A 
ATOM     32  C   UNL A   1      31.392 -36.986 -25.027  0.00  0.00    +0.165 A 
ATOM     33  C   UNL A   1      31.931 -36.831 -23.740  0.00  0.00    +0.204 A 
BRANCH  28  35
ATOM     34  C   UNL A   1      34.083 -38.049 -21.434  0.00  0.00    +0.079 C 
ATOM     35  O   UNL A   1      33.704 -36.907 -22.189  0.00  0.00    -0.491 OA
ENDBRANCH  28  35
BRANCH  32  36
ATOM     36  O   UNL A   1      30.067 -36.662 -25.170  0.00  0.00    -0.491 OA
ATOM     37  C   UNL A   1      29.176 -37.688 -25.584  0.00  0.00    +0.079 C 
ENDBRANCH  32  36
BRANCH  33  38
ATOM     38  O   UNL A   1      31.139 -36.328 -22.730  0.00  0.00    -0.488 OA
ATOM     39  C   UNL A   1      30.467 -37.397 -22.067  0.00  0.00    +0.079 C 
ENDBRANCH  33  38
ENDBRANCH  27  30
ENDBRANCH  26  27
ENDBRANCH  22  26
ENDBRANCH  21  24
ENDBRANCH   1  21
TORSDOF 10
ENDMDL
MODEL 7
REMARK VINA RESULT:    -8.890     17.877     20.302
REMARK INTER + INTRA:         -14.452
REMARK INTER:                 -12.416
REMARK INTRA:                  -2.036
REMARK UNBOUND:                -0.365
REMARK  Name = cpd104.pdb
REMARK  13 active torsions:
REMARK  status: ('A' for Active; 'I' for Inactive)
REMARK    1  A    between atoms: C_1  and  O_2
REMARK    2  A    between atoms: O_2  and  C_3
REMARK    3  A    between atoms: C_5  and  C_6
REMARK    4  A    between atoms: C_6  and  C_7
REMARK    5  A    between atoms: C_7  and  C_8
REMARK    6  A    between atoms: N_10  and  C_11
REMARK    7  A    between atoms: C_11  and  C_12
REMARK    8  A    between atoms: N_14  and  N_15
REMARK    9  A    between atoms: N_15  and  C_16
REMARK   10  A    between atoms: C_31  and  O_32
REMARK   11  A    between atoms: O_32  and  C_33
REMARK   12  A    between atoms: C_34  and  O_35
REMARK   13  A    between atoms: O_35  and  C_36
REMARK                            x       y       z     vdW  Elec       q    Type
REMARK                         _______ _______ _______ _____ _____    ______ ____
ROOT
ATOM      1  C   UNL A   1      46.839 -20.055 -35.936  0.00  0.00    +0.246 C 
ATOM      2  O   UNL A   1      47.781 -19.283 -35.752  0.00  0.00    -0.273 OA
ATOM      3  N   UNL A   1      46.615 -20.682 -37.149  0.00  0.00    -0.235 N 
ATOM      4  H   UNL A   1      45.929 -21.381 -37.248  0.00  0.00    +0.000 HD
ENDROOT
BRANCH   3   5
ATOM      5  N   UNL A   1      47.418 -20.271 -38.241  0.00  0.00    -0.263 N 
ATOM      6  H   UNL A   1      48.362 -20.001 -38.173  0.00  0.00    +0.000 HD
BRANCH   5   7
ATOM      7  C   UNL A   1      46.664 -20.304 -39.459  0.00  0.00    +0.058 A 
ATOM      8  C   UNL A   1      45.771 -19.267 -39.807  0.00  0.00    -0.003 A 
ATOM      9  C   UNL A   1      45.133 -19.358 -41.047  0.00  0.00    +0.047 A 
ATOM     10  N   UNL A   1      45.305 -20.400 -41.895  0.00  0.00    -0.251 NA
ATOM     11  C   UNL A   1      46.139 -21.391 -41.554  0.00  0.00    +0.073 A 
ATOM     12  C   UNL A   1      46.292 -22.454 -42.435  0.00  0.00    -0.036 A 
ATOM     13  C   UNL A   1      47.139 -23.529 -42.156  0.00  0.00    -0.060 A 
ATOM     14  C   UNL A   1      47.856 -23.546 -40.969  0.00  0.00    -0.061 A 
ATOM     15  C   UNL A   1      47.719 -22.488 -40.071  0.00  0.00    -0.051 A 
ATOM     16  C   UNL A   1      46.859 -21.397 -40.346  0.00  0.00    +0.023 A 
ATOM     17  C   UNL A   1      44.145 -18.320 -41.514  0.00  0.00    -0.010 C 
ATOM     18  C   UNL A   1      44.278 -16.988 -40.784  0.00  0.00    -0.047 C 
ATOM     19  C   UNL A   1      44.326 -17.230 -39.284  0.00  0.00    -0.049 C 
ATOM     20  C   UNL A   1      45.552 -18.065 -38.919  0.00  0.00    -0.024 C 
ENDBRANCH   5   7
ENDBRANCH   3   5
BRANCH   1  21
ATOM     21  C   UNL A   1      45.828 -20.379 -34.835  0.00  0.00    +0.090 C 
BRANCH  21  24
ATOM     22  C   UNL A   1      44.939 -18.121 -34.053  0.00  0.00    +0.214 C 
ATOM     23  O   UNL A   1      44.835 -17.366 -33.088  0.00  0.00    -0.276 OA
ATOM     24  N   UNL A   1      45.622 -19.286 -33.893  0.00  0.00    -0.307 N 
ATOM     25  H   UNL A   1      46.038 -19.410 -33.009  0.00  0.00    +0.000 HD
BRANCH  22  26
ATOM     26  C   UNL A   1      44.355 -17.763 -35.400  0.00  0.00    +0.028 C 
BRANCH  26  27
ATOM     27  C   UNL A   1      42.834 -17.907 -35.379  0.00  0.00    -0.019 C 
BRANCH  27  30
ATOM     28  C   UNL A   1      41.699 -21.055 -37.195  0.00  0.00    +0.165 A 
ATOM     29  C   UNL A   1      42.211 -19.785 -36.911  0.00  0.00    -0.013 A 
ATOM     30  C   UNL A   1      42.269 -19.298 -35.590  0.00  0.00    -0.040 A 
ATOM     31  C   UNL A   1      41.808 -20.116 -34.547  0.00  0.00    -0.013 A 
ATOM     32  C   UNL A   1      41.285 -21.388 -34.806  0.00  0.00    +0.165 A 
ATOM     33  C   UNL A   1      41.222 -21.841 -36.134  0.00  0.00    +0.204 A 
BRANCH  28  35
ATOM     34  C   UNL A   1      42.773 -21.608 -39.253  0.00  0.00    +0.079 C 
ATOM     35  O   UNL A   1      41.604 -21.603 -38.447  0.00  0.00    -0.491 OA
ENDBRANCH  28  35
BRANCH  32  36
ATOM     36  O   UNL A   1      40.811 -22.251 -33.851  0.00  0.00    -0.491 OA
ATOM     37  C   UNL A   1      39.790 -21.780 -32.983  0.00  0.00    +0.079 C 
ENDBRANCH  32  36
BRANCH  33  38
ATOM     38  O   UNL A   1      40.750 -23.109 -36.396  0.00  0.00    -0.488 OA
ATOM     39  C   UNL A   1      39.335 -23.069 -36.572  0.00  0.00    +0.079 C 
ENDBRANCH  33  38
ENDBRANCH  27  30
ENDBRANCH  26  27
ENDBRANCH  22  26
ENDBRANCH  21  24
ENDBRANCH   1  21
TORSDOF 10
ENDMDL
MODEL 8
REMARK VINA RESULT:    -8.611     18.410     21.407
REMARK INTER + INTRA:         -14.011
REMARK INTER:                 -12.182
REMARK INTRA:                  -1.828
REMARK UNBOUND:                -0.365
REMARK  Name = cpd104.pdb
REMARK  13 active torsions:
REMARK  status: ('A' for Active; 'I' for Inactive)
REMARK    1  A    between atoms: C_1  and  O_2
REMARK    2  A    between atoms: O_2  and  C_3
REMARK    3  A    between atoms: C_5  and  C_6
REMARK    4  A    between atoms: C_6  and  C_7
REMARK    5  A    between atoms: C_7  and  C_8
REMARK    6  A    between atoms: N_10  and  C_11
REMARK    7  A    between atoms: C_11  and  C_12
REMARK    8  A    between atoms: N_14  and  N_15
REMARK    9  A    between atoms: N_15  and  C_16
REMARK   10  A    between atoms: C_31  and  O_32
REMARK   11  A    between atoms: O_32  and  C_33
REMARK   12  A    between atoms: C_34  and  O_35
REMARK   13  A    between atoms: O_35  and  C_36
REMARK                            x       y       z     vdW  Elec       q    Type
REMARK                         _______ _______ _______ _____ _____    ______ ____
ROOT
ATOM      1  C   UNL A   1      44.662 -19.592 -33.931  0.00  0.00    +0.246 C 
ATOM      2  O   UNL A   1      45.398 -20.566 -33.765  0.00  0.00    -0.273 OA
ATOM      3  N   UNL A   1      43.288 -19.707 -34.053  0.00  0.00    -0.235 N 
ATOM      4  H   UNL A   1      42.704 -18.915 -34.070  0.00  0.00    +0.000 HD
ENDROOT
BRANCH   3   5
ATOM      5  N   UNL A   1      42.761 -21.018 -34.152  0.00  0.00    -0.263 N 
ATOM      6  H   UNL A   1      43.158 -21.816 -33.733  0.00  0.00    +0.000 HD
BRANCH   5   7
ATOM      7  C   UNL A   1      41.570 -21.021 -34.948  0.00  0.00    +0.058 A 
ATOM      8  C   UNL A   1      41.620 -21.037 -36.359  0.00  0.00    -0.003 A 
ATOM      9  C   UNL A   1      40.404 -21.108 -37.044  0.00  0.00    +0.047 A 
ATOM     10  N   UNL A   1      39.201 -21.122 -36.421  0.00  0.00    -0.251 NA
ATOM     11  C   UNL A   1      39.156 -21.089 -35.083  0.00  0.00    +0.073 A 
ATOM     12  C   UNL A   1      37.912 -21.096 -34.466  0.00  0.00    -0.036 A 
ATOM     13  C   UNL A   1      37.775 -21.060 -33.076  0.00  0.00    -0.060 A 
ATOM     14  C   UNL A   1      38.908 -21.019 -32.278  0.00  0.00    -0.061 A 
ATOM     15  C   UNL A   1      40.168 -21.014 -32.876  0.00  0.00    -0.051 A 
ATOM     16  C   UNL A   1      40.313 -21.047 -34.284  0.00  0.00    +0.023 A 
ATOM     17  C   UNL A   1      40.336 -21.110 -38.550  0.00  0.00    -0.010 C 
ATOM     18  C   UNL A   1      41.646 -21.516 -39.213  0.00  0.00    -0.047 C 
ATOM     19  C   UNL A   1      42.794 -20.727 -38.603  0.00  0.00    -0.049 C 
ATOM     20  C   UNL A   1      42.927 -21.047 -37.115  0.00  0.00    -0.024 C 
ENDBRANCH   5   7
ENDBRANCH   3   5
BRANCH   1  21
ATOM     21  C   UNL A   1      45.210 -18.167 -34.025  0.00  0.00    +0.090 C 
BRANCH  21  24
ATOM     22  C   UNL A   1      47.505 -18.076 -35.130  0.00  0.00    +0.214 C 
ATOM     23  O   UNL A   1      48.711 -17.949 -34.923  0.00  0.00    -0.276 OA
ATOM     24  N   UNL A   1      46.665 -18.103 -34.061  0.00  0.00    -0.307 N 
ATOM     25  H   UNL A   1      47.106 -18.076 -33.181  0.00  0.00    +0.000 HD
BRANCH  22  26
ATOM     26  C   UNL A   1      46.958 -18.230 -36.529  0.00  0.00    +0.028 C 
BRANCH  26  27
ATOM     27  C   UNL A   1      46.800 -19.708 -36.882  0.00  0.00    -0.019 C 
BRANCH  27  30
ATOM     28  C   UNL A   1      45.703 -19.233 -40.496  0.00  0.00    +0.165 A 
ATOM     29  C   UNL A   1      46.016 -19.006 -39.153  0.00  0.00    -0.013 A 
ATOM     30  C   UNL A   1      46.492 -20.045 -38.327  0.00  0.00    -0.040 A 
ATOM     31  C   UNL A   1      46.657 -21.325 -38.879  0.00  0.00    -0.013 A 
ATOM     32  C   UNL A   1      46.344 -21.578 -40.219  0.00  0.00    +0.165 A 
ATOM     33  C   UNL A   1      45.854 -20.529 -41.014  0.00  0.00    +0.204 A 
BRANCH  28  35
ATOM     34  C   UNL A   1      45.201 -16.936 -40.912  0.00  0.00    +0.079 C 
ATOM     35  O   UNL A   1      45.233 -18.282 -41.364  0.00  0.00    -0.491 OA
ENDBRANCH  28  35
BRANCH  32  36
ATOM     36  O   UNL A   1      46.471 -22.795 -40.839  0.00  0.00    -0.491 OA
ATOM     37  C   UNL A   1      47.759 -23.394 -40.862  0.00  0.00    +0.079 C 
ENDBRANCH  32  36
BRANCH  33  38
ATOM     38  O   UNL A   1      45.584 -20.756 -42.346  0.00  0.00    -0.488 OA
ATOM     39  C   UNL A   1      44.220 -21.140 -42.502  0.00  0.00    +0.079 C 
ENDBRANCH  33  38
ENDBRANCH  27  30
ENDBRANCH  26  27
ENDBRANCH  22  26
ENDBRANCH  21  24
ENDBRANCH   1  21
TORSDOF 10
ENDMDL
MODEL 9
REMARK VINA RESULT:    -8.572      5.944      9.446
REMARK INTER + INTRA:         -13.949
REMARK INTER:                 -12.059
REMARK INTRA:                  -1.890
REMARK UNBOUND:                -0.365
REMARK  Name = cpd104.pdb
REMARK  13 active torsions:
REMARK  status: ('A' for Active; 'I' for Inactive)
REMARK    1  A    between atoms: C_1  and  O_2
REMARK    2  A    between atoms: O_2  and  C_3
REMARK    3  A    between atoms: C_5  and  C_6
REMARK    4  A    between atoms: C_6  and  C_7
REMARK    5  A    between atoms: C_7  and  C_8
REMARK    6  A    between atoms: N_10  and  C_11
REMARK    7  A    between atoms: C_11  and  C_12
REMARK    8  A    between atoms: N_14  and  N_15
REMARK    9  A    between atoms: N_15  and  C_16
REMARK   10  A    between atoms: C_31  and  O_32
REMARK   11  A    between atoms: O_32  and  C_33
REMARK   12  A    between atoms: C_34  and  O_35
REMARK   13  A    between atoms: O_35  and  C_36
REMARK                            x       y       z     vdW  Elec       q    Type
REMARK                         _______ _______ _______ _____ _____    ______ ____
ROOT
ATOM      1  C   UNL A   1      37.303 -40.477 -28.448  0.00  0.00    +0.246 C 
ATOM      2  O   UNL A   1      38.362 -40.718 -27.866  0.00  0.00    -0.273 OA
ATOM      3  N   UNL A   1      36.917 -39.194 -28.794  0.00  0.00    -0.235 N 
ATOM      4  H   UNL A   1      36.128 -39.027 -29.357  0.00  0.00    +0.000 HD
ENDROOT
BRANCH   3   5
ATOM      5  N   UNL A   1      37.711 -38.130 -28.298  0.00  0.00    -0.263 N 
ATOM      6  H   UNL A   1      38.052 -38.067 -27.376  0.00  0.00    +0.000 HD
BRANCH   5   7
ATOM      7  C   UNL A   1      37.949 -37.160 -29.325  0.00  0.00    +0.058 A 
ATOM      8  C   UNL A   1      39.164 -37.125 -30.045  0.00  0.00    -0.003 A 
ATOM      9  C   UNL A   1      39.273 -36.185 -31.073  0.00  0.00    +0.047 A 
ATOM     10  N   UNL A   1      38.294 -35.299 -31.376  0.00  0.00    -0.251 NA
ATOM     11  C   UNL A   1      37.150 -35.324 -30.680  0.00  0.00    +0.073 A 
ATOM     12  C   UNL A   1      36.164 -34.400 -31.002  0.00  0.00    -0.036 A 
ATOM     13  C   UNL A   1      34.944 -34.355 -30.324  0.00  0.00    -0.060 A 
ATOM     14  C   UNL A   1      34.696 -35.257 -29.300  0.00  0.00    -0.061 A 
ATOM     15  C   UNL A   1      35.671 -36.194 -28.961  0.00  0.00    -0.051 A 
ATOM     16  C   UNL A   1      36.912 -36.242 -29.642  0.00  0.00    +0.023 A 
ATOM     17  C   UNL A   1      40.530 -36.043 -31.893  0.00  0.00    -0.010 C 
ATOM     18  C   UNL A   1      41.426 -37.274 -31.843  0.00  0.00    -0.047 C 
ATOM     19  C   UNL A   1      41.623 -37.705 -30.398  0.00  0.00    -0.049 C 
ATOM     20  C   UNL A   1      40.286 -38.098 -29.774  0.00  0.00    -0.024 C 
ENDBRANCH   5   7
ENDBRANCH   3   5
BRANCH   1  21
ATOM     21  C   UNL A   1      36.318 -41.583 -28.832  0.00  0.00    +0.090 C 
BRANCH  21  24
ATOM     22  C   UNL A   1      34.079 -40.752 -29.723  0.00  0.00    +0.214 C 
ATOM     23  O   UNL A   1      32.907 -40.525 -29.429  0.00  0.00    -0.276 OA
ATOM     24  N   UNL A   1      34.922 -41.176 -28.743  0.00  0.00    -0.307 N 
ATOM     25  H   UNL A   1      34.530 -41.213 -27.840  0.00  0.00    +0.000 HD
BRANCH  22  26
ATOM     26  C   UNL A   1      34.593 -40.541 -31.127  0.00  0.00    +0.028 C 
BRANCH  26  27
ATOM     27  C   UNL A   1      34.668 -39.049 -31.450  0.00  0.00    -0.019 C 
BRANCH  27  30
ATOM     28  C   UNL A   1      32.555 -36.532 -33.371  0.00  0.00    +0.165 A 
ATOM     29  C   UNL A   1      33.466 -37.113 -32.485  0.00  0.00    -0.013 A 
ATOM     30  C   UNL A   1      33.664 -38.507 -32.448  0.00  0.00    -0.040 A 
ATOM     31  C   UNL A   1      32.929 -39.317 -33.328  0.00  0.00    -0.013 A 
ATOM     32  C   UNL A   1      32.006 -38.760 -34.220  0.00  0.00    +0.165 A 
ATOM     33  C   UNL A   1      31.816 -37.369 -34.222  0.00  0.00    +0.204 A 
BRANCH  28  35
ATOM     34  C   UNL A   1      31.987 -34.490 -32.273  0.00  0.00    +0.079 C 
ATOM     35  O   UNL A   1      32.301 -35.189 -33.469  0.00  0.00    -0.491 OA
ENDBRANCH  28  35
BRANCH  32  36
ATOM     36  O   UNL A   1      31.245 -39.474 -35.111  0.00  0.00    -0.491 OA
ATOM     37  C   UNL A   1      30.238 -40.327 -34.586  0.00  0.00    +0.079 C 
ENDBRANCH  32  36
BRANCH  33  38
ATOM     38  O   UNL A   1      30.942 -36.805 -35.127  0.00  0.00    -0.488 OA
ATOM     39  C   UNL A   1      29.670 -36.614 -34.511  0.00  0.00    +0.079 C 
ENDBRANCH  33  38
ENDBRANCH  27  30
ENDBRANCH  26  27
ENDBRANCH  22  26
ENDBRANCH  21  24
ENDBRANCH   1  21
TORSDOF 10
ENDMDL
MODEL 10
REMARK VINA RESULT:    -8.477     18.104     20.562
REMARK INTER + INTRA:         -13.799
REMARK INTER:                 -11.758
REMARK INTRA:                  -2.041
REMARK UNBOUND:                -0.365
REMARK  Name = cpd104.pdb
REMARK  13 active torsions:
REMARK  status: ('A' for Active; 'I' for Inactive)
REMARK    1  A    between atoms: C_1  and  O_2
REMARK    2  A    between atoms: O_2  and  C_3
REMARK    3  A    between atoms: C_5  and  C_6
REMARK    4  A    between atoms: C_6  and  C_7
REMARK    5  A    between atoms: C_7  and  C_8
REMARK    6  A    between atoms: N_10  and  C_11
REMARK    7  A    between atoms: C_11  and  C_12
REMARK    8  A    between atoms: N_14  and  N_15
REMARK    9  A    between atoms: N_15  and  C_16
REMARK   10  A    between atoms: C_31  and  O_32
REMARK   11  A    between atoms: O_32  and  C_33
REMARK   12  A    between atoms: C_34  and  O_35
REMARK   13  A    between atoms: O_35  and  C_36
REMARK                            x       y       z     vdW  Elec       q    Type
REMARK                         _______ _______ _______ _____ _____    ______ ____
ROOT
ATOM      1  C   UNL A   1      46.838 -20.074 -35.807  0.00  0.00    +0.246 C 
ATOM      2  O   UNL A   1      47.902 -19.530 -35.505  0.00  0.00    -0.273 OA
ATOM      3  N   UNL A   1      46.548 -20.480 -37.098  0.00  0.00    -0.235 N 
ATOM      4  H   UNL A   1      45.747 -21.013 -37.303  0.00  0.00    +0.000 HD
ENDROOT
BRANCH   3   5
ATOM      5  N   UNL A   1      47.458 -20.090 -38.112  0.00  0.00    -0.263 N 
ATOM      6  H   UNL A   1      48.384 -19.796 -37.952  0.00  0.00    +0.000 HD
BRANCH   5   7
ATOM      7  C   UNL A   1      46.843 -20.185 -39.402  0.00  0.00    +0.058 A 
ATOM      8  C   UNL A   1      47.097 -21.271 -40.268  0.00  0.00    -0.003 A 
ATOM      9  C   UNL A   1      46.397 -21.307 -41.476  0.00  0.00    +0.047 A 
ATOM     10  N   UNL A   1      45.529 -20.340 -41.860  0.00  0.00    -0.251 NA
ATOM     11  C   UNL A   1      45.303 -19.302 -41.044  0.00  0.00    +0.073 A 
ATOM     12  C   UNL A   1      44.415 -18.319 -41.462  0.00  0.00    -0.036 A 
ATOM     13  C   UNL A   1      44.125 -17.202 -40.674  0.00  0.00    -0.060 A 
ATOM     14  C   UNL A   1      44.732 -17.061 -39.435  0.00  0.00    -0.061 A 
ATOM     15  C   UNL A   1      45.625 -18.038 -38.995  0.00  0.00    -0.051 A 
ATOM     16  C   UNL A   1      45.926 -19.171 -39.790  0.00  0.00    +0.023 A 
ATOM     17  C   UNL A   1      46.604 -22.407 -42.486  0.00  0.00    -0.010 C 
ATOM     18  C   UNL A   1      47.226 -23.664 -41.891  0.00  0.00    -0.047 C 
ATOM     19  C   UNL A   1      48.443 -23.288 -41.062  0.00  0.00    -0.049 C 
ATOM     20  C   UNL A   1      48.035 -22.394 -39.893  0.00  0.00    -0.024 C 
ENDBRANCH   5   7
ENDBRANCH   3   5
BRANCH   1  21
ATOM     21  C   UNL A   1      45.740 -20.340 -34.776  0.00  0.00    +0.090 C 
BRANCH  21  24
ATOM     22  C   UNL A   1      45.035 -18.043 -33.924  0.00  0.00    +0.214 C 
ATOM     23  O   UNL A   1      44.959 -17.325 -32.928  0.00  0.00    -0.276 OA
ATOM     24  N   UNL A   1      45.596 -19.275 -33.791  0.00  0.00    -0.307 N 
ATOM     25  H   UNL A   1      45.957 -19.478 -32.898  0.00  0.00    +0.000 HD
BRANCH  22  26
ATOM     26  C   UNL A   1      44.552 -17.570 -35.274  0.00  0.00    +0.028 C 
BRANCH  26  27
ATOM     27  C   UNL A   1      43.033 -17.704 -35.375  0.00  0.00    -0.019 C 
BRANCH  27  30
ATOM     28  C   UNL A   1      42.007 -20.611 -37.609  0.00  0.00    +0.165 A 
ATOM     29  C   UNL A   1      42.498 -19.386 -37.151  0.00  0.00    -0.013 A 
ATOM     30  C   UNL A   1      42.484 -19.058 -35.780  0.00  0.00    -0.040 A 
ATOM     31  C   UNL A   1      41.969 -19.993 -34.868  0.00  0.00    -0.013 A 
ATOM     32  C   UNL A   1      41.465 -21.223 -35.303  0.00  0.00    +0.165 A 
ATOM     33  C   UNL A   1      41.475 -21.515 -36.676  0.00  0.00    +0.204 A 
BRANCH  28  35
ATOM     34  C   UNL A   1      43.172 -21.553 -39.468  0.00  0.00    +0.079 C 
ATOM     35  O   UNL A   1      41.980 -21.007 -38.921  0.00  0.00    -0.491 OA
ENDBRANCH  28  35
BRANCH  32  36
ATOM     36  O   UNL A   1      40.943 -22.192 -34.484  0.00  0.00    -0.491 OA
ATOM     37  C   UNL A   1      39.798 -21.858 -33.712  0.00  0.00    +0.079 C 
ENDBRANCH  32  36
BRANCH  33  38
ATOM     38  O   UNL A   1      41.022 -22.742 -37.112  0.00  0.00    -0.488 OA
ATOM     39  C   UNL A   1      39.632 -22.660 -37.419  0.00  0.00    +0.079 C 
ENDBRANCH  33  38
ENDBRANCH  27  30
ENDBRANCH  26  27
ENDBRANCH  22  26
ENDBRANCH  21  24
ENDBRANCH   1  21
TORSDOF 10
ENDMDL
MODEL 11
REMARK VINA RESULT:    -8.269     18.708     21.671
REMARK INTER + INTRA:         -13.469
REMARK INTER:                 -11.493
REMARK INTRA:                  -1.976
REMARK UNBOUND:                -0.365
REMARK  Name = cpd104.pdb
REMARK  13 active torsions:
REMARK  status: ('A' for Active; 'I' for Inactive)
REMARK    1  A    between atoms: C_1  and  O_2
REMARK    2  A    between atoms: O_2  and  C_3
REMARK    3  A    between atoms: C_5  and  C_6
REMARK    4  A    between atoms: C_6  and  C_7
REMARK    5  A    between atoms: C_7  and  C_8
REMARK    6  A    between atoms: N_10  and  C_11
REMARK    7  A    between atoms: C_11  and  C_12
REMARK    8  A    between atoms: N_14  and  N_15
REMARK    9  A    between atoms: N_15  and  C_16
REMARK   10  A    between atoms: C_31  and  O_32
REMARK   11  A    between atoms: O_32  and  C_33
REMARK   12  A    between atoms: C_34  and  O_35
REMARK   13  A    between atoms: O_35  and  C_36
REMARK                            x       y       z     vdW  Elec       q    Type
REMARK                         _______ _______ _______ _____ _____    ______ ____
ROOT
ATOM      1  C   UNL A   1      44.666 -19.471 -33.866  0.00  0.00    +0.246 C 
ATOM      2  O   UNL A   1      45.401 -20.459 -33.883  0.00  0.00    -0.273 OA
ATOM      3  N   UNL A   1      43.286 -19.569 -33.843  0.00  0.00    -0.235 N 
ATOM      4  H   UNL A   1      42.715 -18.777 -33.715  0.00  0.00    +0.000 HD
ENDROOT
BRANCH   3   5
ATOM      5  N   UNL A   1      42.732 -20.862 -34.013  0.00  0.00    -0.263 N 
ATOM      6  H   UNL A   1      43.098 -21.686 -33.618  0.00  0.00    +0.000 HD
BRANCH   5   7
ATOM      7  C   UNL A   1      41.564 -20.802 -34.841  0.00  0.00    +0.058 A 
ATOM      8  C   UNL A   1      40.269 -20.691 -34.290  0.00  0.00    -0.003 A 
ATOM      9  C   UNL A   1      39.200 -20.572 -35.182  0.00  0.00    +0.047 A 
ATOM     10  N   UNL A   1      39.350 -20.597 -36.528  0.00  0.00    -0.251 NA
ATOM     11  C   UNL A   1      40.578 -20.720 -37.047  0.00  0.00    +0.073 A 
ATOM     12  C   UNL A   1      40.707 -20.752 -38.430  0.00  0.00    -0.036 A 
ATOM     13  C   UNL A   1      41.950 -20.882 -39.054  0.00  0.00    -0.060 A 
ATOM     14  C   UNL A   1      43.097 -20.979 -38.280  0.00  0.00    -0.061 A 
ATOM     15  C   UNL A   1      42.991 -20.946 -36.890  0.00  0.00    -0.051 A 
ATOM     16  C   UNL A   1      41.733 -20.819 -36.252  0.00  0.00    +0.023 A 
ATOM     17  C   UNL A   1      37.773 -20.468 -34.707  0.00  0.00    -0.010 C 
ATOM     18  C   UNL A   1      37.650 -20.021 -33.255  0.00  0.00    -0.047 C 
ATOM     19  C   UNL A   1      38.579 -20.852 -32.384  0.00  0.00    -0.049 C 
ATOM     20  C   UNL A   1      40.033 -20.634 -32.799  0.00  0.00    -0.024 C 
ENDBRANCH   5   7
ENDBRANCH   3   5
BRANCH   1  21
ATOM     21  C   UNL A   1      45.221 -18.046 -33.878  0.00  0.00    +0.090 C 
BRANCH  21  24
ATOM     22  C   UNL A   1      47.464 -17.889 -35.079  0.00  0.00    +0.214 C 
ATOM     23  O   UNL A   1      48.679 -17.783 -34.920  0.00  0.00    -0.276 OA
ATOM     24  N   UNL A   1      46.674 -17.987 -33.977  0.00  0.00    -0.307 N 
ATOM     25  H   UNL A   1      47.154 -18.023 -33.118  0.00  0.00    +0.000 HD
BRANCH  22  26
ATOM     26  C   UNL A   1      46.852 -17.944 -36.459  0.00  0.00    +0.028 C 
BRANCH  26  27
ATOM     27  C   UNL A   1      46.981 -19.350 -37.045  0.00  0.00    -0.019 C 
BRANCH  27  30
ATOM     28  C   UNL A   1      45.346 -18.658 -40.413  0.00  0.00    +0.165 A 
ATOM     29  C   UNL A   1      45.748 -18.565 -39.077  0.00  0.00    -0.013 A 
ATOM     30  C   UNL A   1      46.603 -19.527 -38.502  0.00  0.00    -0.040 A 
ATOM     31  C   UNL A   1      47.057 -20.590 -39.299  0.00  0.00    -0.013 A 
ATOM     32  C   UNL A   1      46.664 -20.708 -40.637  0.00  0.00    +0.165 A 
ATOM     33  C   UNL A   1      45.797 -19.745 -41.178  0.00  0.00    +0.204 A 
BRANCH  28  35
ATOM     34  C   UNL A   1      43.353 -17.345 -40.353  0.00  0.00    +0.079 C 
ATOM     35  O   UNL A   1      44.517 -17.770 -41.048  0.00  0.00    -0.491 OA
ENDBRANCH  28  35
BRANCH  32  36
ATOM     36  O   UNL A   1      47.057 -21.711 -41.485  0.00  0.00    -0.491 OA
ATOM     37  C   UNL A   1      46.782 -23.050 -41.098  0.00  0.00    +0.079 C 
ENDBRANCH  32  36
BRANCH  33  38
ATOM     38  O   UNL A   1      45.438 -19.827 -42.507  0.00  0.00    -0.488 OA
ATOM     39  C   UNL A   1      44.220 -20.558 -42.632  0.00  0.00    +0.079 C 
ENDBRANCH  33  38
ENDBRANCH  27  30
ENDBRANCH  26  27
ENDBRANCH  22  26
ENDBRANCH  21  24
ENDBRANCH   1  21
TORSDOF 10
ENDMDL
MODEL 12
REMARK VINA RESULT:    -8.171     18.769     21.223
REMARK INTER + INTRA:         -13.313
REMARK INTER:                 -11.643
REMARK INTRA:                  -1.670
REMARK UNBOUND:                -0.365
REMARK  Name = cpd104.pdb
REMARK  13 active torsions:
REMARK  status: ('A' for Active; 'I' for Inactive)
REMARK    1  A    between atoms: C_1  and  O_2
REMARK    2  A    between atoms: O_2  and  C_3
REMARK    3  A    between atoms: C_5  and  C_6
REMARK    4  A    between atoms: C_6  and  C_7
REMARK    5  A    between atoms: C_7  and  C_8
REMARK    6  A    between atoms: N_10  and  C_11
REMARK    7  A    between atoms: C_11  and  C_12
REMARK    8  A    between atoms: N_14  and  N_15
REMARK    9  A    between atoms: N_15  and  C_16
REMARK   10  A    between atoms: C_31  and  O_32
REMARK   11  A    between atoms: O_32  and  C_33
REMARK   12  A    between atoms: C_34  and  O_35
REMARK   13  A    between atoms: O_35  and  C_36
REMARK                            x       y       z     vdW  Elec       q    Type
REMARK                         _______ _______ _______ _____ _____    ______ ____
ROOT
ATOM      1  C   UNL A   1      44.763 -19.556 -34.407  0.00  0.00    +0.246 C 
ATOM      2  O   UNL A   1      45.245 -20.495 -33.771  0.00  0.00    -0.273 OA
ATOM      3  N   UNL A   1      43.663 -19.704 -35.235  0.00  0.00    -0.235 N 
ATOM      4  H   UNL A   1      43.220 -18.927 -35.646  0.00  0.00    +0.000 HD
ENDROOT
BRANCH   3   5
ATOM      5  N   UNL A   1      43.205 -21.025 -35.463  0.00  0.00    -0.263 N 
ATOM      6  H   UNL A   1      43.773 -21.828 -35.434  0.00  0.00    +0.000 HD
BRANCH   5   7
ATOM      7  C   UNL A   1      41.799 -21.027 -35.741  0.00  0.00    +0.058 A 
ATOM      8  C   UNL A   1      40.844 -20.748 -34.740  0.00  0.00    -0.003 A 
ATOM      9  C   UNL A   1      39.502 -20.708 -35.126  0.00  0.00    +0.047 A 
ATOM     10  N   UNL A   1      39.086 -20.959 -36.390  0.00  0.00    -0.251 NA
ATOM     11  C   UNL A   1      39.993 -21.241 -37.334  0.00  0.00    +0.073 A 
ATOM     12  C   UNL A   1      39.542 -21.504 -38.621  0.00  0.00    -0.036 A 
ATOM     13  C   UNL A   1      40.421 -21.810 -39.664  0.00  0.00    -0.060 A 
ATOM     14  C   UNL A   1      41.785 -21.852 -39.420  0.00  0.00    -0.061 A 
ATOM     15  C   UNL A   1      42.259 -21.589 -38.135  0.00  0.00    -0.051 A 
ATOM     16  C   UNL A   1      41.374 -21.282 -37.073  0.00  0.00    +0.023 A 
ATOM     17  C   UNL A   1      38.396 -20.439 -34.138  0.00  0.00    -0.010 C 
ATOM     18  C   UNL A   1      38.876 -19.757 -32.863  0.00  0.00    -0.047 C 
ATOM     19  C   UNL A   1      40.089 -20.493 -32.316  0.00  0.00    -0.049 C 
ATOM     20  C   UNL A   1      41.242 -20.436 -33.316  0.00  0.00    -0.024 C 
ENDBRANCH   5   7
ENDBRANCH   3   5
BRANCH   1  21
ATOM     21  C   UNL A   1      45.349 -18.145 -34.342  0.00  0.00    +0.090 C 
BRANCH  21  24
ATOM     22  C   UNL A   1      47.717 -18.046 -35.280  0.00  0.00    +0.214 C 
ATOM     23  O   UNL A   1      48.908 -17.967 -34.984  0.00  0.00    -0.276 OA
ATOM     24  N   UNL A   1      46.804 -18.120 -34.275  0.00  0.00    -0.307 N 
ATOM     25  H   UNL A   1      47.183 -18.164 -33.367  0.00  0.00    +0.000 HD
BRANCH  22  26
ATOM     26  C   UNL A   1      47.265 -18.092 -36.720  0.00  0.00    +0.028 C 
BRANCH  26  27
ATOM     27  C   UNL A   1      47.255 -19.532 -37.232  0.00  0.00    -0.019 C 
BRANCH  27  30
ATOM     28  C   UNL A   1      45.923 -21.322 -40.317  0.00  0.00    +0.165 A 
ATOM     29  C   UNL A   1      46.682 -20.975 -39.195  0.00  0.00    -0.013 A 
ATOM     30  C   UNL A   1      46.374 -19.834 -38.428  0.00  0.00    -0.040 A 
ATOM     31  C   UNL A   1      45.277 -19.043 -38.804  0.00  0.00    -0.013 A 
ATOM     32  C   UNL A   1      44.506 -19.366 -39.926  0.00  0.00    +0.165 A 
ATOM     33  C   UNL A   1      44.848 -20.498 -40.683  0.00  0.00    +0.204 A 
BRANCH  28  35
ATOM     34  C   UNL A   1      47.375 -23.114 -40.932  0.00  0.00    +0.079 C 
ATOM     35  O   UNL A   1      46.156 -22.410 -41.118  0.00  0.00    -0.491 OA
ENDBRANCH  28  35
BRANCH  32  36
ATOM     36  O   UNL A   1      43.422 -18.650 -40.367  0.00  0.00    -0.491 OA
ATOM     37  C   UNL A   1      42.676 -17.919 -39.404  0.00  0.00    +0.079 C 
ENDBRANCH  32  36
BRANCH  33  38
ATOM     38  O   UNL A   1      44.069 -20.850 -41.765  0.00  0.00    -0.488 OA
ATOM     39  C   UNL A   1      44.511 -20.148 -42.925  0.00  0.00    +0.079 C 
ENDBRANCH  33  38
ENDBRANCH  27  30
ENDBRANCH  26  27
ENDBRANCH  22  26
ENDBRANCH  21  24
ENDBRANCH   1  21
TORSDOF 10
ENDMDL
MODEL 13
REMARK VINA RESULT:    -8.128      8.345     10.814
REMARK INTER + INTRA:         -13.245
REMARK INTER:                  -9.791
REMARK INTRA:                  -3.454
REMARK UNBOUND:                -0.365
REMARK  Name = cpd104.pdb
REMARK  13 active torsions:
REMARK  status: ('A' for Active; 'I' for Inactive)
REMARK    1  A    between atoms: C_1  and  O_2
REMARK    2  A    between atoms: O_2  and  C_3
REMARK    3  A    between atoms: C_5  and  C_6
REMARK    4  A    between atoms: C_6  and  C_7
REMARK    5  A    between atoms: C_7  and  C_8
REMARK    6  A    between atoms: N_10  and  C_11
REMARK    7  A    between atoms: C_11  and  C_12
REMARK    8  A    between atoms: N_14  and  N_15
REMARK    9  A    between atoms: N_15  and  C_16
REMARK   10  A    between atoms: C_31  and  O_32
REMARK   11  A    between atoms: O_32  and  C_33
REMARK   12  A    between atoms: C_34  and  O_35
REMARK   13  A    between atoms: O_35  and  C_36
REMARK                            x       y       z     vdW  Elec       q    Type
REMARK                         _______ _______ _______ _____ _____    ______ ____
ROOT
ATOM      1  C   UNL A   1      33.854 -41.017 -25.799  0.00  0.00    +0.246 C 
ATOM      2  O   UNL A   1      34.349 -42.089 -25.449  0.00  0.00    -0.273 OA
ATOM      3  N   UNL A   1      34.143 -40.424 -27.016  0.00  0.00    -0.235 N 
ATOM      4  H   UNL A   1      33.655 -39.629 -27.330  0.00  0.00    +0.000 HD
ENDROOT
BRANCH   3   5
ATOM      5  N   UNL A   1      35.173 -41.014 -27.788  0.00  0.00    -0.263 N 
ATOM      6  H   UNL A   1      35.729 -41.773 -27.496  0.00  0.00    +0.000 HD
BRANCH   5   7
ATOM      7  C   UNL A   1      35.294 -40.353 -29.053  0.00  0.00    +0.058 A 
ATOM      8  C   UNL A   1      34.505 -40.724 -30.163  0.00  0.00    -0.003 A 
ATOM      9  C   UNL A   1      34.648 -39.974 -31.333  0.00  0.00    +0.047 A 
ATOM     10  N   UNL A   1      35.526 -38.949 -31.454  0.00  0.00    -0.251 NA
ATOM     11  C   UNL A   1      36.286 -38.610 -30.405  0.00  0.00    +0.073 A 
ATOM     12  C   UNL A   1      37.185 -37.562 -30.555  0.00  0.00    -0.036 A 
ATOM     13  C   UNL A   1      38.017 -37.147 -29.513  0.00  0.00    -0.060 A 
ATOM     14  C   UNL A   1      37.951 -37.791 -28.286  0.00  0.00    -0.061 A 
ATOM     15  C   UNL A   1      37.054 -38.844 -28.113  0.00  0.00    -0.051 A 
ATOM     16  C   UNL A   1      36.210 -39.273 -29.166  0.00  0.00    +0.023 A 
ATOM     17  C   UNL A   1      33.872 -40.293 -32.585  0.00  0.00    -0.010 C 
ATOM     18  C   UNL A   1      32.626 -41.130 -32.327  0.00  0.00    -0.047 C 
ATOM     19  C   UNL A   1      32.982 -42.318 -31.448  0.00  0.00    -0.049 C 
ATOM     20  C   UNL A   1      33.491 -41.841 -30.089  0.00  0.00    -0.024 C 
ENDBRANCH   5   7
ENDBRANCH   3   5
BRANCH   1  21
ATOM     21  C   UNL A   1      32.880 -40.243 -24.908  0.00  0.00    +0.090 C 
BRANCH  21  24
ATOM     22  C   UNL A   1      33.609 -37.849 -24.423  0.00  0.00    +0.214 C 
ATOM     23  O   UNL A   1      34.132 -37.112 -23.589  0.00  0.00    -0.276 OA
ATOM     24  N   UNL A   1      33.512 -39.176 -24.143  0.00  0.00    -0.307 N 
ATOM     25  H   UNL A   1      33.932 -39.458 -23.298  0.00  0.00    +0.000 HD
BRANCH  22  26
ATOM     26  C   UNL A   1      33.109 -37.314 -25.744  0.00  0.00    +0.028 C 
BRANCH  26  27
ATOM     27  C   UNL A   1      34.281 -37.008 -26.675  0.00  0.00    -0.019 C 
BRANCH  27  30
ATOM     28  C   UNL A   1      32.637 -37.118 -30.106  0.00  0.00    +0.165 A 
ATOM     29  C   UNL A   1      32.998 -37.404 -28.787  0.00  0.00    -0.013 A 
ATOM     30  C   UNL A   1      33.947 -36.620 -28.101  0.00  0.00    -0.040 A 
ATOM     31  C   UNL A   1      34.530 -35.529 -28.767  0.00  0.00    -0.013 A 
ATOM     32  C   UNL A   1      34.190 -35.226 -30.090  0.00  0.00    +0.165 A 
ATOM     33  C   UNL A   1      33.254 -36.036 -30.754  0.00  0.00    +0.204 A 
BRANCH  28  35
ATOM     34  C   UNL A   1      30.890 -38.744 -30.152  0.00  0.00    +0.079 C 
ATOM     35  O   UNL A   1      31.727 -37.829 -30.845  0.00  0.00    -0.491 OA
ENDBRANCH  28  35
BRANCH  32  36
ATOM     36  O   UNL A   1      34.709 -34.185 -30.815  0.00  0.00    -0.491 OA
ATOM     37  C   UNL A   1      34.724 -32.900 -30.210  0.00  0.00    +0.079 C 
ENDBRANCH  32  36
BRANCH  33  38
ATOM     38  O   UNL A   1      32.879 -35.721 -32.042  0.00  0.00    -0.488 OA
ATOM     39  C   UNL A   1      33.642 -36.492 -32.968  0.00  0.00    +0.079 C 
ENDBRANCH  33  38
ENDBRANCH  27  30
ENDBRANCH  26  27
ENDBRANCH  22  26
ENDBRANCH  21  24
ENDBRANCH   1  21
TORSDOF 10
ENDMDL
MODEL 14
REMARK VINA RESULT:    -8.071      8.418     11.570
REMARK INTER + INTRA:         -13.154
REMARK INTER:                  -9.934
REMARK INTRA:                  -3.219
REMARK UNBOUND:                -0.365
REMARK  Name = cpd104.pdb
REMARK  13 active torsions:
REMARK  status: ('A' for Active; 'I' for Inactive)
REMARK    1  A    between atoms: C_1  and  O_2
REMARK    2  A    between atoms: O_2  and  C_3
REMARK    3  A    between atoms: C_5  and  C_6
REMARK    4  A    between atoms: C_6  and  C_7
REMARK    5  A    between atoms: C_7  and  C_8
REMARK    6  A    between atoms: N_10  and  C_11
REMARK    7  A    between atoms: C_11  and  C_12
REMARK    8  A    between atoms: N_14  and  N_15
REMARK    9  A    between atoms: N_15  and  C_16
REMARK   10  A    between atoms: C_31  and  O_32
REMARK   11  A    between atoms: O_32  and  C_33
REMARK   12  A    between atoms: C_34  and  O_35
REMARK   13  A    between atoms: O_35  and  C_36
REMARK                            x       y       z     vdW  Elec       q    Type
REMARK                         _______ _______ _______ _____ _____    ______ ____
ROOT
ATOM      1  C   UNL A   1      34.513 -32.383 -30.994  0.00  0.00    +0.246 C 
ATOM      2  O   UNL A   1      34.990 -31.807 -31.973  0.00  0.00    -0.273 OA
ATOM      3  N   UNL A   1      34.883 -33.666 -30.631  0.00  0.00    -0.235 N 
ATOM      4  H   UNL A   1      34.581 -34.069 -29.785  0.00  0.00    +0.000 HD
ENDROOT
BRANCH   3   5
ATOM      5  N   UNL A   1      35.716 -34.374 -31.532  0.00  0.00    -0.263 N 
ATOM      6  H   UNL A   1      36.406 -33.960 -32.101  0.00  0.00    +0.000 HD
BRANCH   5   7
ATOM      7  C   UNL A   1      35.415 -35.774 -31.501  0.00  0.00    +0.058 A 
ATOM      8  C   UNL A   1      36.148 -36.673 -30.697  0.00  0.00    -0.003 A 
ATOM      9  C   UNL A   1      35.734 -38.007 -30.683  0.00  0.00    +0.047 A 
ATOM     10  N   UNL A   1      34.701 -38.471 -31.427  0.00  0.00    -0.251 NA
ATOM     11  C   UNL A   1      34.018 -37.619 -32.202  0.00  0.00    +0.073 A 
ATOM     12  C   UNL A   1      32.968 -38.118 -32.962  0.00  0.00    -0.036 A 
ATOM     13  C   UNL A   1      32.207 -37.300 -33.800  0.00  0.00    -0.060 A 
ATOM     14  C   UNL A   1      32.496 -35.946 -33.881  0.00  0.00    -0.061 A 
ATOM     15  C   UNL A   1      33.545 -35.423 -33.125  0.00  0.00    -0.051 A 
ATOM     16  C   UNL A   1      34.323 -36.248 -32.277  0.00  0.00    +0.023 A 
ATOM     17  C   UNL A   1      36.454 -39.058 -29.877  0.00  0.00    -0.010 C 
ATOM     18  C   UNL A   1      37.307 -38.479 -28.755  0.00  0.00    -0.047 C 
ATOM     19  C   UNL A   1      38.171 -37.353 -29.298  0.00  0.00    -0.049 C 
ATOM     20  C   UNL A   1      37.295 -36.218 -29.826  0.00  0.00    -0.024 C 
ENDBRANCH   5   7
ENDBRANCH   3   5
BRANCH   1  21
ATOM     21  C   UNL A   1      33.460 -31.727 -30.100  0.00  0.00    +0.090 C 
BRANCH  21  24
ATOM     22  C   UNL A   1      31.102 -31.150 -30.875  0.00  0.00    +0.214 C 
ATOM     23  O   UNL A   1      30.429 -30.349 -31.522  0.00  0.00    -0.276 OA
ATOM     24  N   UNL A   1      32.451 -30.980 -30.839  0.00  0.00    -0.307 N 
ATOM     25  H   UNL A   1      32.796 -30.245 -31.395  0.00  0.00    +0.000 HD
BRANCH  22  26
ATOM     26  C   UNL A   1      30.464 -32.316 -30.158  0.00  0.00    +0.028 C 
BRANCH  26  27
ATOM     27  C   UNL A   1      30.292 -33.499 -31.111  0.00  0.00    -0.019 C 
BRANCH  27  30
ATOM     28  C   UNL A   1      30.334 -37.274 -30.619  0.00  0.00    +0.165 A 
ATOM     29  C   UNL A   1      29.999 -35.984 -31.040  0.00  0.00    -0.013 A 
ATOM     30  C   UNL A   1      30.731 -34.860 -30.608  0.00  0.00    -0.040 A 
ATOM     31  C   UNL A   1      31.820 -35.054 -29.743  0.00  0.00    -0.013 A 
ATOM     32  C   UNL A   1      32.171 -36.335 -29.302  0.00  0.00    +0.165 A 
ATOM     33  C   UNL A   1      31.412 -37.435 -29.735  0.00  0.00    +0.204 A 
BRANCH  28  35
ATOM     34  C   UNL A   1      28.298 -38.519 -30.656  0.00  0.00    +0.079 C 
ATOM     35  O   UNL A   1      29.675 -38.418 -30.988  0.00  0.00    -0.491 OA
ENDBRANCH  28  35
BRANCH  32  36
ATOM     36  O   UNL A   1      33.214 -36.616 -28.458  0.00  0.00    -0.491 OA
ATOM     37  C   UNL A   1      33.138 -36.127 -27.126  0.00  0.00    +0.079 C 
ENDBRANCH  32  36
BRANCH  33  38
ATOM     38  O   UNL A   1      31.776 -38.705 -29.342  0.00  0.00    -0.488 OA
ATOM     39  C   UNL A   1      31.073 -39.062 -28.154  0.00  0.00    +0.079 C 
ENDBRANCH  33  38
ENDBRANCH  27  30
ENDBRANCH  26  27
ENDBRANCH  22  26
ENDBRANCH  21  24
ENDBRANCH   1  21
TORSDOF 10
ENDMDL
MODEL 15
REMARK VINA RESULT:    -7.965      7.628     10.462
REMARK INTER + INTRA:         -12.987
REMARK INTER:                  -9.846
REMARK INTRA:                  -3.141
REMARK UNBOUND:                -0.365
REMARK  Name = cpd104.pdb
REMARK  13 active torsions:
REMARK  status: ('A' for Active; 'I' for Inactive)
REMARK    1  A    between atoms: C_1  and  O_2
REMARK    2  A    between atoms: O_2  and  C_3
REMARK    3  A    between atoms: C_5  and  C_6
REMARK    4  A    between atoms: C_6  and  C_7
REMARK    5  A    between atoms: C_7  and  C_8
REMARK    6  A    between atoms: N_10  and  C_11
REMARK    7  A    between atoms: C_11  and  C_12
REMARK    8  A    between atoms: N_14  and  N_15
REMARK    9  A    between atoms: N_15  and  C_16
REMARK   10  A    between atoms: C_31  and  O_32
REMARK   11  A    between atoms: O_32  and  C_33
REMARK   12  A    between atoms: C_34  and  O_35
REMARK   13  A    between atoms: O_35  and  C_36
REMARK                            x       y       z     vdW  Elec       q    Type
REMARK                         _______ _______ _______ _____ _____    ______ ____
ROOT
ATOM      1  C   UNL A   1      34.335 -40.737 -27.628  0.00  0.00    +0.246 C 
ATOM      2  O   UNL A   1      35.341 -41.442 -27.540  0.00  0.00    -0.273 OA
ATOM      3  N   UNL A   1      33.940 -40.145 -28.815  0.00  0.00    -0.235 N 
ATOM      4  H   UNL A   1      33.076 -39.681 -28.897  0.00  0.00    +0.000 HD
ENDROOT
BRANCH   3   5
ATOM      5  N   UNL A   1      34.838 -40.238 -29.907  0.00  0.00    -0.263 N 
ATOM      6  H   UNL A   1      35.120 -41.080 -30.332  0.00  0.00    +0.000 HD
BRANCH   5   7
ATOM      7  C   UNL A   1      35.279 -38.935 -30.307  0.00  0.00    +0.058 A 
ATOM      8  C   UNL A   1      36.521 -38.411 -29.889  0.00  0.00    -0.003 A 
ATOM      9  C   UNL A   1      36.891 -37.159 -30.387  0.00  0.00    +0.047 A 
ATOM     10  N   UNL A   1      36.102 -36.425 -31.209  0.00  0.00    -0.251 NA
ATOM     11  C   UNL A   1      34.917 -36.917 -31.590  0.00  0.00    +0.073 A 
ATOM     12  C   UNL A   1      34.121 -36.144 -32.426  0.00  0.00    -0.036 A 
ATOM     13  C   UNL A   1      32.870 -36.580 -32.868  0.00  0.00    -0.060 A 
ATOM     14  C   UNL A   1      32.398 -37.822 -32.469  0.00  0.00    -0.061 A 
ATOM     15  C   UNL A   1      33.181 -38.616 -31.632  0.00  0.00    -0.051 A 
ATOM     16  C   UNL A   1      34.449 -38.178 -31.177  0.00  0.00    +0.023 A 
ATOM     17  C   UNL A   1      38.184 -36.493 -29.992  0.00  0.00    -0.010 C 
ATOM     18  C   UNL A   1      39.219 -37.465 -29.439  0.00  0.00    -0.047 C 
ATOM     19  C   UNL A   1      38.578 -38.346 -28.380  0.00  0.00    -0.049 C 
ATOM     20  C   UNL A   1      37.458 -39.185 -28.993  0.00  0.00    -0.024 C 
ENDBRANCH   5   7
ENDBRANCH   3   5
BRANCH   1  21
ATOM     21  C   UNL A   1      33.437 -40.449 -26.423  0.00  0.00    +0.090 C 
BRANCH  21  24
ATOM     22  C   UNL A   1      33.846 -38.113 -25.489  0.00  0.00    +0.214 C 
ATOM     23  O   UNL A   1      34.356 -37.478 -24.567  0.00  0.00    -0.276 OA
ATOM     24  N   UNL A   1      33.994 -39.464 -25.504  0.00  0.00    -0.307 N 
ATOM     25  H   UNL A   1      34.561 -39.832 -24.788  0.00  0.00    +0.000 HD
BRANCH  22  26
ATOM     26  C   UNL A   1      33.098 -37.418 -26.603  0.00  0.00    +0.028 C 
BRANCH  26  27
ATOM     27  C   UNL A   1      34.076 -36.748 -27.567  0.00  0.00    -0.019 C 
BRANCH  27  30
ATOM     28  C   UNL A   1      31.573 -34.712 -29.587  0.00  0.00    +0.165 A 
ATOM     29  C   UNL A   1      32.157 -35.687 -28.775  0.00  0.00    -0.013 A 
ATOM     30  C   UNL A   1      33.527 -35.644 -28.450  0.00  0.00    -0.040 A 
ATOM     31  C   UNL A   1      34.308 -34.592 -28.953  0.00  0.00    -0.013 A 
ATOM     32  C   UNL A   1      33.748 -33.607 -29.774  0.00  0.00    +0.165 A 
ATOM     33  C   UNL A   1      32.383 -33.685 -30.097  0.00  0.00    +0.204 A 
BRANCH  28  35
ATOM     34  C   UNL A   1      29.834 -35.568 -30.981  0.00  0.00    +0.079 C 
ATOM     35  O   UNL A   1      30.252 -34.681 -29.953  0.00  0.00    -0.491 OA
ENDBRANCH  28  35
BRANCH  32  36
ATOM     36  O   UNL A   1      34.435 -32.548 -30.311  0.00  0.00    -0.491 OA
ATOM     37  C   UNL A   1      35.571 -32.835 -31.114  0.00  0.00    +0.079 C 
ENDBRANCH  32  36
BRANCH  33  38
ATOM     38  O   UNL A   1      31.812 -32.696 -30.868  0.00  0.00    -0.488 OA
ATOM     39  C   UNL A   1      31.354 -31.637 -30.030  0.00  0.00    +0.079 C 
ENDBRANCH  33  38
ENDBRANCH  27  30
ENDBRANCH  26  27
ENDBRANCH  22  26
ENDBRANCH  21  24
ENDBRANCH   1  21
TORSDOF 10
ENDMDL
MODEL 16
REMARK VINA RESULT:    -7.838     19.873     22.625
REMARK INTER + INTRA:         -12.786
REMARK INTER:                  -9.123
REMARK INTRA:                  -3.663
REMARK UNBOUND:                -0.365
REMARK  Name = cpd104.pdb
REMARK  13 active torsions:
REMARK  status: ('A' for Active; 'I' for Inactive)
REMARK    1  A    between atoms: C_1  and  O_2
REMARK    2  A    between atoms: O_2  and  C_3
REMARK    3  A    between atoms: C_5  and  C_6
REMARK    4  A    between atoms: C_6  and  C_7
REMARK    5  A    between atoms: C_7  and  C_8
REMARK    6  A    between atoms: N_10  and  C_11
REMARK    7  A    between atoms: C_11  and  C_12
REMARK    8  A    between atoms: N_14  and  N_15
REMARK    9  A    between atoms: N_15  and  C_16
REMARK   10  A    between atoms: C_31  and  O_32
REMARK   11  A    between atoms: O_32  and  C_33
REMARK   12  A    between atoms: C_34  and  O_35
REMARK   13  A    between atoms: O_35  and  C_36
REMARK                            x       y       z     vdW  Elec       q    Type
REMARK                         _______ _______ _______ _____ _____    ______ ____
ROOT
ATOM      1  C   UNL A   1      46.996 -16.674 -36.847  0.00  0.00    +0.246 C 
ATOM      2  O   UNL A   1      47.197 -15.497 -37.151  0.00  0.00    -0.273 OA
ATOM      3  N   UNL A   1      47.159 -17.714 -37.745  0.00  0.00    -0.235 N 
ATOM      4  H   UNL A   1      47.107 -18.654 -37.460  0.00  0.00    +0.000 HD
ENDROOT
BRANCH   3   5
ATOM      5  N   UNL A   1      47.405 -17.362 -39.096  0.00  0.00    -0.263 N 
ATOM      6  H   UNL A   1      48.189 -16.857 -39.410  0.00  0.00    +0.000 HD
BRANCH   5   7
ATOM      7  C   UNL A   1      46.353 -17.846 -39.939  0.00  0.00    +0.058 A 
ATOM      8  C   UNL A   1      46.200 -19.221 -40.221  0.00  0.00    -0.003 A 
ATOM      9  C   UNL A   1      45.103 -19.599 -40.999  0.00  0.00    +0.047 A 
ATOM     10  N   UNL A   1      44.219 -18.713 -41.516  0.00  0.00    -0.251 NA
ATOM     11  C   UNL A   1      44.376 -17.407 -41.261  0.00  0.00    +0.073 A 
ATOM     12  C   UNL A   1      43.463 -16.516 -41.809  0.00  0.00    -0.036 A 
ATOM     13  C   UNL A   1      43.555 -15.138 -41.596  0.00  0.00    -0.060 A 
ATOM     14  C   UNL A   1      44.584 -14.634 -40.814  0.00  0.00    -0.061 A 
ATOM     15  C   UNL A   1      45.511 -15.511 -40.253  0.00  0.00    -0.051 A 
ATOM     16  C   UNL A   1      45.425 -16.909 -40.468  0.00  0.00    +0.023 A 
ATOM     17  C   UNL A   1      44.853 -21.036 -41.380  0.00  0.00    -0.010 C 
ATOM     18  C   UNL A   1      45.568 -22.034 -40.477  0.00  0.00    -0.047 C 
ATOM     19  C   UNL A   1      47.027 -21.633 -40.327  0.00  0.00    -0.049 C 
ATOM     20  C   UNL A   1      47.136 -20.264 -39.658  0.00  0.00    -0.024 C 
ENDBRANCH   5   7
ENDBRANCH   3   5
BRANCH   1  21
ATOM     21  C   UNL A   1      46.539 -17.084 -35.446  0.00  0.00    +0.090 C 
BRANCH  21  24
ATOM     22  C   UNL A   1      46.644 -19.568 -34.883  0.00  0.00    +0.214 C 
ATOM     23  O   UNL A   1      47.380 -20.478 -34.507  0.00  0.00    -0.276 OA
ATOM     24  N   UNL A   1      47.159 -18.312 -34.966  0.00  0.00    -0.307 N 
ATOM     25  H   UNL A   1      48.089 -18.219 -34.657  0.00  0.00    +0.000 HD
BRANCH  22  26
ATOM     26  C   UNL A   1      45.192 -19.816 -35.216  0.00  0.00    +0.028 C 
BRANCH  26  27
ATOM     27  C   UNL A   1      45.049 -20.290 -36.662  0.00  0.00    -0.019 C 
BRANCH  27  30
ATOM     28  C   UNL A   1      42.593 -17.773 -38.120  0.00  0.00    +0.165 A 
ATOM     29  C   UNL A   1      43.655 -18.355 -37.422  0.00  0.00    -0.013 A 
ATOM     30  C   UNL A   1      43.877 -19.746 -37.455  0.00  0.00    -0.040 A 
ATOM     31  C   UNL A   1      43.011 -20.551 -38.212  0.00  0.00    -0.013 A 
ATOM     32  C   UNL A   1      41.937 -19.993 -38.914  0.00  0.00    +0.165 A 
ATOM     33  C   UNL A   1      41.729 -18.605 -38.849  0.00  0.00    +0.204 A 
BRANCH  28  35
ATOM     34  C   UNL A   1      43.165 -15.565 -37.415  0.00  0.00    +0.079 C 
ATOM     35  O   UNL A   1      42.305 -16.433 -38.140  0.00  0.00    -0.491 OA
ENDBRANCH  28  35
BRANCH  32  36
ATOM     36  O   UNL A   1      41.043 -20.702 -39.675  0.00  0.00    -0.491 OA
ATOM     37  C   UNL A   1      41.371 -22.045 -40.002  0.00  0.00    +0.079 C 
ENDBRANCH  32  36
BRANCH  33  38
ATOM     38  O   UNL A   1      40.701 -18.040 -39.572  0.00  0.00    -0.488 OA
ATOM     39  C   UNL A   1      39.516 -18.006 -38.778  0.00  0.00    +0.079 C 
ENDBRANCH  33  38
ENDBRANCH  27  30
ENDBRANCH  26  27
ENDBRANCH  22  26
ENDBRANCH  21  24
ENDBRANCH   1  21
TORSDOF 10
ENDMDL
MODEL 17
REMARK VINA RESULT:    -7.800     18.743     21.568
REMARK INTER + INTRA:         -12.726
REMARK INTER:                 -11.540
REMARK INTRA:                  -1.186
REMARK UNBOUND:                -0.365
REMARK  Name = cpd104.pdb
REMARK  13 active torsions:
REMARK  status: ('A' for Active; 'I' for Inactive)
REMARK    1  A    between atoms: C_1  and  O_2
REMARK    2  A    between atoms: O_2  and  C_3
REMARK    3  A    between atoms: C_5  and  C_6
REMARK    4  A    between atoms: C_6  and  C_7
REMARK    5  A    between atoms: C_7  and  C_8
REMARK    6  A    between atoms: N_10  and  C_11
REMARK    7  A    between atoms: C_11  and  C_12
REMARK    8  A    between atoms: N_14  and  N_15
REMARK    9  A    between atoms: N_15  and  C_16
REMARK   10  A    between atoms: C_31  and  O_32
REMARK   11  A    between atoms: O_32  and  C_33
REMARK   12  A    between atoms: C_34  and  O_35
REMARK   13  A    between atoms: O_35  and  C_36
REMARK                            x       y       z     vdW  Elec       q    Type
REMARK                         _______ _______ _______ _____ _____    ______ ____
ROOT
ATOM      1  C   UNL A   1      44.152 -18.813 -33.716  0.00  0.00    +0.246 C 
ATOM      2  O   UNL A   1      43.671 -18.866 -32.583  0.00  0.00    -0.273 OA
ATOM      3  N   UNL A   1      43.806 -19.705 -34.715  0.00  0.00    -0.235 N 
ATOM      4  H   UNL A   1      44.110 -19.582 -35.643  0.00  0.00    +0.000 HD
ENDROOT
BRANCH   3   5
ATOM      5  N   UNL A   1      42.994 -20.804 -34.341  0.00  0.00    -0.263 N 
ATOM      6  H   UNL A   1      43.215 -21.448 -33.630  0.00  0.00    +0.000 HD
BRANCH   5   7
ATOM      7  C   UNL A   1      41.807 -20.847 -35.142  0.00  0.00    +0.058 A 
ATOM      8  C   UNL A   1      41.865 -20.899 -36.551  0.00  0.00    -0.003 A 
ATOM      9  C   UNL A   1      40.654 -21.006 -37.240  0.00  0.00    +0.047 A 
ATOM     10  N   UNL A   1      39.448 -21.023 -36.623  0.00  0.00    -0.251 NA
ATOM     11  C   UNL A   1      39.396 -20.956 -35.286  0.00  0.00    +0.073 A 
ATOM     12  C   UNL A   1      38.148 -20.966 -34.675  0.00  0.00    -0.036 A 
ATOM     13  C   UNL A   1      38.004 -20.895 -33.288  0.00  0.00    -0.060 A 
ATOM     14  C   UNL A   1      39.132 -20.816 -32.485  0.00  0.00    -0.061 A 
ATOM     15  C   UNL A   1      40.395 -20.807 -33.077  0.00  0.00    -0.051 A 
ATOM     16  C   UNL A   1      40.548 -20.874 -34.484  0.00  0.00    +0.023 A 
ATOM     17  C   UNL A   1      40.593 -21.049 -38.746  0.00  0.00    -0.010 C 
ATOM     18  C   UNL A   1      41.913 -21.452 -39.392  0.00  0.00    -0.047 C 
ATOM     19  C   UNL A   1      43.045 -20.630 -38.798  0.00  0.00    -0.049 C 
ATOM     20  C   UNL A   1      43.176 -20.908 -37.301  0.00  0.00    -0.024 C 
ENDBRANCH   5   7
ENDBRANCH   3   5
BRANCH   1  21
ATOM     21  C   UNL A   1      45.185 -17.756 -34.110  0.00  0.00    +0.090 C 
BRANCH  21  24
ATOM     22  C   UNL A   1      47.247 -18.896 -35.083  0.00  0.00    +0.214 C 
ATOM     23  O   UNL A   1      48.431 -19.162 -34.885  0.00  0.00    -0.276 OA
ATOM     24  N   UNL A   1      46.556 -18.250 -34.106  0.00  0.00    -0.307 N 
ATOM     25  H   UNL A   1      47.056 -18.094 -33.272  0.00  0.00    +0.000 HD
BRANCH  22  26
ATOM     26  C   UNL A   1      46.554 -19.298 -36.364  0.00  0.00    +0.028 C 
BRANCH  26  27
ATOM     27  C   UNL A   1      47.381 -18.870 -37.576  0.00  0.00    -0.019 C 
BRANCH  27  30
ATOM     28  C   UNL A   1      46.700 -20.729 -40.828  0.00  0.00    +0.165 A 
ATOM     29  C   UNL A   1      47.182 -20.379 -39.563  0.00  0.00    -0.013 A 
ATOM     30  C   UNL A   1      46.804 -19.169 -38.945  0.00  0.00    -0.040 A 
ATOM     31  C   UNL A   1      45.922 -18.312 -39.621  0.00  0.00    -0.013 A 
ATOM     32  C   UNL A   1      45.431 -18.637 -40.891  0.00  0.00    +0.165 A 
ATOM     33  C   UNL A   1      45.839 -19.840 -41.490  0.00  0.00    +0.204 A 
BRANCH  28  35
ATOM     34  C   UNL A   1      46.801 -23.114 -40.829  0.00  0.00    +0.079 C 
ATOM     35  O   UNL A   1      47.018 -21.880 -41.499  0.00  0.00    -0.491 OA
ENDBRANCH  28  35
BRANCH  32  36
ATOM     36  O   UNL A   1      44.570 -17.860 -41.623  0.00  0.00    -0.491 OA
ATOM     37  C   UNL A   1      44.353 -16.525 -41.189  0.00  0.00    +0.079 C 
ENDBRANCH  32  36
BRANCH  33  38
ATOM     38  O   UNL A   1      45.327 -20.191 -42.721  0.00  0.00    -0.488 OA
ATOM     39  C   UNL A   1      44.122 -20.935 -42.547  0.00  0.00    +0.079 C 
ENDBRANCH  33  38
ENDBRANCH  27  30
ENDBRANCH  26  27
ENDBRANCH  22  26
ENDBRANCH  21  24
ENDBRANCH   1  21
TORSDOF 10
ENDMDL
MODEL 18
REMARK VINA RESULT:    -7.726     16.537     19.517
REMARK INTER + INTRA:         -12.607
REMARK INTER:                 -10.734
REMARK INTRA:                  -1.873
REMARK UNBOUND:                -0.365
REMARK  Name = cpd104.pdb
REMARK  13 active torsions:
REMARK  status: ('A' for Active; 'I' for Inactive)
REMARK    1  A    between atoms: C_1  and  O_2
REMARK    2  A    between atoms: O_2  and  C_3
REMARK    3  A    between atoms: C_5  and  C_6
REMARK    4  A    between atoms: C_6  and  C_7
REMARK    5  A    between atoms: C_7  and  C_8
REMARK    6  A    between atoms: N_10  and  C_11
REMARK    7  A    between atoms: C_11  and  C_12
REMARK    8  A    between atoms: N_14  and  N_15
REMARK    9  A    between atoms: N_15  and  C_16
REMARK   10  A    between atoms: C_31  and  O_32
REMARK   11  A    between atoms: O_32  and  C_33
REMARK   12  A    between atoms: C_34  and  O_35
REMARK   13  A    between atoms: O_35  and  C_36
REMARK                            x       y       z     vdW  Elec       q    Type
REMARK                         _______ _______ _______ _____ _____    ______ ____
ROOT
ATOM      1  C   UNL A   1      40.349 -19.626 -36.561  0.00  0.00    +0.246 C 
ATOM      2  O   UNL A   1      39.793 -20.654 -36.173  0.00  0.00    -0.273 OA
ATOM      3  N   UNL A   1      41.411 -19.641 -37.448  0.00  0.00    -0.235 N 
ATOM      4  H   UNL A   1      41.770 -18.811 -37.836  0.00  0.00    +0.000 HD
ENDROOT
BRANCH   3   5
ATOM      5  N   UNL A   1      41.960 -20.907 -37.769  0.00  0.00    -0.263 N 
ATOM      6  H   UNL A   1      41.458 -21.754 -37.764  0.00  0.00    +0.000 HD
BRANCH   5   7
ATOM      7  C   UNL A   1      43.348 -20.783 -38.102  0.00  0.00    +0.058 A 
ATOM      8  C   UNL A   1      44.317 -20.451 -37.130  0.00  0.00    -0.003 A 
ATOM      9  C   UNL A   1      45.653 -20.420 -37.540  0.00  0.00    +0.047 A 
ATOM     10  N   UNL A   1      46.043 -20.654 -38.816  0.00  0.00    -0.251 NA
ATOM     11  C   UNL A   1      45.120 -20.951 -39.739  0.00  0.00    +0.073 A 
ATOM     12  C   UNL A   1      45.542 -21.178 -41.043  0.00  0.00    -0.036 A 
ATOM     13  C   UNL A   1      44.645 -21.490 -42.067  0.00  0.00    -0.060 A 
ATOM     14  C   UNL A   1      43.290 -21.582 -41.786  0.00  0.00    -0.061 A 
ATOM     15  C   UNL A   1      42.844 -21.360 -40.483  0.00  0.00    -0.051 A 
ATOM     16  C   UNL A   1      43.748 -21.040 -39.441  0.00  0.00    +0.023 A 
ATOM     17  C   UNL A   1      46.769 -20.059 -36.593  0.00  0.00    -0.010 C 
ATOM     18  C   UNL A   1      46.392 -20.216 -35.126  0.00  0.00    -0.047 C 
ATOM     19  C   UNL A   1      45.057 -19.537 -34.866  0.00  0.00    -0.049 C 
ATOM     20  C   UNL A   1      43.953 -20.202 -35.686  0.00  0.00    -0.024 C 
ENDBRANCH   5   7
ENDBRANCH   3   5
BRANCH   1  21
ATOM     21  C   UNL A   1      39.913 -18.239 -36.086  0.00  0.00    +0.090 C 
BRANCH  21  24
ATOM     22  C   UNL A   1      41.596 -16.967 -34.656  0.00  0.00    +0.214 C 
ATOM     23  O   UNL A   1      42.582 -16.233 -34.685  0.00  0.00    -0.276 OA
ATOM     24  N   UNL A   1      41.025 -17.332 -35.835  0.00  0.00    -0.307 N 
ATOM     25  H   UNL A   1      41.422 -16.922 -36.637  0.00  0.00    +0.000 HD
BRANCH  22  26
ATOM     26  C   UNL A   1      41.002 -17.435 -33.348  0.00  0.00    +0.028 C 
BRANCH  26  27
ATOM     27  C   UNL A   1      41.684 -18.721 -32.881  0.00  0.00    -0.019 C 
BRANCH  27  30
ATOM     28  C   UNL A   1      38.591 -20.932 -32.684  0.00  0.00    +0.165 A 
ATOM     29  C   UNL A   1      39.443 -19.825 -32.726  0.00  0.00    -0.013 A 
ATOM     30  C   UNL A   1      40.838 -19.978 -32.850  0.00  0.00    -0.040 A 
ATOM     31  C   UNL A   1      41.370 -21.275 -32.938  0.00  0.00    -0.013 A 
ATOM     32  C   UNL A   1      40.539 -22.400 -32.892  0.00  0.00    +0.165 A 
ATOM     33  C   UNL A   1      39.154 -22.217 -32.750  0.00  0.00    +0.204 A 
BRANCH  28  35
ATOM     34  C   UNL A   1      36.605 -19.611 -32.761  0.00  0.00    +0.079 C 
ATOM     35  O   UNL A   1      37.228 -20.872 -32.563  0.00  0.00    -0.491 OA
ENDBRANCH  28  35
BRANCH  32  36
ATOM     36  O   UNL A   1      40.971 -23.699 -32.969  0.00  0.00    -0.491 OA
ATOM     37  C   UNL A   1      41.594 -24.258 -31.821  0.00  0.00    +0.079 C 
ENDBRANCH  32  36
BRANCH  33  38
ATOM     38  O   UNL A   1      38.322 -23.316 -32.747  0.00  0.00    -0.488 OA
ATOM     39  C   UNL A   1      38.080 -23.739 -34.088  0.00  0.00    +0.079 C 
ENDBRANCH  33  38
ENDBRANCH  27  30
ENDBRANCH  26  27
ENDBRANCH  22  26
ENDBRANCH  21  24
ENDBRANCH   1  21
TORSDOF 10
ENDMDL
MODEL 19
REMARK VINA RESULT:    -7.407     18.231     21.012
REMARK INTER + INTRA:         -12.102
REMARK INTER:                  -9.634
REMARK INTRA:                  -2.468
REMARK UNBOUND:                -0.365
REMARK  Name = cpd104.pdb
REMARK  13 active torsions:
REMARK  status: ('A' for Active; 'I' for Inactive)
REMARK    1  A    between atoms: C_1  and  O_2
REMARK    2  A    between atoms: O_2  and  C_3
REMARK    3  A    between atoms: C_5  and  C_6
REMARK    4  A    between atoms: C_6  and  C_7
REMARK    5  A    between atoms: C_7  and  C_8
REMARK    6  A    between atoms: N_10  and  C_11
REMARK    7  A    between atoms: C_11  and  C_12
REMARK    8  A    between atoms: N_14  and  N_15
REMARK    9  A    between atoms: N_15  and  C_16
REMARK   10  A    between atoms: C_31  and  O_32
REMARK   11  A    between atoms: O_32  and  C_33
REMARK   12  A    between atoms: C_34  and  O_35
REMARK   13  A    between atoms: O_35  and  C_36
REMARK                            x       y       z     vdW  Elec       q    Type
REMARK                         _______ _______ _______ _____ _____    ______ ____
ROOT
ATOM      1  C   UNL A   1      46.419 -16.968 -37.864  0.00  0.00    +0.246 C 
ATOM      2  O   UNL A   1      47.224 -16.605 -38.723  0.00  0.00    -0.273 OA
ATOM      3  N   UNL A   1      45.204 -17.550 -38.179  0.00  0.00    -0.235 N 
ATOM      4  H   UNL A   1      44.623 -17.938 -37.485  0.00  0.00    +0.000 HD
ENDROOT
BRANCH   3   5
ATOM      5  N   UNL A   1      44.834 -17.563 -39.547  0.00  0.00    -0.263 N 
ATOM      6  H   UNL A   1      44.759 -16.762 -40.115  0.00  0.00    +0.000 HD
BRANCH   5   7
ATOM      7  C   UNL A   1      44.585 -18.903 -39.987  0.00  0.00    +0.058 A 
ATOM      8  C   UNL A   1      45.564 -19.651 -40.677  0.00  0.00    -0.003 A 
ATOM      9  C   UNL A   1      45.249 -20.972 -41.005  0.00  0.00    +0.047 A 
ATOM     10  N   UNL A   1      44.052 -21.541 -40.726  0.00  0.00    -0.251 NA
ATOM     11  C   UNL A   1      43.119 -20.823 -40.087  0.00  0.00    +0.073 A 
ATOM     12  C   UNL A   1      41.896 -21.424 -39.819  0.00  0.00    -0.036 A 
ATOM     13  C   UNL A   1      40.868 -20.746 -39.160  0.00  0.00    -0.060 A 
ATOM     14  C   UNL A   1      41.063 -19.435 -38.752  0.00  0.00    -0.061 A 
ATOM     15  C   UNL A   1      42.285 -18.813 -39.009  0.00  0.00    -0.051 A 
ATOM     16  C   UNL A   1      43.330 -19.493 -39.680  0.00  0.00    +0.023 A 
ATOM     17  C   UNL A   1      46.209 -21.857 -41.759  0.00  0.00    -0.010 C 
ATOM     18  C   UNL A   1      47.653 -21.378 -41.691  0.00  0.00    -0.047 C 
ATOM     19  C   UNL A   1      47.717 -19.896 -42.025  0.00  0.00    -0.049 C 
ATOM     20  C   UNL A   1      46.927 -19.086 -40.999  0.00  0.00    -0.024 C 
ENDBRANCH   5   7
ENDBRANCH   3   5
BRANCH   1  21
ATOM     21  C   UNL A   1      46.694 -16.795 -36.369  0.00  0.00    +0.090 C 
BRANCH  21  24
ATOM     22  C   UNL A   1      46.647 -18.966 -35.035  0.00  0.00    +0.214 C 
ATOM     23  O   UNL A   1      47.322 -19.919 -34.650  0.00  0.00    -0.276 OA
ATOM     24  N   UNL A   1      47.263 -17.979 -35.740  0.00  0.00    -0.307 N 
ATOM     25  H   UNL A   1      48.237 -18.081 -35.839  0.00  0.00    +0.000 HD
BRANCH  22  26
ATOM     26  C   UNL A   1      45.175 -18.864 -34.714  0.00  0.00    +0.028 C 
BRANCH  26  27
ATOM     27  C   UNL A   1      44.372 -19.846 -35.567  0.00  0.00    -0.019 C 
BRANCH  27  30
ATOM     28  C   UNL A   1      40.786 -21.106 -35.361  0.00  0.00    +0.165 A 
ATOM     29  C   UNL A   1      42.177 -21.045 -35.482  0.00  0.00    -0.013 A 
ATOM     30  C   UNL A   1      42.864 -19.816 -35.419  0.00  0.00    -0.040 A 
ATOM     31  C   UNL A   1      42.126 -18.638 -35.224  0.00  0.00    -0.013 A 
ATOM     32  C   UNL A   1      40.732 -18.672 -35.106  0.00  0.00    +0.165 A 
ATOM     33  C   UNL A   1      40.072 -19.909 -35.191  0.00  0.00    +0.204 A 
BRANCH  28  35
ATOM     34  C   UNL A   1      40.073 -23.112 -34.281  0.00  0.00    +0.079 C 
ATOM     35  O   UNL A   1      40.041 -22.255 -35.414  0.00  0.00    -0.491 OA
ENDBRANCH  28  35
BRANCH  32  36
ATOM     36  O   UNL A   1      39.933 -17.574 -34.916  0.00  0.00    -0.491 OA
ATOM     37  C   UNL A   1      39.639 -16.766 -36.047  0.00  0.00    +0.079 C 
ENDBRANCH  32  36
BRANCH  33  38
ATOM     38  O   UNL A   1      38.703 -19.959 -35.032  0.00  0.00    -0.488 OA
ATOM     39  C   UNL A   1      38.380 -19.947 -33.643  0.00  0.00    +0.079 C 
ENDBRANCH  33  38
ENDBRANCH  27  30
ENDBRANCH  26  27
ENDBRANCH  22  26
ENDBRANCH  21  24
ENDBRANCH   1  21
TORSDOF 10
ENDMDL
MODEL 20
REMARK VINA RESULT:    -7.158     18.056     21.028
REMARK INTER + INTRA:         -11.708
REMARK INTER:                  -8.820
REMARK INTRA:                  -2.888
REMARK UNBOUND:                -0.365
REMARK  Name = cpd104.pdb
REMARK  13 active torsions:
REMARK  status: ('A' for Active; 'I' for Inactive)
REMARK    1  A    between atoms: C_1  and  O_2
REMARK    2  A    between atoms: O_2  and  C_3
REMARK    3  A    between atoms: C_5  and  C_6
REMARK    4  A    between atoms: C_6  and  C_7
REMARK    5  A    between atoms: C_7  and  C_8
REMARK    6  A    between atoms: N_10  and  C_11
REMARK    7  A    between atoms: C_11  and  C_12
REMARK    8  A    between atoms: N_14  and  N_15
REMARK    9  A    between atoms: N_15  and  C_16
REMARK   10  A    between atoms: C_31  and  O_32
REMARK   11  A    between atoms: O_32  and  C_33
REMARK   12  A    between atoms: C_34  and  O_35
REMARK   13  A    between atoms: O_35  and  C_36
REMARK                            x       y       z     vdW  Elec       q    Type
REMARK                         _______ _______ _______ _____ _____    ______ ____
ROOT
ATOM      1  C   UNL A   1      44.424 -16.699 -37.212  0.00  0.00    +0.246 C 
ATOM      2  O   UNL A   1      43.341 -16.125 -37.341  0.00  0.00    -0.273 OA
ATOM      3  N   UNL A   1      45.047 -17.359 -38.255  0.00  0.00    -0.235 N 
ATOM      4  H   UNL A   1      45.962 -17.713 -38.168  0.00  0.00    +0.000 HD
ENDROOT
BRANCH   3   5
ATOM      5  N   UNL A   1      44.309 -17.503 -39.456  0.00  0.00    -0.263 N 
ATOM      6  H   UNL A   1      43.969 -16.756 -39.998  0.00  0.00    +0.000 HD
BRANCH   5   7
ATOM      7  C   UNL A   1      44.126 -18.889 -39.769  0.00  0.00    +0.058 A 
ATOM      8  C   UNL A   1      45.148 -19.655 -40.371  0.00  0.00    -0.003 A 
ATOM      9  C   UNL A   1      44.897 -21.014 -40.575  0.00  0.00    +0.047 A 
ATOM     10  N   UNL A   1      43.720 -21.607 -40.260  0.00  0.00    -0.251 NA
ATOM     11  C   UNL A   1      42.746 -20.874 -39.706  0.00  0.00    +0.073 A 
ATOM     12  C   UNL A   1      41.545 -21.501 -39.399  0.00  0.00    -0.036 A 
ATOM     13  C   UNL A   1      40.477 -20.810 -38.823  0.00  0.00    -0.060 A 
ATOM     14  C   UNL A   1      40.608 -19.458 -38.540  0.00  0.00    -0.061 A 
ATOM     15  C   UNL A   1      41.806 -18.810 -38.837  0.00  0.00    -0.051 A 
ATOM     16  C   UNL A   1      42.891 -19.503 -39.425  0.00  0.00    +0.023 A 
ATOM     17  C   UNL A   1      45.908 -21.923 -41.227  0.00  0.00    -0.010 C 
ATOM     18  C   UNL A   1      47.329 -21.375 -41.185  0.00  0.00    -0.047 C 
ATOM     19  C   UNL A   1      47.334 -19.931 -41.658  0.00  0.00    -0.049 C 
ATOM     20  C   UNL A   1      46.492 -19.062 -40.725  0.00  0.00    -0.024 C 
ENDBRANCH   5   7
ENDBRANCH   3   5
BRANCH   1  21
ATOM     21  C   UNL A   1      45.168 -16.735 -35.876  0.00  0.00    +0.090 C 
BRANCH  21  24
ATOM     22  C   UNL A   1      46.306 -18.957 -35.359  0.00  0.00    +0.214 C 
ATOM     23  O   UNL A   1      47.336 -19.612 -35.506  0.00  0.00    -0.276 OA
ATOM     24  N   UNL A   1      46.270 -17.688 -35.848  0.00  0.00    -0.307 N 
ATOM     25  H   UNL A   1      47.113 -17.367 -36.241  0.00  0.00    +0.000 HD
BRANCH  22  26
ATOM     26  C   UNL A   1      45.112 -19.521 -34.626  0.00  0.00    +0.028 C 
BRANCH  26  27
ATOM     27  C   UNL A   1      44.172 -20.230 -35.601  0.00  0.00    -0.019 C 
BRANCH  27  30
ATOM     28  C   UNL A   1      40.804 -18.627 -34.841  0.00  0.00    +0.165 A 
ATOM     29  C   UNL A   1      42.163 -18.823 -35.099  0.00  0.00    -0.013 A 
ATOM     30  C   UNL A   1      42.684 -20.111 -35.336  0.00  0.00    -0.040 A 
ATOM     31  C   UNL A   1      41.809 -21.209 -35.316  0.00  0.00    -0.013 A 
ATOM     32  C   UNL A   1      40.445 -21.038 -35.053  0.00  0.00    +0.165 A 
ATOM     33  C   UNL A   1      39.957 -19.746 -34.802  0.00  0.00    +0.204 A 
BRANCH  28  35
ATOM     34  C   UNL A   1      40.220 -16.458 -35.649  0.00  0.00    +0.079 C 
ATOM     35  O   UNL A   1      40.217 -17.413 -34.597  0.00  0.00    -0.491 OA
ENDBRANCH  28  35
BRANCH  32  36
ATOM     36  O   UNL A   1      39.521 -22.051 -35.012  0.00  0.00    -0.491 OA
ATOM     37  C   UNL A   1      39.619 -22.993 -33.952  0.00  0.00    +0.079 C 
ENDBRANCH  32  36
BRANCH  33  38
ATOM     38  O   UNL A   1      38.608 -19.561 -34.586  0.00  0.00    -0.488 OA
ATOM     39  C   UNL A   1      38.337 -19.591 -33.186  0.00  0.00    +0.079 C 
ENDBRANCH  33  38
ENDBRANCH  27  30
ENDBRANCH  26  27
ENDBRANCH  22  26
ENDBRANCH  21  24
ENDBRANCH   1  21
TORSDOF 10
ENDMDL
