MODEL 1
REMARK VINA RESULT:    -7.759      0.000      0.000
REMARK INTER + INTRA:         -17.196
REMARK INTER:                 -13.203
REMARK INTRA:                  -3.993
REMARK UNBOUND:                -3.993
REMARK  Name = cpd175.pdb
REMARK  14 active torsions:
REMARK  status: ('A' for Active; 'I' for Inactive)
REMARK    1  A    between atoms: C_1  and  C_2
REMARK    2  A    between atoms: C_6  and  N_7
REMARK    3  A    between atoms: N_7  and  C_8
REMARK    4  A    between atoms: C_13  and  C_14
REMARK    5  A    between atoms: N_16  and  C_17
REMARK    6  A    between atoms: C_17  and  C_18
REMARK    7  A    between atoms: C_18  and  C_19
REMARK    8  A    between atoms: C_19  and  C_20
REMARK    9  A    between atoms: C_20  and  C_21
REMARK   10  A    between atoms: C_21  and  C_22
REMARK   11  A    between atoms: C_22  and  C_23
REMARK   12  A    between atoms: C_23  and  N_24
REMARK   13  A    between atoms: N_24  and  C_25
REMARK   14  A    between atoms: C_40  and  C_41
REMARK                            x       y       z     vdW  Elec       q    Type
REMARK                         _______ _______ _______ _____ _____    ______ ____
ROOT
ATOM      1  C   UNL A   1      33.099 -38.732 -27.688  0.00  0.00    -0.037 C 
ENDROOT
BRANCH   1   2
ATOM      2  C   UNL A   1      34.592 -38.411 -27.701  0.00  0.00    +0.012 C 
BRANCH   2   5
ATOM      3  C   UNL A   1      34.959 -36.810 -29.544  0.00  0.00    +0.246 C 
ATOM      4  O   UNL A   1      34.907 -37.682 -30.405  0.00  0.00    -0.270 OA
ATOM      5  N   UNL A   1      34.837 -37.070 -28.193  0.00  0.00    -0.311 N 
ATOM      6  H   UNL A   1      34.917 -36.329 -27.550  0.00  0.00    +0.000 HD
BRANCH   3  12
ATOM      7  C   UNL A   1      36.173 -35.073 -30.902  0.00  0.00    +0.044 A 
ATOM      8  C   UNL A   1      36.356 -33.722 -31.235  0.00  0.00    -0.040 A 
ATOM      9  C   UNL A   1      35.595 -32.715 -30.637  0.00  0.00    -0.060 A 
ATOM     10  C   UNL A   1      34.627 -33.039 -29.691  0.00  0.00    -0.061 A 
ATOM     11  C   UNL A   1      34.423 -34.372 -29.339  0.00  0.00    -0.048 A 
ATOM     12  C   UNL A   1      35.198 -35.388 -29.928  0.00  0.00    +0.058 A 
BRANCH   7  13
ATOM     13  N   UNL A   1      36.957 -36.085 -31.498  0.00  0.00    -0.314 N 
ATOM     14  H   UNL A   1      36.428 -36.830 -31.863  0.00  0.00    +0.000 HD
BRANCH  13  20
ATOM     15  C   UNL A   1      41.356 -37.890 -29.929  0.00  0.00    -0.039 C 
ATOM     16  C   UNL A   1      40.500 -37.136 -30.911  0.00  0.00    -0.046 A 
ATOM     17  C   UNL A   1      41.117 -36.579 -32.041  0.00  0.00    -0.058 A 
ATOM     18  C   UNL A   1      40.373 -35.869 -32.976  0.00  0.00    -0.060 A 
ATOM     19  C   UNL A   1      39.003 -35.702 -32.790  0.00  0.00    -0.040 A 
ATOM     20  C   UNL A   1      38.348 -36.241 -31.675  0.00  0.00    +0.035 A 
ATOM     21  C   UNL A   1      39.101 -36.995 -30.739  0.00  0.00    -0.026 A 
ATOM     22  C   UNL A   1      38.411 -37.605 -29.541  0.00  0.00    -0.038 C 
ENDBRANCH  13  20
ENDBRANCH   7  13
ENDBRANCH   3  12
ENDBRANCH   2   5
ENDBRANCH   1   2
BRANCH   1  23
ATOM     23  C   UNL A   1      32.660 -39.302 -26.338  0.00  0.00    -0.052 C 
BRANCH  23  24
ATOM     24  C   UNL A   1      31.399 -38.605 -25.828  0.00  0.00    -0.053 C 
BRANCH  24  25
ATOM     25  C   UNL A   1      31.055 -37.303 -26.557  0.00  0.00    -0.052 C 
BRANCH  25  26
ATOM     26  C   UNL A   1      31.675 -36.036 -25.959  0.00  0.00    -0.037 C 
BRANCH  26  27
ATOM     27  C   UNL A   1      31.741 -34.871 -26.950  0.00  0.00    +0.009 C 
BRANCH  27  28
ATOM     28  N   UNL A   1      30.569 -34.846 -27.841  0.00  0.00    -0.343 N 
ATOM     29  H   UNL A   1      29.681 -35.159 -27.554  0.00  0.00    +0.000 HD
BRANCH  28  30
ATOM     30  C   UNL A   1      30.816 -34.339 -29.145  0.00  0.00    +0.041 A 
ATOM     31  C   UNL A   1      30.774 -32.951 -29.394  0.00  0.00    -0.005 A 
ATOM     32  C   UNL A   1      31.104 -32.512 -30.681  0.00  0.00    +0.047 A 
ATOM     33  N   UNL A   1      31.490 -33.346 -31.675  0.00  0.00    -0.251 NA
ATOM     34  C   UNL A   1      31.508 -34.663 -31.449  0.00  0.00    +0.074 A 
ATOM     35  C   UNL A   1      31.869 -35.493 -32.500  0.00  0.00    -0.017 A 
ATOM     36  C   UNL A   1      31.880 -36.878 -32.357  0.00  0.00    +0.043 A 
ATOM     37 CL   UNL A   1      32.329 -37.874 -33.686  0.00  0.00    -0.083 Cl
ATOM     38  C   UNL A   1      31.516 -37.460 -31.153  0.00  0.00    -0.043 A 
ATOM     39  C   UNL A   1      31.157 -36.638 -30.086  0.00  0.00    -0.049 A 
ATOM     40  C   UNL A   1      31.167 -35.227 -30.204  0.00  0.00    +0.022 A 
ATOM     41  C   UNL A   1      31.116 -31.050 -31.047  0.00  0.00    -0.010 C 
ATOM     42  C   UNL A   1      30.267 -30.190 -30.120  0.00  0.00    -0.047 C 
ATOM     43  C   UNL A   1      30.616 -30.501 -28.675  0.00  0.00    -0.049 C 
ATOM     44  C   UNL A   1      30.303 -31.962 -28.351  0.00  0.00    -0.024 C 
ENDBRANCH  28  30
ENDBRANCH  27  28
ENDBRANCH  26  27
ENDBRANCH  25  26
ENDBRANCH  24  25
ENDBRANCH  23  24
ENDBRANCH   1  23
TORSDOF 12
ENDMDL
MODEL 2
REMARK VINA RESULT:    -7.508     17.575     20.702
REMARK INTER + INTRA:         -16.768
REMARK INTER:                 -12.234
REMARK INTRA:                  -4.534
REMARK UNBOUND:                -3.993
REMARK  Name = cpd175.pdb
REMARK  14 active torsions:
REMARK  status: ('A' for Active; 'I' for Inactive)
REMARK    1  A    between atoms: C_1  and  C_2
REMARK    2  A    between atoms: C_6  and  N_7
REMARK    3  A    between atoms: N_7  and  C_8
REMARK    4  A    between atoms: C_13  and  C_14
REMARK    5  A    between atoms: N_16  and  C_17
REMARK    6  A    between atoms: C_17  and  C_18
REMARK    7  A    between atoms: C_18  and  C_19
REMARK    8  A    between atoms: C_19  and  C_20
REMARK    9  A    between atoms: C_20  and  C_21
REMARK   10  A    between atoms: C_21  and  C_22
REMARK   11  A    between atoms: C_22  and  C_23
REMARK   12  A    between atoms: C_23  and  N_24
REMARK   13  A    between atoms: N_24  and  C_25
REMARK   14  A    between atoms: C_40  and  C_41
REMARK                            x       y       z     vdW  Elec       q    Type
REMARK                         _______ _______ _______ _____ _____    ______ ____
ROOT
ATOM      1  C   UNL A   1      41.655 -17.719 -38.597  0.00  0.00    -0.037 C 
ENDROOT
BRANCH   1   2
ATOM      2  C   UNL A   1      42.901 -17.381 -39.413  0.00  0.00    +0.012 C 
BRANCH   2   5
ATOM      3  C   UNL A   1      44.280 -18.561 -41.086  0.00  0.00    +0.246 C 
ATOM      4  O   UNL A   1      44.422 -17.558 -41.780  0.00  0.00    -0.270 OA
ATOM      5  N   UNL A   1      43.538 -18.579 -39.921  0.00  0.00    -0.311 N 
ATOM      6  H   UNL A   1      43.439 -19.423 -39.426  0.00  0.00    +0.000 HD
BRANCH   3  12
ATOM      7  C   UNL A   1      46.215 -20.170 -41.101  0.00  0.00    +0.044 A 
ATOM      8  C   UNL A   1      46.749 -21.402 -41.510  0.00  0.00    -0.040 A 
ATOM      9  C   UNL A   1      46.004 -22.300 -42.277  0.00  0.00    -0.060 A 
ATOM     10  C   UNL A   1      44.701 -21.985 -42.650  0.00  0.00    -0.061 A 
ATOM     11  C   UNL A   1      44.143 -20.769 -42.260  0.00  0.00    -0.048 A 
ATOM     12  C   UNL A   1      44.896 -19.855 -41.501  0.00  0.00    +0.058 A 
BRANCH   7  13
ATOM     13  N   UNL A   1      46.981 -19.259 -40.340  0.00  0.00    -0.314 N 
ATOM     14  H   UNL A   1      47.653 -18.772 -40.870  0.00  0.00    +0.000 HD
BRANCH  13  20
ATOM     15  C   UNL A   1      47.095 -15.761 -36.760  0.00  0.00    -0.039 C 
ATOM     16  C   UNL A   1      47.020 -17.192 -37.221  0.00  0.00    -0.046 A 
ATOM     17  C   UNL A   1      46.937 -18.202 -36.252  0.00  0.00    -0.058 A 
ATOM     18  C   UNL A   1      46.872 -19.539 -36.625  0.00  0.00    -0.060 A 
ATOM     19  C   UNL A   1      46.893 -19.884 -37.973  0.00  0.00    -0.040 A 
ATOM     20  C   UNL A   1      46.976 -18.907 -38.975  0.00  0.00    +0.035 A 
ATOM     21  C   UNL A   1      47.009 -17.541 -38.595  0.00  0.00    -0.026 A 
ATOM     22  C   UNL A   1      47.075 -16.469 -39.658  0.00  0.00    -0.038 C 
ENDBRANCH  13  20
ENDBRANCH   7  13
ENDBRANCH   3  12
ENDBRANCH   2   5
ENDBRANCH   1   2
BRANCH   1  23
ATOM     23  C   UNL A   1      41.835 -17.353 -37.122  0.00  0.00    -0.052 C 
BRANCH  23  24
ATOM     24  C   UNL A   1      43.193 -17.821 -36.599  0.00  0.00    -0.053 C 
BRANCH  24  25
ATOM     25  C   UNL A   1      43.363 -17.706 -35.081  0.00  0.00    -0.052 C 
BRANCH  25  26
ATOM     26  C   UNL A   1      43.699 -19.016 -34.361  0.00  0.00    -0.037 C 
BRANCH  26  27
ATOM     27  C   UNL A   1      43.710 -20.230 -35.293  0.00  0.00    +0.009 C 
BRANCH  27  28
ATOM     28  N   UNL A   1      42.616 -21.166 -34.983  0.00  0.00    -0.343 N 
ATOM     29  H   UNL A   1      42.732 -21.933 -34.377  0.00  0.00    +0.000 HD
BRANCH  28  30
ATOM     30  C   UNL A   1      41.380 -20.879 -35.623  0.00  0.00    +0.041 A 
ATOM     31  C   UNL A   1      41.225 -21.090 -37.009  0.00  0.00    -0.005 A 
ATOM     32  C   UNL A   1      39.960 -20.864 -37.563  0.00  0.00    +0.047 A 
ATOM     33  N   UNL A   1      38.884 -20.489 -36.832  0.00  0.00    -0.251 NA
ATOM     34  C   UNL A   1      39.034 -20.265 -35.523  0.00  0.00    +0.074 A 
ATOM     35  C   UNL A   1      37.922 -19.843 -34.809  0.00  0.00    -0.017 A 
ATOM     36  C   UNL A   1      38.001 -19.556 -33.449  0.00  0.00    +0.043 A 
ATOM     37 CL   UNL A   1      36.600 -19.030 -32.600  0.00  0.00    -0.083 Cl
ATOM     38  C   UNL A   1      39.207 -19.677 -32.777  0.00  0.00    -0.043 A 
ATOM     39  C   UNL A   1      40.332 -20.106 -33.480  0.00  0.00    -0.049 A 
ATOM     40  C   UNL A   1      40.265 -20.430 -34.857  0.00  0.00    +0.022 A 
ATOM     41  C   UNL A   1      39.679 -21.083 -39.028  0.00  0.00    -0.010 C 
ATOM     42  C   UNL A   1      40.931 -21.044 -39.894  0.00  0.00    -0.047 C 
ATOM     43  C   UNL A   1      41.994 -21.949 -39.293  0.00  0.00    -0.049 C 
ATOM     44  C   UNL A   1      42.390 -21.458 -37.900  0.00  0.00    -0.024 C 
ENDBRANCH  28  30
ENDBRANCH  27  28
ENDBRANCH  26  27
ENDBRANCH  25  26
ENDBRANCH  24  25
ENDBRANCH  23  24
ENDBRANCH   1  23
TORSDOF 12
ENDMDL
MODEL 3
REMARK VINA RESULT:    -7.442     17.223     20.391
REMARK INTER + INTRA:         -16.656
REMARK INTER:                 -12.739
REMARK INTRA:                  -3.917
REMARK UNBOUND:                -3.993
REMARK  Name = cpd175.pdb
REMARK  14 active torsions:
REMARK  status: ('A' for Active; 'I' for Inactive)
REMARK    1  A    between atoms: C_1  and  C_2
REMARK    2  A    between atoms: C_6  and  N_7
REMARK    3  A    between atoms: N_7  and  C_8
REMARK    4  A    between atoms: C_13  and  C_14
REMARK    5  A    between atoms: N_16  and  C_17
REMARK    6  A    between atoms: C_17  and  C_18
REMARK    7  A    between atoms: C_18  and  C_19
REMARK    8  A    between atoms: C_19  and  C_20
REMARK    9  A    between atoms: C_20  and  C_21
REMARK   10  A    between atoms: C_21  and  C_22
REMARK   11  A    between atoms: C_22  and  C_23
REMARK   12  A    between atoms: C_23  and  N_24
REMARK   13  A    between atoms: N_24  and  C_25
REMARK   14  A    between atoms: C_40  and  C_41
REMARK                            x       y       z     vdW  Elec       q    Type
REMARK                         _______ _______ _______ _____ _____    ______ ____
ROOT
ATOM      1  C   UNL A   1      46.441 -16.827 -37.196  0.00  0.00    -0.037 C 
ENDROOT
BRANCH   1   2
ATOM      2  C   UNL A   1      44.999 -16.407 -36.915  0.00  0.00    +0.012 C 
BRANCH   2   5
ATOM      3  C   UNL A   1      43.392 -17.974 -37.940  0.00  0.00    +0.246 C 
ATOM      4  O   UNL A   1      43.406 -17.392 -39.021  0.00  0.00    -0.270 OA
ATOM      5  N   UNL A   1      44.121 -17.557 -36.844  0.00  0.00    -0.311 N 
ATOM      6  H   UNL A   1      44.043 -18.052 -35.997  0.00  0.00    +0.000 HD
BRANCH   3  12
ATOM      7  C   UNL A   1      42.677 -20.295 -38.605  0.00  0.00    +0.044 A 
ATOM      8  C   UNL A   1      41.852 -21.407 -38.379  0.00  0.00    -0.040 A 
ATOM      9  C   UNL A   1      40.923 -21.426 -37.335  0.00  0.00    -0.060 A 
ATOM     10  C   UNL A   1      40.803 -20.328 -36.488  0.00  0.00    -0.061 A 
ATOM     11  C   UNL A   1      41.609 -19.208 -36.688  0.00  0.00    -0.048 A 
ATOM     12  C   UNL A   1      42.533 -19.179 -37.747  0.00  0.00    +0.058 A 
BRANCH   7  13
ATOM     13  N   UNL A   1      43.600 -20.276 -39.673  0.00  0.00    -0.314 N 
ATOM     14  H   UNL A   1      43.352 -19.657 -40.397  0.00  0.00    +0.000 HD
BRANCH  13  20
ATOM     15  C   UNL A   1      46.489 -23.065 -42.663  0.00  0.00    -0.039 C 
ATOM     16  C   UNL A   1      46.226 -22.323 -41.380  0.00  0.00    -0.046 A 
ATOM     17  C   UNL A   1      47.226 -22.318 -40.397  0.00  0.00    -0.058 A 
ATOM     18  C   UNL A   1      47.031 -21.652 -39.192  0.00  0.00    -0.060 A 
ATOM     19  C   UNL A   1      45.832 -20.986 -38.954  0.00  0.00    -0.040 A 
ATOM     20  C   UNL A   1      44.807 -20.965 -39.910  0.00  0.00    +0.035 A 
ATOM     21  C   UNL A   1      45.019 -21.617 -41.152  0.00  0.00    -0.026 A 
ATOM     22  C   UNL A   1      43.937 -21.588 -42.207  0.00  0.00    -0.038 C 
ENDBRANCH  13  20
ENDBRANCH   7  13
ENDBRANCH   3  12
ENDBRANCH   2   5
ENDBRANCH   1   2
BRANCH   1  23
ATOM     23  C   UNL A   1      47.223 -17.046 -35.899  0.00  0.00    -0.052 C 
BRANCH  23  24
ATOM     24  C   UNL A   1      47.862 -18.435 -35.869  0.00  0.00    -0.053 C 
BRANCH  24  25
ATOM     25  C   UNL A   1      46.904 -19.582 -36.201  0.00  0.00    -0.052 C 
BRANCH  25  26
ATOM     26  C   UNL A   1      46.325 -20.319 -34.990  0.00  0.00    -0.037 C 
BRANCH  26  27
ATOM     27  C   UNL A   1      44.798 -20.243 -34.911  0.00  0.00    +0.009 C 
BRANCH  27  28
ATOM     28  N   UNL A   1      44.317 -20.371 -33.525  0.00  0.00    -0.343 N 
ATOM     29  H   UNL A   1      44.693 -21.025 -32.893  0.00  0.00    +0.000 HD
BRANCH  28  30
ATOM     30  C   UNL A   1      43.269 -19.480 -33.168  0.00  0.00    +0.041 A 
ATOM     31  C   UNL A   1      43.520 -18.099 -33.021  0.00  0.00    -0.005 A 
ATOM     32  C   UNL A   1      42.430 -17.266 -32.747  0.00  0.00    +0.047 A 
ATOM     33  N   UNL A   1      41.156 -17.715 -32.651  0.00  0.00    -0.251 NA
ATOM     34  C   UNL A   1      40.919 -19.026 -32.766  0.00  0.00    +0.074 A 
ATOM     35  C   UNL A   1      39.608 -19.459 -32.623  0.00  0.00    -0.017 A 
ATOM     36  C   UNL A   1      39.281 -20.810 -32.695  0.00  0.00    +0.043 A 
ATOM     37 CL   UNL A   1      37.644 -21.307 -32.507  0.00  0.00    -0.083 Cl
ATOM     38  C   UNL A   1      40.269 -21.759 -32.902  0.00  0.00    -0.043 A 
ATOM     39  C   UNL A   1      41.589 -21.339 -33.055  0.00  0.00    -0.049 A 
ATOM     40  C   UNL A   1      41.938 -19.966 -33.013  0.00  0.00    +0.022 A 
ATOM     41  C   UNL A   1      42.583 -15.775 -32.596  0.00  0.00    -0.010 C 
ATOM     42  C   UNL A   1      44.003 -15.347 -32.247  0.00  0.00    -0.047 C 
ATOM     43  C   UNL A   1      44.983 -16.009 -33.200  0.00  0.00    -0.049 C 
ATOM     44  C   UNL A   1      44.920 -17.530 -33.062  0.00  0.00    -0.024 C 
ENDBRANCH  28  30
ENDBRANCH  27  28
ENDBRANCH  26  27
ENDBRANCH  25  26
ENDBRANCH  24  25
ENDBRANCH  23  24
ENDBRANCH   1  23
TORSDOF 12
ENDMDL
MODEL 4
REMARK VINA RESULT:    -7.418     17.235     20.249
REMARK INTER + INTRA:         -16.614
REMARK INTER:                 -12.244
REMARK INTRA:                  -4.370
REMARK UNBOUND:                -3.993
REMARK  Name = cpd175.pdb
REMARK  14 active torsions:
REMARK  status: ('A' for Active; 'I' for Inactive)
REMARK    1  A    between atoms: C_1  and  C_2
REMARK    2  A    between atoms: C_6  and  N_7
REMARK    3  A    between atoms: N_7  and  C_8
REMARK    4  A    between atoms: C_13  and  C_14
REMARK    5  A    between atoms: N_16  and  C_17
REMARK    6  A    between atoms: C_17  and  C_18
REMARK    7  A    between atoms: C_18  and  C_19
REMARK    8  A    between atoms: C_19  and  C_20
REMARK    9  A    between atoms: C_20  and  C_21
REMARK   10  A    between atoms: C_21  and  C_22
REMARK   11  A    between atoms: C_22  and  C_23
REMARK   12  A    between atoms: C_23  and  N_24
REMARK   13  A    between atoms: N_24  and  C_25
REMARK   14  A    between atoms: C_40  and  C_41
REMARK                            x       y       z     vdW  Elec       q    Type
REMARK                         _______ _______ _______ _____ _____    ______ ____
ROOT
ATOM      1  C   UNL A   1      42.018 -17.522 -38.628  0.00  0.00    -0.037 C 
ENDROOT
BRANCH   1   2
ATOM      2  C   UNL A   1      42.848 -17.336 -39.896  0.00  0.00    +0.012 C 
BRANCH   2   5
ATOM      3  C   UNL A   1      44.546 -18.591 -41.174  0.00  0.00    +0.246 C 
ATOM      4  O   UNL A   1      45.009 -17.578 -41.690  0.00  0.00    -0.270 OA
ATOM      5  N   UNL A   1      43.477 -18.577 -40.300  0.00  0.00    -0.311 N 
ATOM      6  H   UNL A   1      43.135 -19.428 -39.943  0.00  0.00    +0.000 HD
BRANCH   3  12
ATOM      7  C   UNL A   1      46.289 -20.379 -40.854  0.00  0.00    +0.044 A 
ATOM      8  C   UNL A   1      46.784 -21.648 -41.192  0.00  0.00    -0.040 A 
ATOM      9  C   UNL A   1      46.137 -22.454 -42.131  0.00  0.00    -0.060 A 
ATOM     10  C   UNL A   1      44.974 -22.008 -42.752  0.00  0.00    -0.061 A 
ATOM     11  C   UNL A   1      44.459 -20.752 -42.437  0.00  0.00    -0.048 A 
ATOM     12  C   UNL A   1      45.117 -19.930 -41.504  0.00  0.00    +0.058 A 
BRANCH   7  13
ATOM     13  N   UNL A   1      46.958 -19.561 -39.916  0.00  0.00    -0.314 N 
ATOM     14  H   UNL A   1      47.686 -19.027 -40.309  0.00  0.00    +0.000 HD
BRANCH  13  20
ATOM     15  C   UNL A   1      46.696 -16.470 -35.987  0.00  0.00    -0.039 C 
ATOM     16  C   UNL A   1      46.654 -17.840 -36.608  0.00  0.00    -0.046 A 
ATOM     17  C   UNL A   1      46.436 -18.944 -35.771  0.00  0.00    -0.058 A 
ATOM     18  C   UNL A   1      46.393 -20.232 -36.293  0.00  0.00    -0.060 A 
ATOM     19  C   UNL A   1      46.573 -20.432 -37.659  0.00  0.00    -0.040 A 
ATOM     20  C   UNL A   1      46.793 -19.356 -38.531  0.00  0.00    +0.035 A 
ATOM     21  C   UNL A   1      46.803 -18.040 -38.002  0.00  0.00    -0.026 A 
ATOM     22  C   UNL A   1      47.017 -16.864 -38.927  0.00  0.00    -0.038 C 
ENDBRANCH  13  20
ENDBRANCH   7  13
ENDBRANCH   3  12
ENDBRANCH   2   5
ENDBRANCH   1   2
BRANCH   1  23
ATOM     23  C   UNL A   1      42.792 -17.086 -37.382  0.00  0.00    -0.052 C 
BRANCH  23  24
ATOM     24  C   UNL A   1      42.959 -18.247 -36.402  0.00  0.00    -0.053 C 
BRANCH  24  25
ATOM     25  C   UNL A   1      42.425 -17.970 -34.993  0.00  0.00    -0.052 C 
BRANCH  25  26
ATOM     26  C   UNL A   1      42.779 -19.027 -33.942  0.00  0.00    -0.037 C 
BRANCH  26  27
ATOM     27  C   UNL A   1      43.106 -20.394 -34.548  0.00  0.00    +0.009 C 
BRANCH  27  28
ATOM     28  N   UNL A   1      42.013 -21.358 -34.339  0.00  0.00    -0.343 N 
ATOM     29  H   UNL A   1      42.054 -22.065 -33.655  0.00  0.00    +0.000 HD
BRANCH  28  30
ATOM     30  C   UNL A   1      40.893 -21.193 -35.199  0.00  0.00    +0.041 A 
ATOM     31  C   UNL A   1      39.631 -20.847 -34.674  0.00  0.00    -0.005 A 
ATOM     32  C   UNL A   1      38.589 -20.622 -35.582  0.00  0.00    +0.047 A 
ATOM     33  N   UNL A   1      38.746 -20.688 -36.925  0.00  0.00    -0.251 NA
ATOM     34  C   UNL A   1      39.935 -21.039 -37.424  0.00  0.00    +0.074 A 
ATOM     35  C   UNL A   1      40.053 -21.137 -38.803  0.00  0.00    -0.017 A 
ATOM     36  C   UNL A   1      41.247 -21.530 -39.401  0.00  0.00    +0.043 A 
ATOM     37 CL   UNL A   1      41.351 -21.644 -41.115  0.00  0.00    -0.083 Cl
ATOM     38  C   UNL A   1      42.350 -21.844 -38.623  0.00  0.00    -0.043 A 
ATOM     39  C   UNL A   1      42.248 -21.744 -37.236  0.00  0.00    -0.049 A 
ATOM     40  C   UNL A   1      41.051 -21.319 -36.611  0.00  0.00    +0.022 A 
ATOM     41  C   UNL A   1      37.208 -20.223 -35.129  0.00  0.00    -0.010 C 
ATOM     42  C   UNL A   1      36.918 -20.594 -33.681  0.00  0.00    -0.047 C 
ATOM     43  C   UNL A   1      38.056 -20.117 -32.795  0.00  0.00    -0.049 C 
ATOM     44  C   UNL A   1      39.364 -20.805 -33.186  0.00  0.00    -0.024 C 
ENDBRANCH  28  30
ENDBRANCH  27  28
ENDBRANCH  26  27
ENDBRANCH  25  26
ENDBRANCH  24  25
ENDBRANCH  23  24
ENDBRANCH   1  23
TORSDOF 12
ENDMDL
MODEL 5
REMARK VINA RESULT:    -7.285     18.439     21.537
REMARK INTER + INTRA:         -16.389
REMARK INTER:                 -11.276
REMARK INTRA:                  -5.113
REMARK UNBOUND:                -3.993
REMARK  Name = cpd175.pdb
REMARK  14 active torsions:
REMARK  status: ('A' for Active; 'I' for Inactive)
REMARK    1  A    between atoms: C_1  and  C_2
REMARK    2  A    between atoms: C_6  and  N_7
REMARK    3  A    between atoms: N_7  and  C_8
REMARK    4  A    between atoms: C_13  and  C_14
REMARK    5  A    between atoms: N_16  and  C_17
REMARK    6  A    between atoms: C_17  and  C_18
REMARK    7  A    between atoms: C_18  and  C_19
REMARK    8  A    between atoms: C_19  and  C_20
REMARK    9  A    between atoms: C_20  and  C_21
REMARK   10  A    between atoms: C_21  and  C_22
REMARK   11  A    between atoms: C_22  and  C_23
REMARK   12  A    between atoms: C_23  and  N_24
REMARK   13  A    between atoms: N_24  and  C_25
REMARK   14  A    between atoms: C_40  and  C_41
REMARK                            x       y       z     vdW  Elec       q    Type
REMARK                         _______ _______ _______ _____ _____    ______ ____
ROOT
ATOM      1  C   UNL A   1      41.167 -21.965 -40.456  0.00  0.00    -0.037 C 
ENDROOT
BRANCH   1   2
ATOM      2  C   UNL A   1      42.104 -21.558 -41.590  0.00  0.00    +0.012 C 
BRANCH   2   5
ATOM      3  C   UNL A   1      44.551 -21.234 -41.651  0.00  0.00    +0.246 C 
ATOM      4  O   UNL A   1      44.462 -20.127 -42.174  0.00  0.00    -0.270 OA
ATOM      5  N   UNL A   1      43.456 -22.019 -41.345  0.00  0.00    -0.311 N 
ATOM      6  H   UNL A   1      43.597 -22.910 -40.953  0.00  0.00    +0.000 HD
BRANCH   3  12
ATOM      7  C   UNL A   1      46.475 -21.604 -40.072  0.00  0.00    +0.044 A 
ATOM      8  C   UNL A   1      47.733 -22.175 -39.825  0.00  0.00    -0.040 A 
ATOM      9  C   UNL A   1      48.389 -22.939 -40.794  0.00  0.00    -0.060 A 
ATOM     10  C   UNL A   1      47.795 -23.152 -42.034  0.00  0.00    -0.061 A 
ATOM     11  C   UNL A   1      46.546 -22.597 -42.309  0.00  0.00    -0.048 A 
ATOM     12  C   UNL A   1      45.891 -21.814 -41.342  0.00  0.00    +0.058 A 
BRANCH   7  13
ATOM     13  N   UNL A   1      45.827 -20.818 -39.094  0.00  0.00    -0.314 N 
ATOM     14  H   UNL A   1      44.859 -20.988 -39.031  0.00  0.00    +0.000 HD
BRANCH  13  20
ATOM     15  C   UNL A   1      47.521 -16.192 -38.200  0.00  0.00    -0.039 C 
ATOM     16  C   UNL A   1      47.106 -17.568 -37.752  0.00  0.00    -0.046 A 
ATOM     17  C   UNL A   1      47.178 -17.873 -36.385  0.00  0.00    -0.058 A 
ATOM     18  C   UNL A   1      46.812 -19.131 -35.919  0.00  0.00    -0.060 A 
ATOM     19  C   UNL A   1      46.373 -20.101 -36.816  0.00  0.00    -0.040 A 
ATOM     20  C   UNL A   1      46.287 -19.838 -38.190  0.00  0.00    +0.035 A 
ATOM     21  C   UNL A   1      46.628 -18.544 -38.661  0.00  0.00    -0.026 A 
ATOM     22  C   UNL A   1      46.521 -18.231 -40.135  0.00  0.00    -0.038 C 
ENDBRANCH  13  20
ENDBRANCH   7  13
ENDBRANCH   3  12
ENDBRANCH   2   5
ENDBRANCH   1   2
BRANCH   1  23
ATOM     23  C   UNL A   1      41.870 -21.906 -39.098  0.00  0.00    -0.052 C 
BRANCH  23  24
ATOM     24  C   UNL A   1      40.957 -22.412 -37.981  0.00  0.00    -0.053 C 
BRANCH  24  25
ATOM     25  C   UNL A   1      41.317 -21.897 -36.585  0.00  0.00    -0.052 C 
BRANCH  25  26
ATOM     26  C   UNL A   1      40.725 -20.532 -36.220  0.00  0.00    -0.037 C 
BRANCH  26  27
ATOM     27  C   UNL A   1      41.583 -19.749 -35.223  0.00  0.00    +0.009 C 
BRANCH  27  28
ATOM     28  N   UNL A   1      42.950 -19.538 -35.729  0.00  0.00    -0.343 N 
ATOM     29  H   UNL A   1      43.596 -20.274 -35.828  0.00  0.00    +0.000 HD
BRANCH  28  30
ATOM     30  C   UNL A   1      43.266 -18.193 -36.062  0.00  0.00    +0.041 A 
ATOM     31  C   UNL A   1      43.654 -17.279 -35.061  0.00  0.00    -0.005 A 
ATOM     32  C   UNL A   1      44.029 -15.993 -35.465  0.00  0.00    +0.047 A 
ATOM     33  N   UNL A   1      44.069 -15.603 -36.762  0.00  0.00    -0.251 NA
ATOM     34  C   UNL A   1      43.680 -16.460 -37.711  0.00  0.00    +0.074 A 
ATOM     35  C   UNL A   1      43.694 -16.018 -39.025  0.00  0.00    -0.017 A 
ATOM     36  C   UNL A   1      43.272 -16.837 -40.069  0.00  0.00    +0.043 A 
ATOM     37 CL   UNL A   1      43.301 -16.248 -41.686  0.00  0.00    -0.083 Cl
ATOM     38  C   UNL A   1      42.815 -18.119 -39.811  0.00  0.00    -0.043 A 
ATOM     39  C   UNL A   1      42.801 -18.580 -38.496  0.00  0.00    -0.049 A 
ATOM     40  C   UNL A   1      43.253 -17.772 -37.424  0.00  0.00    +0.022 A 
ATOM     41  C   UNL A   1      44.483 -14.946 -34.480  0.00  0.00    -0.010 C 
ATOM     42  C   UNL A   1      44.009 -15.212 -33.058  0.00  0.00    -0.047 C 
ATOM     43  C   UNL A   1      44.326 -16.648 -32.675  0.00  0.00    -0.049 C 
ATOM     44  C   UNL A   1      43.585 -17.623 -33.590  0.00  0.00    -0.024 C 
ENDBRANCH  28  30
ENDBRANCH  27  28
ENDBRANCH  26  27
ENDBRANCH  25  26
ENDBRANCH  24  25
ENDBRANCH  23  24
ENDBRANCH   1  23
TORSDOF 12
ENDMDL
MODEL 6
REMARK VINA RESULT:    -7.224      2.887      8.105
REMARK INTER + INTRA:         -16.286
REMARK INTER:                 -11.660
REMARK INTRA:                  -4.625
REMARK UNBOUND:                -3.993
REMARK  Name = cpd175.pdb
REMARK  14 active torsions:
REMARK  status: ('A' for Active; 'I' for Inactive)
REMARK    1  A    between atoms: C_1  and  C_2
REMARK    2  A    between atoms: C_6  and  N_7
REMARK    3  A    between atoms: N_7  and  C_8
REMARK    4  A    between atoms: C_13  and  C_14
REMARK    5  A    between atoms: N_16  and  C_17
REMARK    6  A    between atoms: C_17  and  C_18
REMARK    7  A    between atoms: C_18  and  C_19
REMARK    8  A    between atoms: C_19  and  C_20
REMARK    9  A    between atoms: C_20  and  C_21
REMARK   10  A    between atoms: C_21  and  C_22
REMARK   11  A    between atoms: C_22  and  C_23
REMARK   12  A    between atoms: C_23  and  N_24
REMARK   13  A    between atoms: N_24  and  C_25
REMARK   14  A    between atoms: C_40  and  C_41
REMARK                            x       y       z     vdW  Elec       q    Type
REMARK                         _______ _______ _______ _____ _____    ______ ____
ROOT
ATOM      1  C   UNL A   1      31.527 -37.017 -33.223  0.00  0.00    -0.037 C 
ENDROOT
BRANCH   1   2
ATOM      2  C   UNL A   1      31.209 -37.882 -32.006  0.00  0.00    +0.012 C 
BRANCH   2   5
ATOM      3  C   UNL A   1      32.604 -39.732 -31.151  0.00  0.00    +0.246 C 
ATOM      4  O   UNL A   1      31.758 -40.583 -31.411  0.00  0.00    -0.270 OA
ATOM      5  N   UNL A   1      32.420 -38.383 -31.386  0.00  0.00    -0.311 N 
ATOM      6  H   UNL A   1      33.126 -37.749 -31.128  0.00  0.00    +0.000 HD
BRANCH   3  12
ATOM      7  C   UNL A   1      33.903 -40.730 -29.241  0.00  0.00    +0.044 A 
ATOM      8  C   UNL A   1      35.143 -41.089 -28.691  0.00  0.00    -0.040 A 
ATOM      9  C   UNL A   1      36.338 -40.872 -29.383  0.00  0.00    -0.060 A 
ATOM     10  C   UNL A   1      36.316 -40.292 -30.647  0.00  0.00    -0.061 A 
ATOM     11  C   UNL A   1      35.100 -39.924 -31.220  0.00  0.00    -0.048 A 
ATOM     12  C   UNL A   1      33.897 -40.126 -30.519  0.00  0.00    +0.058 A 
BRANCH   7  13
ATOM     13  N   UNL A   1      32.702 -40.936 -28.528  0.00  0.00    -0.314 N 
ATOM     14  H   UNL A   1      31.944 -41.193 -29.101  0.00  0.00    +0.000 HD
BRANCH  13  20
ATOM     15  C   UNL A   1      30.385 -38.573 -24.771  0.00  0.00    -0.039 C 
ATOM     16  C   UNL A   1      31.225 -39.694 -25.322  0.00  0.00    -0.046 A 
ATOM     17  C   UNL A   1      31.682 -40.681 -24.437  0.00  0.00    -0.058 A 
ATOM     18  C   UNL A   1      32.466 -41.735 -24.895  0.00  0.00    -0.060 A 
ATOM     19  C   UNL A   1      32.805 -41.811 -26.243  0.00  0.00    -0.040 A 
ATOM     20  C   UNL A   1      32.370 -40.846 -27.160  0.00  0.00    +0.035 A 
ATOM     21  C   UNL A   1      31.542 -39.790 -26.700  0.00  0.00    -0.026 A 
ATOM     22  C   UNL A   1      31.042 -38.750 -27.676  0.00  0.00    -0.038 C 
ENDBRANCH  13  20
ENDBRANCH   7  13
ENDBRANCH   3  12
ENDBRANCH   2   5
ENDBRANCH   1   2
BRANCH   1  23
ATOM     23  C   UNL A   1      31.095 -35.565 -33.007  0.00  0.00    -0.052 C 
BRANCH  23  24
ATOM     24  C   UNL A   1      31.979 -34.876 -31.967  0.00  0.00    -0.053 C 
BRANCH  24  25
ATOM     25  C   UNL A   1      33.397 -34.557 -32.450  0.00  0.00    -0.052 C 
BRANCH  25  26
ATOM     26  C   UNL A   1      34.105 -33.428 -31.694  0.00  0.00    -0.037 C 
BRANCH  26  27
ATOM     27  C   UNL A   1      35.529 -33.790 -31.265  0.00  0.00    +0.009 C 
BRANCH  27  28
ATOM     28  N   UNL A   1      35.934 -35.109 -31.778  0.00  0.00    -0.343 N 
ATOM     29  H   UNL A   1      35.672 -35.433 -32.671  0.00  0.00    +0.000 HD
BRANCH  28  30
ATOM     30  C   UNL A   1      36.730 -35.882 -30.890  0.00  0.00    +0.041 A 
ATOM     31  C   UNL A   1      38.108 -36.057 -31.131  0.00  0.00    -0.005 A 
ATOM     32  C   UNL A   1      38.850 -36.762 -30.176  0.00  0.00    +0.047 A 
ATOM     33  N   UNL A   1      38.317 -37.246 -29.029  0.00  0.00    -0.251 NA
ATOM     34  C   UNL A   1      37.007 -37.102 -28.810  0.00  0.00    +0.074 A 
ATOM     35  C   UNL A   1      36.484 -37.645 -27.645  0.00  0.00    -0.017 A 
ATOM     36  C   UNL A   1      35.123 -37.568 -27.358  0.00  0.00    +0.043 A 
ATOM     37 CL   UNL A   1      34.513 -38.258 -25.905  0.00  0.00    -0.083 Cl
ATOM     38  C   UNL A   1      34.255 -36.950 -28.244  0.00  0.00    -0.043 A 
ATOM     39  C   UNL A   1      34.767 -36.395 -29.415  0.00  0.00    -0.049 A 
ATOM     40  C   UNL A   1      36.151 -36.438 -29.711  0.00  0.00    +0.022 A 
ATOM     41  C   UNL A   1      40.333 -36.985 -30.323  0.00  0.00    -0.010 C 
ATOM     42  C   UNL A   1      40.821 -36.865 -31.760  0.00  0.00    -0.047 C 
ATOM     43  C   UNL A   1      40.293 -35.578 -32.372  0.00  0.00    -0.049 C 
ATOM     44  C   UNL A   1      38.765 -35.591 -32.411  0.00  0.00    -0.024 C 
ENDBRANCH  28  30
ENDBRANCH  27  28
ENDBRANCH  26  27
ENDBRANCH  25  26
ENDBRANCH  24  25
ENDBRANCH  23  24
ENDBRANCH   1  23
TORSDOF 12
ENDMDL
MODEL 7
REMARK VINA RESULT:    -7.223      3.694      6.949
REMARK INTER + INTRA:         -16.283
REMARK INTER:                 -11.794
REMARK INTRA:                  -4.488
REMARK UNBOUND:                -3.993
REMARK  Name = cpd175.pdb
REMARK  14 active torsions:
REMARK  status: ('A' for Active; 'I' for Inactive)
REMARK    1  A    between atoms: C_1  and  C_2
REMARK    2  A    between atoms: C_6  and  N_7
REMARK    3  A    between atoms: N_7  and  C_8
REMARK    4  A    between atoms: C_13  and  C_14
REMARK    5  A    between atoms: N_16  and  C_17
REMARK    6  A    between atoms: C_17  and  C_18
REMARK    7  A    between atoms: C_18  and  C_19
REMARK    8  A    between atoms: C_19  and  C_20
REMARK    9  A    between atoms: C_20  and  C_21
REMARK   10  A    between atoms: C_21  and  C_22
REMARK   11  A    between atoms: C_22  and  C_23
REMARK   12  A    between atoms: C_23  and  N_24
REMARK   13  A    between atoms: N_24  and  C_25
REMARK   14  A    between atoms: C_40  and  C_41
REMARK                            x       y       z     vdW  Elec       q    Type
REMARK                         _______ _______ _______ _____ _____    ______ ____
ROOT
ATOM      1  C   UNL A   1      32.761 -36.904 -32.348  0.00  0.00    -0.037 C 
ENDROOT
BRANCH   1   2
ATOM      2  C   UNL A   1      32.100 -37.289 -33.670  0.00  0.00    +0.012 C 
BRANCH   2   5
ATOM      3  C   UNL A   1      31.745 -39.728 -33.806  0.00  0.00    +0.246 C 
ATOM      4  O   UNL A   1      30.707 -39.684 -33.151  0.00  0.00    -0.270 OA
ATOM      5  N   UNL A   1      32.507 -38.613 -34.095  0.00  0.00    -0.311 N 
ATOM      6  H   UNL A   1      33.345 -38.721 -34.600  0.00  0.00    +0.000 HD
BRANCH   3  12
ATOM      7  C   UNL A   1      32.801 -41.976 -33.400  0.00  0.00    +0.044 A 
ATOM      8  C   UNL A   1      33.268 -43.194 -33.918  0.00  0.00    -0.040 A 
ATOM      9  C   UNL A   1      33.195 -43.481 -35.283  0.00  0.00    -0.060 A 
ATOM     10  C   UNL A   1      32.647 -42.553 -36.163  0.00  0.00    -0.061 A 
ATOM     11  C   UNL A   1      32.175 -41.334 -35.679  0.00  0.00    -0.048 A 
ATOM     12  C   UNL A   1      32.262 -41.035 -34.307  0.00  0.00    +0.058 A 
BRANCH   7  13
ATOM     13  N   UNL A   1      32.894 -41.686 -32.021  0.00  0.00    -0.314 N 
ATOM     14  H   UNL A   1      32.020 -41.624 -31.572  0.00  0.00    +0.000 HD
BRANCH  13  20
ATOM     15  C   UNL A   1      35.194 -42.474 -27.644  0.00  0.00    -0.039 C 
ATOM     16  C   UNL A   1      35.119 -41.863 -29.018  0.00  0.00    -0.046 A 
ATOM     17  C   UNL A   1      36.182 -41.055 -29.447  0.00  0.00    -0.058 A 
ATOM     18  C   UNL A   1      36.160 -40.463 -30.704  0.00  0.00    -0.060 A 
ATOM     19  C   UNL A   1      35.071 -40.668 -31.547  0.00  0.00    -0.040 A 
ATOM     20  C   UNL A   1      33.988 -41.467 -31.158  0.00  0.00    +0.035 A 
ATOM     21  C   UNL A   1      34.026 -42.099 -29.888  0.00  0.00    -0.026 A 
ATOM     22  C   UNL A   1      32.879 -42.983 -29.457  0.00  0.00    -0.038 C 
ENDBRANCH  13  20
ENDBRANCH   7  13
ENDBRANCH   3  12
ENDBRANCH   2   5
ENDBRANCH   1   2
BRANCH   1  23
ATOM     23  C   UNL A   1      31.737 -36.366 -31.346  0.00  0.00    -0.052 C 
BRANCH  23  24
ATOM     24  C   UNL A   1      31.585 -37.308 -30.153  0.00  0.00    -0.053 C 
BRANCH  24  25
ATOM     25  C   UNL A   1      32.618 -38.438 -30.100  0.00  0.00    -0.052 C 
BRANCH  25  26
ATOM     26  C   UNL A   1      33.497 -38.460 -28.846  0.00  0.00    -0.037 C 
BRANCH  26  27
ATOM     27  C   UNL A   1      33.334 -37.213 -27.973  0.00  0.00    +0.009 C 
BRANCH  27  28
ATOM     28  N   UNL A   1      34.614 -36.510 -27.783  0.00  0.00    -0.343 N 
ATOM     29  H   UNL A   1      35.142 -36.586 -26.956  0.00  0.00    +0.000 HD
BRANCH  28  30
ATOM     30  C   UNL A   1      35.030 -35.712 -28.883  0.00  0.00    +0.041 A 
ATOM     31  C   UNL A   1      36.224 -36.010 -29.574  0.00  0.00    -0.005 A 
ATOM     32  C   UNL A   1      36.535 -35.234 -30.696  0.00  0.00    +0.047 A 
ATOM     33  N   UNL A   1      35.736 -34.246 -31.162  0.00  0.00    -0.251 NA
ATOM     34  C   UNL A   1      34.616 -33.946 -30.496  0.00  0.00    +0.074 A 
ATOM     35  C   UNL A   1      33.839 -32.902 -30.976  0.00  0.00    -0.017 A 
ATOM     36  C   UNL A   1      32.677 -32.504 -30.321  0.00  0.00    +0.043 A 
ATOM     37 CL   UNL A   1      31.743 -31.201 -30.947  0.00  0.00    -0.083 Cl
ATOM     38  C   UNL A   1      32.275 -33.144 -29.160  0.00  0.00    -0.043 A 
ATOM     39  C   UNL A   1      33.042 -34.199 -28.669  0.00  0.00    -0.049 A 
ATOM     40  C   UNL A   1      34.212 -34.636 -29.336  0.00  0.00    +0.022 A 
ATOM     41  C   UNL A   1      37.772 -35.483 -31.520  0.00  0.00    -0.010 C 
ATOM     42  C   UNL A   1      38.857 -36.238 -30.765  0.00  0.00    -0.047 C 
ATOM     43  C   UNL A   1      38.257 -37.468 -30.104  0.00  0.00    -0.049 C 
ATOM     44  C   UNL A   1      37.193 -37.062 -29.085  0.00  0.00    -0.024 C 
ENDBRANCH  28  30
ENDBRANCH  27  28
ENDBRANCH  26  27
ENDBRANCH  25  26
ENDBRANCH  24  25
ENDBRANCH  23  24
ENDBRANCH   1  23
TORSDOF 12
ENDMDL
MODEL 8
REMARK VINA RESULT:    -7.125     17.197     20.072
REMARK INTER + INTRA:         -16.117
REMARK INTER:                 -12.820
REMARK INTRA:                  -3.296
REMARK UNBOUND:                -3.993
REMARK  Name = cpd175.pdb
REMARK  14 active torsions:
REMARK  status: ('A' for Active; 'I' for Inactive)
REMARK    1  A    between atoms: C_1  and  C_2
REMARK    2  A    between atoms: C_6  and  N_7
REMARK    3  A    between atoms: N_7  and  C_8
REMARK    4  A    between atoms: C_13  and  C_14
REMARK    5  A    between atoms: N_16  and  C_17
REMARK    6  A    between atoms: C_17  and  C_18
REMARK    7  A    between atoms: C_18  and  C_19
REMARK    8  A    between atoms: C_19  and  C_20
REMARK    9  A    between atoms: C_20  and  C_21
REMARK   10  A    between atoms: C_21  and  C_22
REMARK   11  A    between atoms: C_22  and  C_23
REMARK   12  A    between atoms: C_23  and  N_24
REMARK   13  A    between atoms: N_24  and  C_25
REMARK   14  A    between atoms: C_40  and  C_41
REMARK                            x       y       z     vdW  Elec       q    Type
REMARK                         _______ _______ _______ _____ _____    ______ ____
ROOT
ATOM      1  C   UNL A   1      43.684 -18.594 -33.090  0.00  0.00    -0.037 C 
ENDROOT
BRANCH   1   2
ATOM      2  C   UNL A   1      44.481 -19.352 -34.149  0.00  0.00    +0.012 C 
BRANCH   2   5
ATOM      3  C   UNL A   1      45.945 -18.898 -36.084  0.00  0.00    +0.246 C 
ATOM      4  O   UNL A   1      46.259 -20.077 -36.213  0.00  0.00    -0.270 OA
ATOM      5  N   UNL A   1      45.098 -18.442 -35.093  0.00  0.00    -0.311 N 
ATOM      6  H   UNL A   1      44.908 -17.479 -35.027  0.00  0.00    +0.000 HD
BRANCH   3  12
ATOM      7  C   UNL A   1      46.301 -17.973 -38.398  0.00  0.00    +0.044 A 
ATOM      8  C   UNL A   1      46.844 -16.974 -39.221  0.00  0.00    -0.040 A 
ATOM      9  C   UNL A   1      47.558 -15.898 -38.686  0.00  0.00    -0.060 A 
ATOM     10  C   UNL A   1      47.740 -15.796 -37.311  0.00  0.00    -0.061 A 
ATOM     11  C   UNL A   1      47.213 -16.773 -36.468  0.00  0.00    -0.048 A 
ATOM     12  C   UNL A   1      46.508 -17.866 -37.003  0.00  0.00    +0.058 A 
BRANCH   7  13
ATOM     13  N   UNL A   1      45.597 -19.067 -38.946  0.00  0.00    -0.314 N 
ATOM     14  H   UNL A   1      45.061 -19.562 -38.284  0.00  0.00    +0.000 HD
BRANCH  13  20
ATOM     15  C   UNL A   1      46.655 -22.673 -42.254  0.00  0.00    -0.039 C 
ATOM     16  C   UNL A   1      46.015 -21.366 -41.868  0.00  0.00    -0.046 A 
ATOM     17  C   UNL A   1      45.303 -20.659 -42.847  0.00  0.00    -0.058 A 
ATOM     18  C   UNL A   1      44.698 -19.444 -42.544  0.00  0.00    -0.060 A 
ATOM     19  C   UNL A   1      44.803 -18.919 -41.259  0.00  0.00    -0.040 A 
ATOM     20  C   UNL A   1      45.506 -19.593 -40.251  0.00  0.00    +0.035 A 
ATOM     21  C   UNL A   1      46.094 -20.849 -40.552  0.00  0.00    -0.026 A 
ATOM     22  C   UNL A   1      46.838 -21.604 -39.474  0.00  0.00    -0.038 C 
ENDBRANCH  13  20
ENDBRANCH   7  13
ENDBRANCH   3  12
ENDBRANCH   2   5
ENDBRANCH   1   2
BRANCH   1  23
ATOM     23  C   UNL A   1      43.832 -17.080 -33.253  0.00  0.00    -0.052 C 
BRANCH  23  24
ATOM     24  C   UNL A   1      42.480 -16.420 -33.525  0.00  0.00    -0.053 C 
BRANCH  24  25
ATOM     25  C   UNL A   1      41.811 -16.858 -34.831  0.00  0.00    -0.052 C 
BRANCH  25  26
ATOM     26  C   UNL A   1      40.283 -16.967 -34.777  0.00  0.00    -0.037 C 
BRANCH  26  27
ATOM     27  C   UNL A   1      39.763 -18.349 -35.179  0.00  0.00    +0.009 C 
BRANCH  27  28
ATOM     28  N   UNL A   1      40.783 -19.393 -34.986  0.00  0.00    -0.343 N 
ATOM     29  H   UNL A   1      41.599 -19.243 -34.456  0.00  0.00    +0.000 HD
BRANCH  28  30
ATOM     30  C   UNL A   1      40.504 -20.632 -35.624  0.00  0.00    +0.041 A 
ATOM     31  C   UNL A   1      39.709 -21.605 -34.983  0.00  0.00    -0.005 A 
ATOM     32  C   UNL A   1      39.406 -22.769 -35.697  0.00  0.00    +0.047 A 
ATOM     33  N   UNL A   1      39.808 -22.986 -36.972  0.00  0.00    -0.251 NA
ATOM     34  C   UNL A   1      40.580 -22.076 -37.574  0.00  0.00    +0.074 A 
ATOM     35  C   UNL A   1      41.009 -22.345 -38.866  0.00  0.00    -0.017 A 
ATOM     36  C   UNL A   1      41.843 -21.465 -39.549  0.00  0.00    +0.043 A 
ATOM     37 CL   UNL A   1      42.356 -21.838 -41.149  0.00  0.00    -0.083 Cl
ATOM     38  C   UNL A   1      42.275 -20.297 -38.943  0.00  0.00    -0.043 A 
ATOM     39  C   UNL A   1      41.848 -20.009 -37.648  0.00  0.00    -0.049 A 
ATOM     40  C   UNL A   1      40.977 -20.878 -36.947  0.00  0.00    +0.022 A 
ATOM     41  C   UNL A   1      38.545 -23.861 -35.116  0.00  0.00    -0.010 C 
ATOM     42  C   UNL A   1      38.491 -23.840 -33.594  0.00  0.00    -0.047 C 
ATOM     43  C   UNL A   1      38.171 -22.434 -33.115  0.00  0.00    -0.049 C 
ATOM     44  C   UNL A   1      39.268 -21.459 -33.544  0.00  0.00    -0.024 C 
ENDBRANCH  28  30
ENDBRANCH  27  28
ENDBRANCH  26  27
ENDBRANCH  25  26
ENDBRANCH  24  25
ENDBRANCH  23  24
ENDBRANCH   1  23
TORSDOF 12
ENDMDL
MODEL 9
REMARK VINA RESULT:    -7.110      2.313      4.640
REMARK INTER + INTRA:         -16.091
REMARK INTER:                 -11.926
REMARK INTRA:                  -4.166
REMARK UNBOUND:                -3.993
REMARK  Name = cpd175.pdb
REMARK  14 active torsions:
REMARK  status: ('A' for Active; 'I' for Inactive)
REMARK    1  A    between atoms: C_1  and  C_2
REMARK    2  A    between atoms: C_6  and  N_7
REMARK    3  A    between atoms: N_7  and  C_8
REMARK    4  A    between atoms: C_13  and  C_14
REMARK    5  A    between atoms: N_16  and  C_17
REMARK    6  A    between atoms: C_17  and  C_18
REMARK    7  A    between atoms: C_18  and  C_19
REMARK    8  A    between atoms: C_19  and  C_20
REMARK    9  A    between atoms: C_20  and  C_21
REMARK   10  A    between atoms: C_21  and  C_22
REMARK   11  A    between atoms: C_22  and  C_23
REMARK   12  A    between atoms: C_23  and  N_24
REMARK   13  A    between atoms: N_24  and  C_25
REMARK   14  A    between atoms: C_40  and  C_41
REMARK                            x       y       z     vdW  Elec       q    Type
REMARK                         _______ _______ _______ _____ _____    ______ ____
ROOT
ATOM      1  C   UNL A   1      30.786 -36.112 -32.832  0.00  0.00    -0.037 C 
ENDROOT
BRANCH   1   2
ATOM      2  C   UNL A   1      31.957 -37.051 -32.549  0.00  0.00    +0.012 C 
BRANCH   2   5
ATOM      3  C   UNL A   1      33.177 -37.896 -30.578  0.00  0.00    +0.246 C 
ATOM      4  O   UNL A   1      33.468 -38.956 -31.125  0.00  0.00    -0.270 OA
ATOM      5  N   UNL A   1      32.425 -36.911 -31.185  0.00  0.00    -0.311 N 
ATOM      6  H   UNL A   1      32.201 -36.096 -30.681  0.00  0.00    +0.000 HD
BRANCH   3  12
ATOM      7  C   UNL A   1      34.985 -37.663 -28.842  0.00  0.00    +0.044 A 
ATOM      8  C   UNL A   1      35.344 -37.399 -27.511  0.00  0.00    -0.040 A 
ATOM      9  C   UNL A   1      34.382 -37.103 -26.542  0.00  0.00    -0.060 A 
ATOM     10  C   UNL A   1      33.035 -37.059 -26.886  0.00  0.00    -0.061 A 
ATOM     11  C   UNL A   1      32.647 -37.316 -28.200  0.00  0.00    -0.048 A 
ATOM     12  C   UNL A   1      33.611 -37.631 -29.174  0.00  0.00    +0.058 A 
BRANCH   7  13
ATOM     13  N   UNL A   1      35.961 -37.979 -29.812  0.00  0.00    -0.314 N 
ATOM     14  H   UNL A   1      35.837 -38.867 -30.219  0.00  0.00    +0.000 HD
BRANCH  13  20
ATOM     15  C   UNL A   1      40.896 -37.140 -29.861  0.00  0.00    -0.039 C 
ATOM     16  C   UNL A   1      39.496 -36.876 -30.346  0.00  0.00    -0.046 A 
ATOM     17  C   UNL A   1      39.307 -35.902 -31.337  0.00  0.00    -0.058 A 
ATOM     18  C   UNL A   1      38.034 -35.616 -31.816  0.00  0.00    -0.060 A 
ATOM     19  C   UNL A   1      36.932 -36.298 -31.306  0.00  0.00    -0.040 A 
ATOM     20  C   UNL A   1      37.077 -37.279 -30.315  0.00  0.00    +0.035 A 
ATOM     21  C   UNL A   1      38.379 -37.594 -29.851  0.00  0.00    -0.026 A 
ATOM     22  C   UNL A   1      38.561 -38.664 -28.798  0.00  0.00    -0.038 C 
ENDBRANCH  13  20
ENDBRANCH   7  13
ENDBRANCH   3  12
ENDBRANCH   2   5
ENDBRANCH   1   2
BRANCH   1  23
ATOM     23  C   UNL A   1      30.887 -34.826 -32.009  0.00  0.00    -0.052 C 
BRANCH  23  24
ATOM     24  C   UNL A   1      29.515 -34.395 -31.489  0.00  0.00    -0.053 C 
BRANCH  24  25
ATOM     25  C   UNL A   1      28.943 -35.292 -30.387  0.00  0.00    -0.052 C 
BRANCH  25  26
ATOM     26  C   UNL A   1      28.947 -34.681 -28.982  0.00  0.00    -0.037 C 
BRANCH  26  27
ATOM     27  C   UNL A   1      30.316 -34.742 -28.301  0.00  0.00    +0.009 C 
BRANCH  27  28
ATOM     28  N   UNL A   1      30.763 -33.412 -27.855  0.00  0.00    -0.343 N 
ATOM     29  H   UNL A   1      30.727 -33.130 -26.913  0.00  0.00    +0.000 HD
BRANCH  28  30
ATOM     30  C   UNL A   1      31.250 -32.564 -28.887  0.00  0.00    +0.041 A 
ATOM     31  C   UNL A   1      32.503 -32.810 -29.485  0.00  0.00    -0.005 A 
ATOM     32  C   UNL A   1      32.888 -31.986 -30.549  0.00  0.00    +0.047 A 
ATOM     33  N   UNL A   1      32.106 -30.998 -31.045  0.00  0.00    -0.251 NA
ATOM     34  C   UNL A   1      30.928 -30.748 -30.466  0.00  0.00    +0.074 A 
ATOM     35  C   UNL A   1      30.168 -29.704 -30.972  0.00  0.00    -0.017 A 
ATOM     36  C   UNL A   1      28.945 -29.357 -30.403  0.00  0.00    +0.043 A 
ATOM     37 CL   UNL A   1      28.034 -28.052 -31.058  0.00  0.00    -0.083 Cl
ATOM     38  C   UNL A   1      28.464 -30.048 -29.303  0.00  0.00    -0.043 A 
ATOM     39  C   UNL A   1      29.213 -31.104 -28.787  0.00  0.00    -0.049 A 
ATOM     40  C   UNL A   1      30.446 -31.490 -29.369  0.00  0.00    +0.022 A 
ATOM     41  C   UNL A   1      34.195 -32.176 -31.275  0.00  0.00    -0.010 C 
ATOM     42  C   UNL A   1      35.232 -32.936 -30.458  0.00  0.00    -0.047 C 
ATOM     43  C   UNL A   1      34.610 -34.202 -29.894  0.00  0.00    -0.049 C 
ATOM     44  C   UNL A   1      33.454 -33.858 -28.954  0.00  0.00    -0.024 C 
ENDBRANCH  28  30
ENDBRANCH  27  28
ENDBRANCH  26  27
ENDBRANCH  25  26
ENDBRANCH  24  25
ENDBRANCH  23  24
ENDBRANCH   1  23
TORSDOF 12
ENDMDL
MODEL 10
REMARK VINA RESULT:    -7.091      3.262      7.226
REMARK INTER + INTRA:         -16.059
REMARK INTER:                 -12.821
REMARK INTRA:                  -3.238
REMARK UNBOUND:                -3.993
REMARK  Name = cpd175.pdb
REMARK  14 active torsions:
REMARK  status: ('A' for Active; 'I' for Inactive)
REMARK    1  A    between atoms: C_1  and  C_2
REMARK    2  A    between atoms: C_6  and  N_7
REMARK    3  A    between atoms: N_7  and  C_8
REMARK    4  A    between atoms: C_13  and  C_14
REMARK    5  A    between atoms: N_16  and  C_17
REMARK    6  A    between atoms: C_17  and  C_18
REMARK    7  A    between atoms: C_18  and  C_19
REMARK    8  A    between atoms: C_19  and  C_20
REMARK    9  A    between atoms: C_20  and  C_21
REMARK   10  A    between atoms: C_21  and  C_22
REMARK   11  A    between atoms: C_22  and  C_23
REMARK   12  A    between atoms: C_23  and  N_24
REMARK   13  A    between atoms: N_24  and  C_25
REMARK   14  A    between atoms: C_40  and  C_41
REMARK                            x       y       z     vdW  Elec       q    Type
REMARK                         _______ _______ _______ _____ _____    ______ ____
ROOT
ATOM      1  C   UNL A   1      32.312 -38.684 -31.792  0.00  0.00    -0.037 C 
ENDROOT
BRANCH   1   2
ATOM      2  C   UNL A   1      31.512 -37.447 -32.199  0.00  0.00    +0.012 C 
BRANCH   2   5
ATOM      3  C   UNL A   1      32.912 -35.455 -32.605  0.00  0.00    +0.246 C 
ATOM      4  O   UNL A   1      33.115 -35.749 -33.779  0.00  0.00    -0.270 OA
ATOM      5  N   UNL A   1      32.159 -36.232 -31.746  0.00  0.00    -0.311 N 
ATOM      6  H   UNL A   1      32.058 -35.954 -30.808  0.00  0.00    +0.000 HD
BRANCH   3  12
ATOM      7  C   UNL A   1      34.900 -34.181 -31.733  0.00  0.00    +0.044 A 
ATOM      8  C   UNL A   1      35.425 -32.996 -31.195  0.00  0.00    -0.040 A 
ATOM      9  C   UNL A   1      34.616 -31.881 -30.964  0.00  0.00    -0.060 A 
ATOM     10  C   UNL A   1      33.260 -31.926 -31.271  0.00  0.00    -0.061 A 
ATOM     11  C   UNL A   1      32.710 -33.090 -31.805  0.00  0.00    -0.048 A 
ATOM     12  C   UNL A   1      33.517 -34.220 -32.024  0.00  0.00    +0.058 A 
BRANCH   7  13
ATOM     13  N   UNL A   1      35.720 -35.311 -31.947  0.00  0.00    -0.314 N 
ATOM     14  H   UNL A   1      35.546 -35.767 -32.803  0.00  0.00    +0.000 HD
BRANCH  13  20
ATOM     15  C   UNL A   1      37.197 -37.701 -27.803  0.00  0.00    -0.039 C 
ATOM     16  C   UNL A   1      37.459 -37.097 -29.157  0.00  0.00    -0.046 A 
ATOM     17  C   UNL A   1      38.764 -37.151 -29.669  0.00  0.00    -0.058 A 
ATOM     18  C   UNL A   1      39.060 -36.604 -30.912  0.00  0.00    -0.060 A 
ATOM     19  C   UNL A   1      38.056 -35.992 -31.657  0.00  0.00    -0.040 A 
ATOM     20  C   UNL A   1      36.739 -35.917 -31.183  0.00  0.00    +0.035 A 
ATOM     21  C   UNL A   1      36.430 -36.505 -29.930  0.00  0.00    -0.026 A 
ATOM     22  C   UNL A   1      35.012 -36.455 -29.409  0.00  0.00    -0.038 C 
ENDBRANCH  13  20
ENDBRANCH   7  13
ENDBRANCH   3  12
ENDBRANCH   2   5
ENDBRANCH   1   2
BRANCH   1  23
ATOM     23  C   UNL A   1      33.229 -39.154 -32.922  0.00  0.00    -0.052 C 
BRANCH  23  24
ATOM     24  C   UNL A   1      34.162 -40.269 -32.447  0.00  0.00    -0.053 C 
BRANCH  24  25
ATOM     25  C   UNL A   1      35.336 -39.791 -31.588  0.00  0.00    -0.052 C 
BRANCH  25  26
ATOM     26  C   UNL A   1      35.826 -40.793 -30.537  0.00  0.00    -0.037 C 
BRANCH  26  27
ATOM     27  C   UNL A   1      35.599 -40.319 -29.100  0.00  0.00    +0.009 C 
BRANCH  27  28
ATOM     28  N   UNL A   1      34.167 -40.269 -28.762  0.00  0.00    -0.343 N 
ATOM     29  H   UNL A   1      33.483 -39.962 -29.400  0.00  0.00    +0.000 HD
BRANCH  28  30
ATOM     30  C   UNL A   1      33.844 -40.698 -27.446  0.00  0.00    +0.041 A 
ATOM     31  C   UNL A   1      33.664 -42.068 -27.163  0.00  0.00    -0.005 A 
ATOM     32  C   UNL A   1      33.426 -42.430 -25.832  0.00  0.00    +0.047 A 
ATOM     33  N   UNL A   1      33.396 -41.539 -24.813  0.00  0.00    -0.251 NA
ATOM     34  C   UNL A   1      33.543 -40.238 -25.082  0.00  0.00    +0.074 A 
ATOM     35  C   UNL A   1      33.468 -39.347 -24.021  0.00  0.00    -0.017 A 
ATOM     36  C   UNL A   1      33.576 -37.973 -24.221  0.00  0.00    +0.043 A 
ATOM     37 CL   UNL A   1      33.472 -36.901 -22.880  0.00  0.00    -0.083 Cl
ATOM     38  C   UNL A   1      33.754 -37.464 -25.498  0.00  0.00    -0.043 A 
ATOM     39  C   UNL A   1      33.838 -38.347 -26.572  0.00  0.00    -0.049 A 
ATOM     40  C   UNL A   1      33.758 -39.749 -26.386  0.00  0.00    +0.022 A 
ATOM     41  C   UNL A   1      33.244 -43.867 -25.415  0.00  0.00    -0.010 C 
ATOM     42  C   UNL A   1      32.823 -44.777 -26.561  0.00  0.00    -0.047 C 
ATOM     43  C   UNL A   1      33.741 -44.556 -27.752  0.00  0.00    -0.049 C 
ATOM     44  C   UNL A   1      33.631 -43.116 -28.252  0.00  0.00    -0.024 C 
ENDBRANCH  28  30
ENDBRANCH  27  28
ENDBRANCH  26  27
ENDBRANCH  25  26
ENDBRANCH  24  25
ENDBRANCH  23  24
ENDBRANCH   1  23
TORSDOF 12
ENDMDL
MODEL 11
REMARK VINA RESULT:    -7.083      1.861      2.510
REMARK INTER + INTRA:         -16.044
REMARK INTER:                 -11.275
REMARK INTRA:                  -4.769
REMARK UNBOUND:                -3.993
REMARK  Name = cpd175.pdb
REMARK  14 active torsions:
REMARK  status: ('A' for Active; 'I' for Inactive)
REMARK    1  A    between atoms: C_1  and  C_2
REMARK    2  A    between atoms: C_6  and  N_7
REMARK    3  A    between atoms: N_7  and  C_8
REMARK    4  A    between atoms: C_13  and  C_14
REMARK    5  A    between atoms: N_16  and  C_17
REMARK    6  A    between atoms: C_17  and  C_18
REMARK    7  A    between atoms: C_18  and  C_19
REMARK    8  A    between atoms: C_19  and  C_20
REMARK    9  A    between atoms: C_20  and  C_21
REMARK   10  A    between atoms: C_21  and  C_22
REMARK   11  A    between atoms: C_22  and  C_23
REMARK   12  A    between atoms: C_23  and  N_24
REMARK   13  A    between atoms: N_24  and  C_25
REMARK   14  A    between atoms: C_40  and  C_41
REMARK                            x       y       z     vdW  Elec       q    Type
REMARK                         _______ _______ _______ _____ _____    ______ ____
ROOT
ATOM      1  C   UNL A   1      32.945 -40.661 -28.106  0.00  0.00    -0.037 C 
ENDROOT
BRANCH   1   2
ATOM      2  C   UNL A   1      33.749 -40.663 -29.405  0.00  0.00    +0.012 C 
BRANCH   2   5
ATOM      3  C   UNL A   1      34.540 -38.944 -30.989  0.00  0.00    +0.246 C 
ATOM      4  O   UNL A   1      35.623 -39.497 -31.158  0.00  0.00    -0.270 OA
ATOM      5  N   UNL A   1      33.566 -39.426 -30.137  0.00  0.00    -0.311 N 
ATOM      6  H   UNL A   1      32.731 -38.919 -30.025  0.00  0.00    +0.000 HD
BRANCH   3  12
ATOM      7  C   UNL A   1      34.964 -36.496 -31.394  0.00  0.00    +0.044 A 
ATOM      8  C   UNL A   1      34.641 -35.321 -32.091  0.00  0.00    -0.040 A 
ATOM      9  C   UNL A   1      33.638 -35.303 -33.062  0.00  0.00    -0.060 A 
ATOM     10  C   UNL A   1      32.935 -36.466 -33.363  0.00  0.00    -0.061 A 
ATOM     11  C   UNL A   1      33.233 -37.648 -32.687  0.00  0.00    -0.048 A 
ATOM     12  C   UNL A   1      34.231 -37.667 -31.697  0.00  0.00    +0.058 A 
BRANCH   7  13
ATOM     13  N   UNL A   1      35.967 -36.503 -30.400  0.00  0.00    -0.314 N 
ATOM     14  H   UNL A   1      35.615 -36.415 -29.485  0.00  0.00    +0.000 HD
BRANCH  13  20
ATOM     15  C   UNL A   1      40.269 -38.201 -28.481  0.00  0.00    -0.039 C 
ATOM     16  C   UNL A   1      39.478 -37.453 -29.521  0.00  0.00    -0.046 A 
ATOM     17  C   UNL A   1      40.172 -36.851 -30.581  0.00  0.00    -0.058 A 
ATOM     18  C   UNL A   1      39.490 -36.144 -31.564  0.00  0.00    -0.060 A 
ATOM     19  C   UNL A   1      38.105 -36.026 -31.498  0.00  0.00    -0.040 A 
ATOM     20  C   UNL A   1      37.372 -36.611 -30.456  0.00  0.00    +0.035 A 
ATOM     21  C   UNL A   1      38.065 -37.361 -29.471  0.00  0.00    -0.026 A 
ATOM     22  C   UNL A   1      37.293 -38.020 -28.351  0.00  0.00    -0.038 C 
ENDBRANCH  13  20
ENDBRANCH   7  13
ENDBRANCH   3  12
ENDBRANCH   2   5
ENDBRANCH   1   2
BRANCH   1  23
ATOM     23  C   UNL A   1      32.763 -39.243 -27.561  0.00  0.00    -0.052 C 
BRANCH  23  24
ATOM     24  C   UNL A   1      33.897 -38.870 -26.606  0.00  0.00    -0.053 C 
BRANCH  24  25
ATOM     25  C   UNL A   1      33.770 -37.476 -25.984  0.00  0.00    -0.052 C 
BRANCH  25  26
ATOM     26  C   UNL A   1      32.440 -36.762 -26.250  0.00  0.00    -0.037 C 
BRANCH  26  27
ATOM     27  C   UNL A   1      32.596 -35.495 -27.094  0.00  0.00    +0.009 C 
BRANCH  27  28
ATOM     28  N   UNL A   1      32.920 -35.809 -28.495  0.00  0.00    -0.343 N 
ATOM     29  H   UNL A   1      33.689 -36.369 -28.747  0.00  0.00    +0.000 HD
BRANCH  28  30
ATOM     30  C   UNL A   1      32.039 -35.245 -29.458  0.00  0.00    +0.041 A 
ATOM     31  C   UNL A   1      32.200 -33.907 -29.878  0.00  0.00    -0.005 A 
ATOM     32  C   UNL A   1      31.350 -33.437 -30.885  0.00  0.00    +0.047 A 
ATOM     33  N   UNL A   1      30.416 -34.209 -31.491  0.00  0.00    -0.251 NA
ATOM     34  C   UNL A   1      30.247 -35.469 -31.078  0.00  0.00    +0.074 A 
ATOM     35  C   UNL A   1      29.254 -36.220 -31.691  0.00  0.00    -0.017 A 
ATOM     36  C   UNL A   1      28.991 -37.529 -31.296  0.00  0.00    +0.043 A 
ATOM     37 CL   UNL A   1      27.748 -38.427 -32.078  0.00  0.00    -0.083 Cl
ATOM     38  C   UNL A   1      29.715 -38.109 -30.266  0.00  0.00    -0.043 A 
ATOM     39  C   UNL A   1      30.719 -37.368 -29.646  0.00  0.00    -0.049 A 
ATOM     40  C   UNL A   1      31.020 -36.045 -30.052  0.00  0.00    +0.022 A 
ATOM     41  C   UNL A   1      31.452 -32.034 -31.425  0.00  0.00    -0.010 C 
ATOM     42  C   UNL A   1      32.141 -31.070 -30.470  0.00  0.00    -0.047 C 
ATOM     43  C   UNL A   1      33.447 -31.677 -29.987  0.00  0.00    -0.049 C 
ATOM     44  C   UNL A   1      33.183 -32.970 -29.215  0.00  0.00    -0.024 C 
ENDBRANCH  28  30
ENDBRANCH  27  28
ENDBRANCH  26  27
ENDBRANCH  25  26
ENDBRANCH  24  25
ENDBRANCH  23  24
ENDBRANCH   1  23
TORSDOF 12
ENDMDL
MODEL 12
REMARK VINA RESULT:    -7.025     17.213     20.968
REMARK INTER + INTRA:         -15.946
REMARK INTER:                 -11.986
REMARK INTRA:                  -3.961
REMARK UNBOUND:                -3.993
REMARK  Name = cpd175.pdb
REMARK  14 active torsions:
REMARK  status: ('A' for Active; 'I' for Inactive)
REMARK    1  A    between atoms: C_1  and  C_2
REMARK    2  A    between atoms: C_6  and  N_7
REMARK    3  A    between atoms: N_7  and  C_8
REMARK    4  A    between atoms: C_13  and  C_14
REMARK    5  A    between atoms: N_16  and  C_17
REMARK    6  A    between atoms: C_17  and  C_18
REMARK    7  A    between atoms: C_18  and  C_19
REMARK    8  A    between atoms: C_19  and  C_20
REMARK    9  A    between atoms: C_20  and  C_21
REMARK   10  A    between atoms: C_21  and  C_22
REMARK   11  A    between atoms: C_22  and  C_23
REMARK   12  A    between atoms: C_23  and  N_24
REMARK   13  A    between atoms: N_24  and  C_25
REMARK   14  A    between atoms: C_40  and  C_41
REMARK                            x       y       z     vdW  Elec       q    Type
REMARK                         _______ _______ _______ _____ _____    ______ ____
ROOT
ATOM      1  C   UNL A   1      43.750 -19.387 -35.809  0.00  0.00    -0.037 C 
ENDROOT
BRANCH   1   2
ATOM      2  C   UNL A   1      43.599 -19.935 -34.391  0.00  0.00    +0.012 C 
BRANCH   2   5
ATOM      3  C   UNL A   1      41.387 -20.771 -33.682  0.00  0.00    +0.246 C 
ATOM      4  O   UNL A   1      41.109 -19.735 -33.085  0.00  0.00    -0.270 OA
ATOM      5  N   UNL A   1      42.588 -20.971 -34.334  0.00  0.00    -0.311 N 
ATOM      6  H   UNL A   1      42.761 -21.837 -34.768  0.00  0.00    +0.000 HD
BRANCH   3  12
ATOM      7  C   UNL A   1      39.353 -21.913 -34.627  0.00  0.00    +0.044 A 
ATOM      8  C   UNL A   1      38.476 -23.008 -34.612  0.00  0.00    -0.040 A 
ATOM      9  C   UNL A   1      38.654 -24.072 -33.723  0.00  0.00    -0.060 A 
ATOM     10  C   UNL A   1      39.719 -24.063 -32.829  0.00  0.00    -0.061 A 
ATOM     11  C   UNL A   1      40.607 -22.989 -32.819  0.00  0.00    -0.048 A 
ATOM     12  C   UNL A   1      40.422 -21.909 -33.701  0.00  0.00    +0.058 A 
BRANCH   7  13
ATOM     13  N   UNL A   1      39.158 -20.833 -35.516  0.00  0.00    -0.314 N 
ATOM     14  H   UNL A   1      38.731 -20.051 -35.097  0.00  0.00    +0.000 HD
BRANCH  13  20
ATOM     15  C   UNL A   1      38.789 -18.123 -39.709  0.00  0.00    -0.039 C 
ATOM     16  C   UNL A   1      39.279 -19.317 -38.935  0.00  0.00    -0.046 A 
ATOM     17  C   UNL A   1      40.058 -20.272 -39.604  0.00  0.00    -0.058 A 
ATOM     18  C   UNL A   1      40.530 -21.396 -38.936  0.00  0.00    -0.060 A 
ATOM     19  C   UNL A   1      40.226 -21.581 -37.590  0.00  0.00    -0.040 A 
ATOM     20  C   UNL A   1      39.451 -20.651 -36.883  0.00  0.00    +0.035 A 
ATOM     21  C   UNL A   1      38.997 -19.488 -37.557  0.00  0.00    -0.026 A 
ATOM     22  C   UNL A   1      38.178 -18.461 -36.808  0.00  0.00    -0.038 C 
ENDBRANCH  13  20
ENDBRANCH   7  13
ENDBRANCH   3  12
ENDBRANCH   2   5
ENDBRANCH   1   2
BRANCH   1  23
ATOM     23  C   UNL A   1      42.430 -18.816 -36.332  0.00  0.00    -0.052 C 
BRANCH  23  24
ATOM     24  C   UNL A   1      42.477 -17.289 -36.397  0.00  0.00    -0.053 C 
BRANCH  24  25
ATOM     25  C   UNL A   1      42.117 -16.700 -37.765  0.00  0.00    -0.052 C 
BRANCH  25  26
ATOM     26  C   UNL A   1      42.587 -17.519 -38.971  0.00  0.00    -0.037 C 
BRANCH  26  27
ATOM     27  C   UNL A   1      43.060 -16.652 -40.141  0.00  0.00    +0.009 C 
BRANCH  27  28
ATOM     28  N   UNL A   1      44.527 -16.668 -40.272  0.00  0.00    -0.343 N 
ATOM     29  H   UNL A   1      45.037 -15.895 -40.606  0.00  0.00    +0.000 HD
BRANCH  28  30
ATOM     30  C   UNL A   1      45.152 -17.884 -39.882  0.00  0.00    +0.041 A 
ATOM     31  C   UNL A   1      45.103 -19.016 -40.722  0.00  0.00    -0.005 A 
ATOM     32  C   UNL A   1      45.806 -20.156 -40.316  0.00  0.00    +0.047 A 
ATOM     33  N   UNL A   1      46.548 -20.209 -39.185  0.00  0.00    -0.251 NA
ATOM     34  C   UNL A   1      46.577 -19.146 -38.376  0.00  0.00    +0.074 A 
ATOM     35  C   UNL A   1      47.314 -19.245 -37.205  0.00  0.00    -0.017 A 
ATOM     36  C   UNL A   1      47.367 -18.195 -36.292  0.00  0.00    +0.043 A 
ATOM     37 CL   UNL A   1      48.289 -18.360 -34.848  0.00  0.00    -0.083 Cl
ATOM     38  C   UNL A   1      46.670 -17.022 -36.533  0.00  0.00    -0.043 A 
ATOM     39  C   UNL A   1      45.930 -16.905 -37.708  0.00  0.00    -0.049 A 
ATOM     40  C   UNL A   1      45.886 -17.952 -38.662  0.00  0.00    +0.022 A 
ATOM     41  C   UNL A   1      45.841 -21.412 -41.150  0.00  0.00    -0.010 C 
ATOM     42  C   UNL A   1      44.682 -21.515 -42.132  0.00  0.00    -0.047 C 
ATOM     43  C   UNL A   1      44.560 -20.218 -42.914  0.00  0.00    -0.049 C 
ATOM     44  C   UNL A   1      44.255 -19.052 -41.973  0.00  0.00    -0.024 C 
ENDBRANCH  28  30
ENDBRANCH  27  28
ENDBRANCH  26  27
ENDBRANCH  25  26
ENDBRANCH  24  25
ENDBRANCH  23  24
ENDBRANCH   1  23
TORSDOF 12
ENDMDL
MODEL 13
REMARK VINA RESULT:    -6.951     18.742     22.241
REMARK INTER + INTRA:         -15.821
REMARK INTER:                 -11.379
REMARK INTRA:                  -4.442
REMARK UNBOUND:                -3.993
REMARK  Name = cpd175.pdb
REMARK  14 active torsions:
REMARK  status: ('A' for Active; 'I' for Inactive)
REMARK    1  A    between atoms: C_1  and  C_2
REMARK    2  A    between atoms: C_6  and  N_7
REMARK    3  A    between atoms: N_7  and  C_8
REMARK    4  A    between atoms: C_13  and  C_14
REMARK    5  A    between atoms: N_16  and  C_17
REMARK    6  A    between atoms: C_17  and  C_18
REMARK    7  A    between atoms: C_18  and  C_19
REMARK    8  A    between atoms: C_19  and  C_20
REMARK    9  A    between atoms: C_20  and  C_21
REMARK   10  A    between atoms: C_21  and  C_22
REMARK   11  A    between atoms: C_22  and  C_23
REMARK   12  A    between atoms: C_23  and  N_24
REMARK   13  A    between atoms: N_24  and  C_25
REMARK   14  A    between atoms: C_40  and  C_41
REMARK                            x       y       z     vdW  Elec       q    Type
REMARK                         _______ _______ _______ _____ _____    ______ ____
ROOT
ATOM      1  C   UNL A   1      41.256 -21.397 -34.236  0.00  0.00    -0.037 C 
ENDROOT
BRANCH   1   2
ATOM      2  C   UNL A   1      41.906 -20.026 -34.067  0.00  0.00    +0.012 C 
BRANCH   2   5
ATOM      3  C   UNL A   1      43.458 -19.100 -35.749  0.00  0.00    +0.246 C 
ATOM      4  O   UNL A   1      42.613 -18.340 -36.213  0.00  0.00    -0.270 OA
ATOM      5  N   UNL A   1      43.202 -19.977 -34.713  0.00  0.00    -0.311 N 
ATOM      6  H   UNL A   1      43.916 -20.581 -34.407  0.00  0.00    +0.000 HD
BRANCH   3  12
ATOM      7  C   UNL A   1      45.683 -18.012 -36.195  0.00  0.00    +0.044 A 
ATOM      8  C   UNL A   1      46.971 -18.095 -36.746  0.00  0.00    -0.040 A 
ATOM      9  C   UNL A   1      47.413 -19.251 -37.394  0.00  0.00    -0.060 A 
ATOM     10  C   UNL A   1      46.574 -20.355 -37.500  0.00  0.00    -0.061 A 
ATOM     11  C   UNL A   1      45.289 -20.303 -36.963  0.00  0.00    -0.048 A 
ATOM     12  C   UNL A   1      44.835 -19.135 -36.325  0.00  0.00    +0.058 A 
BRANCH   7  13
ATOM     13  N   UNL A   1      45.237 -16.833 -35.557  0.00  0.00    -0.314 N 
ATOM     14  H   UNL A   1      45.027 -16.103 -36.183  0.00  0.00    +0.000 HD
BRANCH  13  20
ATOM     15  C   UNL A   1      43.095 -13.924 -32.091  0.00  0.00    -0.039 C 
ATOM     16  C   UNL A   1      43.972 -15.075 -32.506  0.00  0.00    -0.046 A 
ATOM     17  C   UNL A   1      44.597 -15.831 -31.504  0.00  0.00    -0.058 A 
ATOM     18  C   UNL A   1      45.422 -16.901 -31.834  0.00  0.00    -0.060 A 
ATOM     19  C   UNL A   1      45.636 -17.224 -33.172  0.00  0.00    -0.040 A 
ATOM     20  C   UNL A   1      45.031 -16.493 -34.204  0.00  0.00    +0.035 A 
ATOM     21  C   UNL A   1      44.163 -15.424 -33.866  0.00  0.00    -0.026 A 
ATOM     22  C   UNL A   1      43.482 -14.637 -34.962  0.00  0.00    -0.038 C 
ENDBRANCH  13  20
ENDBRANCH   7  13
ENDBRANCH   3  12
ENDBRANCH   2   5
ENDBRANCH   1   2
BRANCH   1  23
ATOM     23  C   UNL A   1      40.195 -21.383 -35.338  0.00  0.00    -0.052 C 
BRANCH  23  24
ATOM     24  C   UNL A   1      40.774 -21.869 -36.667  0.00  0.00    -0.053 C 
BRANCH  24  25
ATOM     25  C   UNL A   1      40.575 -20.902 -37.838  0.00  0.00    -0.052 C 
BRANCH  25  26
ATOM     26  C   UNL A   1      41.368 -21.240 -39.105  0.00  0.00    -0.037 C 
BRANCH  26  27
ATOM     27  C   UNL A   1      42.773 -20.631 -39.116  0.00  0.00    +0.009 C 
BRANCH  27  28
ATOM     28  N   UNL A   1      43.136 -20.124 -40.450  0.00  0.00    -0.343 N 
ATOM     29  H   UNL A   1      42.500 -20.110 -41.201  0.00  0.00    +0.000 HD
BRANCH  28  30
ATOM     30  C   UNL A   1      44.473 -19.658 -40.572  0.00  0.00    +0.041 A 
ATOM     31  C   UNL A   1      45.465 -20.472 -41.158  0.00  0.00    -0.005 A 
ATOM     32  C   UNL A   1      46.742 -19.924 -41.320  0.00  0.00    +0.047 A 
ATOM     33  N   UNL A   1      47.055 -18.652 -40.976  0.00  0.00    -0.251 NA
ATOM     34  C   UNL A   1      46.124 -17.887 -40.400  0.00  0.00    +0.074 A 
ATOM     35  C   UNL A   1      46.487 -16.602 -40.022  0.00  0.00    -0.017 A 
ATOM     36  C   UNL A   1      45.585 -15.753 -39.384  0.00  0.00    +0.043 A 
ATOM     37 CL   UNL A   1      46.077 -14.169 -38.928  0.00  0.00    -0.083 Cl
ATOM     38  C   UNL A   1      44.299 -16.183 -39.103  0.00  0.00    -0.043 A 
ATOM     39  C   UNL A   1      43.917 -17.469 -39.482  0.00  0.00    -0.049 A 
ATOM     40  C   UNL A   1      44.811 -18.337 -40.156  0.00  0.00    +0.022 A 
ATOM     41  C   UNL A   1      47.869 -20.697 -41.957  0.00  0.00    -0.010 C 
ATOM     42  C   UNL A   1      47.664 -22.206 -41.911  0.00  0.00    -0.047 C 
ATOM     43  C   UNL A   1      46.273 -22.547 -42.417  0.00  0.00    -0.049 C 
ATOM     44  C   UNL A   1      45.207 -21.917 -41.520  0.00  0.00    -0.024 C 
ENDBRANCH  28  30
ENDBRANCH  27  28
ENDBRANCH  26  27
ENDBRANCH  25  26
ENDBRANCH  24  25
ENDBRANCH  23  24
ENDBRANCH   1  23
TORSDOF 12
ENDMDL
MODEL 14
REMARK VINA RESULT:    -6.907     17.144     20.744
REMARK INTER + INTRA:         -15.745
REMARK INTER:                 -11.019
REMARK INTRA:                  -4.726
REMARK UNBOUND:                -3.993
REMARK  Name = cpd175.pdb
REMARK  14 active torsions:
REMARK  status: ('A' for Active; 'I' for Inactive)
REMARK    1  A    between atoms: C_1  and  C_2
REMARK    2  A    between atoms: C_6  and  N_7
REMARK    3  A    between atoms: N_7  and  C_8
REMARK    4  A    between atoms: C_13  and  C_14
REMARK    5  A    between atoms: N_16  and  C_17
REMARK    6  A    between atoms: C_17  and  C_18
REMARK    7  A    between atoms: C_18  and  C_19
REMARK    8  A    between atoms: C_19  and  C_20
REMARK    9  A    between atoms: C_20  and  C_21
REMARK   10  A    between atoms: C_21  and  C_22
REMARK   11  A    between atoms: C_22  and  C_23
REMARK   12  A    between atoms: C_23  and  N_24
REMARK   13  A    between atoms: N_24  and  C_25
REMARK   14  A    between atoms: C_40  and  C_41
REMARK                            x       y       z     vdW  Elec       q    Type
REMARK                         _______ _______ _______ _____ _____    ______ ____
ROOT
ATOM      1  C   UNL A   1      40.484 -16.921 -34.743  0.00  0.00    -0.037 C 
ENDROOT
BRANCH   1   2
ATOM      2  C   UNL A   1      39.131 -17.233 -34.107  0.00  0.00    +0.012 C 
BRANCH   2   5
ATOM      3  C   UNL A   1      38.241 -19.422 -34.822  0.00  0.00    +0.246 C 
ATOM      4  O   UNL A   1      37.685 -18.952 -35.810  0.00  0.00    -0.270 OA
ATOM      5  N   UNL A   1      38.955 -18.659 -33.919  0.00  0.00    -0.311 N 
ATOM      6  H   UNL A   1      39.353 -19.093 -33.130  0.00  0.00    +0.000 HD
BRANCH   3  12
ATOM      7  C   UNL A   1      38.764 -21.820 -35.378  0.00  0.00    +0.044 A 
ATOM      8  C   UNL A   1      38.647 -23.181 -35.054  0.00  0.00    -0.040 A 
ATOM      9  C   UNL A   1      37.949 -23.602 -33.919  0.00  0.00    -0.060 A 
ATOM     10  C   UNL A   1      37.354 -22.666 -33.079  0.00  0.00    -0.061 A 
ATOM     11  C   UNL A   1      37.452 -21.308 -33.375  0.00  0.00    -0.048 A 
ATOM     12  C   UNL A   1      38.140 -20.881 -34.525  0.00  0.00    +0.058 A 
BRANCH   7  13
ATOM     13  N   UNL A   1      39.456 -21.403 -36.536  0.00  0.00    -0.314 N 
ATOM     14  H   UNL A   1      38.869 -21.253 -37.313  0.00  0.00    +0.000 HD
BRANCH  13  20
ATOM     15  C   UNL A   1      43.253 -21.097 -39.785  0.00  0.00    -0.039 C 
ATOM     16  C   UNL A   1      42.676 -20.998 -38.398  0.00  0.00    -0.046 A 
ATOM     17  C   UNL A   1      43.531 -20.644 -37.345  0.00  0.00    -0.058 A 
ATOM     18  C   UNL A   1      43.050 -20.543 -36.044  0.00  0.00    -0.060 A 
ATOM     19  C   UNL A   1      41.707 -20.801 -35.781  0.00  0.00    -0.040 A 
ATOM     20  C   UNL A   1      40.819 -21.159 -36.804  0.00  0.00    +0.035 A 
ATOM     21  C   UNL A   1      41.303 -21.228 -38.136  0.00  0.00    -0.026 A 
ATOM     22  C   UNL A   1      40.358 -21.589 -39.258  0.00  0.00    -0.038 C 
ENDBRANCH  13  20
ENDBRANCH   7  13
ENDBRANCH   3  12
ENDBRANCH   2   5
ENDBRANCH   1   2
BRANCH   1  23
ATOM     23  C   UNL A   1      40.372 -16.792 -36.264  0.00  0.00    -0.052 C 
BRANCH  23  24
ATOM     24  C   UNL A   1      41.704 -17.110 -36.944  0.00  0.00    -0.053 C 
BRANCH  24  25
ATOM     25  C   UNL A   1      41.588 -17.475 -38.427  0.00  0.00    -0.052 C 
BRANCH  25  26
ATOM     26  C   UNL A   1      42.492 -16.673 -39.368  0.00  0.00    -0.037 C 
BRANCH  26  27
ATOM     27  C   UNL A   1      43.505 -17.542 -40.118  0.00  0.00    +0.009 C 
BRANCH  27  28
ATOM     28  N   UNL A   1      44.890 -17.122 -39.846  0.00  0.00    -0.343 N 
ATOM     29  H   UNL A   1      45.245 -16.250 -40.135  0.00  0.00    +0.000 HD
BRANCH  28  30
ATOM     30  C   UNL A   1      45.677 -18.068 -39.135  0.00  0.00    +0.041 A 
ATOM     31  C   UNL A   1      45.848 -17.953 -37.739  0.00  0.00    -0.005 A 
ATOM     32  C   UNL A   1      46.568 -18.961 -37.089  0.00  0.00    +0.047 A 
ATOM     33  N   UNL A   1      47.071 -20.045 -37.725  0.00  0.00    -0.251 NA
ATOM     34  C   UNL A   1      46.930 -20.145 -39.050  0.00  0.00    +0.074 A 
ATOM     35  C   UNL A   1      47.491 -21.247 -39.678  0.00  0.00    -0.017 A 
ATOM     36  C   UNL A   1      47.418 -21.408 -41.059  0.00  0.00    +0.043 A 
ATOM     37 CL   UNL A   1      48.132 -22.788 -41.800  0.00  0.00    -0.083 Cl
ATOM     38  C   UNL A   1      46.786 -20.456 -41.842  0.00  0.00    -0.043 A 
ATOM     39  C   UNL A   1      46.212 -19.346 -41.225  0.00  0.00    -0.049 A 
ATOM     40  C   UNL A   1      46.252 -19.179 -39.819  0.00  0.00    +0.022 A 
ATOM     41  C   UNL A   1      46.790 -18.949 -35.598  0.00  0.00    -0.010 C 
ATOM     42  C   UNL A   1      46.647 -17.565 -34.979  0.00  0.00    -0.047 C 
ATOM     43  C   UNL A   1      45.350 -16.928 -35.449  0.00  0.00    -0.049 C 
ATOM     44  C   UNL A   1      45.363 -16.747 -36.967  0.00  0.00    -0.024 C 
ENDBRANCH  28  30
ENDBRANCH  27  28
ENDBRANCH  26  27
ENDBRANCH  25  26
ENDBRANCH  24  25
ENDBRANCH  23  24
ENDBRANCH   1  23
TORSDOF 12
ENDMDL
MODEL 15
REMARK VINA RESULT:    -6.885      3.051      8.042
REMARK INTER + INTRA:         -15.708
REMARK INTER:                 -11.609
REMARK INTRA:                  -4.099
REMARK UNBOUND:                -3.993
REMARK  Name = cpd175.pdb
REMARK  14 active torsions:
REMARK  status: ('A' for Active; 'I' for Inactive)
REMARK    1  A    between atoms: C_1  and  C_2
REMARK    2  A    between atoms: C_6  and  N_7
REMARK    3  A    between atoms: N_7  and  C_8
REMARK    4  A    between atoms: C_13  and  C_14
REMARK    5  A    between atoms: N_16  and  C_17
REMARK    6  A    between atoms: C_17  and  C_18
REMARK    7  A    between atoms: C_18  and  C_19
REMARK    8  A    between atoms: C_19  and  C_20
REMARK    9  A    between atoms: C_20  and  C_21
REMARK   10  A    between atoms: C_21  and  C_22
REMARK   11  A    between atoms: C_22  and  C_23
REMARK   12  A    between atoms: C_23  and  N_24
REMARK   13  A    between atoms: N_24  and  C_25
REMARK   14  A    between atoms: C_40  and  C_41
REMARK                            x       y       z     vdW  Elec       q    Type
REMARK                         _______ _______ _______ _____ _____    ______ ____
ROOT
ATOM      1  C   UNL A   1      31.259 -37.158 -33.175  0.00  0.00    -0.037 C 
ENDROOT
BRANCH   1   2
ATOM      2  C   UNL A   1      31.079 -37.908 -31.857  0.00  0.00    +0.012 C 
BRANCH   2   5
ATOM      3  C   UNL A   1      32.459 -39.651 -30.783  0.00  0.00    +0.246 C 
ATOM      4  O   UNL A   1      31.507 -40.410 -30.630  0.00  0.00    -0.270 OA
ATOM      5  N   UNL A   1      32.347 -38.398 -31.354  0.00  0.00    -0.311 N 
ATOM      6  H   UNL A   1      33.145 -37.826 -31.422  0.00  0.00    +0.000 HD
BRANCH   3  12
ATOM      7  C   UNL A   1      33.983 -40.633 -29.037  0.00  0.00    +0.044 A 
ATOM      8  C   UNL A   1      35.280 -40.996 -28.643  0.00  0.00    -0.040 A 
ATOM      9  C   UNL A   1      36.379 -40.800 -29.484  0.00  0.00    -0.060 A 
ATOM     10  C   UNL A   1      36.201 -40.238 -30.745  0.00  0.00    -0.061 A 
ATOM     11  C   UNL A   1      34.925 -39.867 -31.164  0.00  0.00    -0.048 A 
ATOM     12  C   UNL A   1      33.819 -40.047 -30.314  0.00  0.00    +0.058 A 
BRANCH   7  13
ATOM     13  N   UNL A   1      32.880 -40.817 -28.175  0.00  0.00    -0.314 N 
ATOM     14  H   UNL A   1      32.286 -40.033 -28.123  0.00  0.00    +0.000 HD
BRANCH  13  20
ATOM     15  C   UNL A   1      31.813 -42.723 -23.670  0.00  0.00    -0.039 C 
ATOM     16  C   UNL A   1      31.925 -42.828 -25.167  0.00  0.00    -0.046 A 
ATOM     17  C   UNL A   1      31.590 -44.046 -25.777  0.00  0.00    -0.058 A 
ATOM     18  C   UNL A   1      31.681 -44.197 -27.156  0.00  0.00    -0.060 A 
ATOM     19  C   UNL A   1      32.113 -43.132 -27.943  0.00  0.00    -0.040 A 
ATOM     20  C   UNL A   1      32.458 -41.898 -27.374  0.00  0.00    +0.035 A 
ATOM     21  C   UNL A   1      32.333 -41.734 -25.971  0.00  0.00    -0.026 A 
ATOM     22  C   UNL A   1      32.677 -40.405 -25.339  0.00  0.00    -0.038 C 
ENDBRANCH  13  20
ENDBRANCH   7  13
ENDBRANCH   3  12
ENDBRANCH   2   5
ENDBRANCH   1   2
BRANCH   1  23
ATOM     23  C   UNL A   1      30.733 -35.725 -33.081  0.00  0.00    -0.052 C 
BRANCH  23  24
ATOM     24  C   UNL A   1      31.566 -34.894 -32.105  0.00  0.00    -0.053 C 
BRANCH  24  25
ATOM     25  C   UNL A   1      32.996 -34.610 -32.573  0.00  0.00    -0.052 C 
BRANCH  25  26
ATOM     26  C   UNL A   1      33.703 -33.459 -31.849  0.00  0.00    -0.037 C 
BRANCH  26  27
ATOM     27  C   UNL A   1      35.117 -33.817 -31.385  0.00  0.00    +0.009 C 
BRANCH  27  28
ATOM     28  N   UNL A   1      35.473 -35.201 -31.738  0.00  0.00    -0.343 N 
ATOM     29  H   UNL A   1      35.175 -35.626 -32.575  0.00  0.00    +0.000 HD
BRANCH  28  30
ATOM     30  C   UNL A   1      36.277 -35.878 -30.782  0.00  0.00    +0.041 A 
ATOM     31  C   UNL A   1      35.702 -36.408 -29.608  0.00  0.00    -0.005 A 
ATOM     32  C   UNL A   1      36.534 -37.131 -28.747  0.00  0.00    +0.047 A 
ATOM     33  N   UNL A   1      37.842 -37.371 -29.003  0.00  0.00    -0.251 NA
ATOM     34  C   UNL A   1      38.395 -36.850 -30.103  0.00  0.00    +0.074 A 
ATOM     35  C   UNL A   1      39.746 -37.080 -30.316  0.00  0.00    -0.017 A 
ATOM     36  C   UNL A   1      40.406 -36.544 -31.419  0.00  0.00    +0.043 A 
ATOM     37 CL   UNL A   1      42.084 -36.849 -31.646  0.00  0.00    -0.083 Cl
ATOM     38  C   UNL A   1      39.721 -35.754 -32.328  0.00  0.00    -0.043 A 
ATOM     39  C   UNL A   1      38.361 -35.519 -32.130  0.00  0.00    -0.049 A 
ATOM     40  C   UNL A   1      37.666 -36.079 -31.030  0.00  0.00    +0.022 A 
ATOM     41  C   UNL A   1      36.017 -37.761 -27.479  0.00  0.00    -0.010 C 
ATOM     42  C   UNL A   1      34.729 -37.126 -26.973  0.00  0.00    -0.047 C 
ATOM     43  C   UNL A   1      33.725 -37.033 -28.109  0.00  0.00    -0.049 C 
ATOM     44  C   UNL A   1      34.263 -36.139 -29.227  0.00  0.00    -0.024 C 
ENDBRANCH  28  30
ENDBRANCH  27  28
ENDBRANCH  26  27
ENDBRANCH  25  26
ENDBRANCH  24  25
ENDBRANCH  23  24
ENDBRANCH   1  23
TORSDOF 12
ENDMDL
MODEL 16
REMARK VINA RESULT:    -6.822     18.077     21.111
REMARK INTER + INTRA:         -15.601
REMARK INTER:                 -11.702
REMARK INTRA:                  -3.899
REMARK UNBOUND:                -3.993
REMARK  Name = cpd175.pdb
REMARK  14 active torsions:
REMARK  status: ('A' for Active; 'I' for Inactive)
REMARK    1  A    between atoms: C_1  and  C_2
REMARK    2  A    between atoms: C_6  and  N_7
REMARK    3  A    between atoms: N_7  and  C_8
REMARK    4  A    between atoms: C_13  and  C_14
REMARK    5  A    between atoms: N_16  and  C_17
REMARK    6  A    between atoms: C_17  and  C_18
REMARK    7  A    between atoms: C_18  and  C_19
REMARK    8  A    between atoms: C_19  and  C_20
REMARK    9  A    between atoms: C_20  and  C_21
REMARK   10  A    between atoms: C_21  and  C_22
REMARK   11  A    between atoms: C_22  and  C_23
REMARK   12  A    between atoms: C_23  and  N_24
REMARK   13  A    between atoms: N_24  and  C_25
REMARK   14  A    between atoms: C_40  and  C_41
REMARK                            x       y       z     vdW  Elec       q    Type
REMARK                         _______ _______ _______ _____ _____    ______ ____
ROOT
ATOM      1  C   UNL A   1      41.555 -15.976 -36.953  0.00  0.00    -0.037 C 
ENDROOT
BRANCH   1   2
ATOM      2  C   UNL A   1      41.725 -15.460 -38.380  0.00  0.00    +0.012 C 
BRANCH   2   5
ATOM      3  C   UNL A   1      43.560 -15.836 -39.987  0.00  0.00    +0.246 C 
ATOM      4  O   UNL A   1      42.817 -16.335 -40.827  0.00  0.00    -0.270 OA
ATOM      5  N   UNL A   1      43.123 -15.396 -38.753  0.00  0.00    -0.311 N 
ATOM      6  H   UNL A   1      43.776 -15.032 -38.113  0.00  0.00    +0.000 HD
BRANCH   3  12
ATOM      7  C   UNL A   1      45.824 -16.866 -40.372  0.00  0.00    +0.044 A 
ATOM      8  C   UNL A   1      47.192 -16.695 -40.635  0.00  0.00    -0.040 A 
ATOM      9  C   UNL A   1      47.749 -15.424 -40.795  0.00  0.00    -0.060 A 
ATOM     10  C   UNL A   1      46.945 -14.292 -40.699  0.00  0.00    -0.061 A 
ATOM     11  C   UNL A   1      45.583 -14.430 -40.437  0.00  0.00    -0.048 A 
ATOM     12  C   UNL A   1      45.022 -15.707 -40.259  0.00  0.00    +0.058 A 
BRANCH   7  13
ATOM     13  N   UNL A   1      45.271 -18.153 -40.193  0.00  0.00    -0.314 N 
ATOM     14  H   UNL A   1      44.836 -18.277 -39.318  0.00  0.00    +0.000 HD
BRANCH  13  20
ATOM     15  C   UNL A   1      46.576 -22.896 -41.126  0.00  0.00    -0.039 C 
ATOM     16  C   UNL A   1      45.847 -21.624 -41.467  0.00  0.00    -0.046 A 
ATOM     17  C   UNL A   1      45.084 -21.588 -42.643  0.00  0.00    -0.058 A 
ATOM     18  C   UNL A   1      44.395 -20.437 -43.007  0.00  0.00    -0.060 A 
ATOM     19  C   UNL A   1      44.465 -19.304 -42.200  0.00  0.00    -0.040 A 
ATOM     20  C   UNL A   1      45.216 -19.297 -41.016  0.00  0.00    +0.035 A 
ATOM     21  C   UNL A   1      45.891 -20.483 -40.629  0.00  0.00    -0.026 A 
ATOM     22  C   UNL A   1      46.688 -20.505 -39.345  0.00  0.00    -0.038 C 
ENDBRANCH  13  20
ENDBRANCH   7  13
ENDBRANCH   3  12
ENDBRANCH   2   5
ENDBRANCH   1   2
BRANCH   1  23
ATOM     23  C   UNL A   1      42.252 -17.324 -36.758  0.00  0.00    -0.052 C 
BRANCH  23  24
ATOM     24  C   UNL A   1      43.268 -17.259 -35.618  0.00  0.00    -0.053 C 
BRANCH  24  25
ATOM     25  C   UNL A   1      44.615 -17.918 -35.930  0.00  0.00    -0.052 C 
BRANCH  25  26
ATOM     26  C   UNL A   1      44.816 -19.311 -35.325  0.00  0.00    -0.037 C 
BRANCH  26  27
ATOM     27  C   UNL A   1      43.649 -19.758 -34.441  0.00  0.00    +0.009 C 
BRANCH  27  28
ATOM     28  N   UNL A   1      43.105 -21.057 -34.871  0.00  0.00    -0.343 N 
ATOM     29  H   UNL A   1      43.575 -21.907 -34.708  0.00  0.00    +0.000 HD
BRANCH  28  30
ATOM     30  C   UNL A   1      41.853 -20.993 -35.540  0.00  0.00    +0.041 A 
ATOM     31  C   UNL A   1      41.789 -21.039 -36.948  0.00  0.00    -0.005 A 
ATOM     32  C   UNL A   1      40.522 -21.051 -37.541  0.00  0.00    +0.047 A 
ATOM     33  N   UNL A   1      39.369 -21.057 -36.831  0.00  0.00    -0.251 NA
ATOM     34  C   UNL A   1      39.426 -20.990 -35.498  0.00  0.00    +0.074 A 
ATOM     35  C   UNL A   1      38.227 -20.957 -34.801  0.00  0.00    -0.017 A 
ATOM     36  C   UNL A   1      38.199 -20.853 -33.413  0.00  0.00    +0.043 A 
ATOM     37 CL   UNL A   1      36.690 -20.810 -32.586  0.00  0.00    -0.083 Cl
ATOM     38  C   UNL A   1      39.380 -20.770 -32.693  0.00  0.00    -0.043 A 
ATOM     39  C   UNL A   1      40.593 -20.809 -33.379  0.00  0.00    -0.049 A 
ATOM     40  C   UNL A   1      40.642 -20.942 -34.789  0.00  0.00    +0.022 A 
ATOM     41  C   UNL A   1      40.340 -21.124 -39.036  0.00  0.00    -0.010 C 
ATOM     42  C   UNL A   1      41.564 -20.660 -39.814  0.00  0.00    -0.047 C 
ATOM     43  C   UNL A   1      42.803 -21.354 -39.275  0.00  0.00    -0.049 C 
ATOM     44  C   UNL A   1      43.031 -20.982 -37.810  0.00  0.00    -0.024 C 
ENDBRANCH  28  30
ENDBRANCH  27  28
ENDBRANCH  26  27
ENDBRANCH  25  26
ENDBRANCH  24  25
ENDBRANCH  23  24
ENDBRANCH   1  23
TORSDOF 12
ENDMDL
MODEL 17
REMARK VINA RESULT:    -6.751     18.397     21.504
REMARK INTER + INTRA:         -15.480
REMARK INTER:                 -11.059
REMARK INTRA:                  -4.421
REMARK UNBOUND:                -3.993
REMARK  Name = cpd175.pdb
REMARK  14 active torsions:
REMARK  status: ('A' for Active; 'I' for Inactive)
REMARK    1  A    between atoms: C_1  and  C_2
REMARK    2  A    between atoms: C_6  and  N_7
REMARK    3  A    between atoms: N_7  and  C_8
REMARK    4  A    between atoms: C_13  and  C_14
REMARK    5  A    between atoms: N_16  and  C_17
REMARK    6  A    between atoms: C_17  and  C_18
REMARK    7  A    between atoms: C_18  and  C_19
REMARK    8  A    between atoms: C_19  and  C_20
REMARK    9  A    between atoms: C_20  and  C_21
REMARK   10  A    between atoms: C_21  and  C_22
REMARK   11  A    between atoms: C_22  and  C_23
REMARK   12  A    between atoms: C_23  and  N_24
REMARK   13  A    between atoms: N_24  and  C_25
REMARK   14  A    between atoms: C_40  and  C_41
REMARK                            x       y       z     vdW  Elec       q    Type
REMARK                         _______ _______ _______ _____ _____    ______ ____
ROOT
ATOM      1  C   UNL A   1      40.250 -17.360 -39.726  0.00  0.00    -0.037 C 
ENDROOT
BRANCH   1   2
ATOM      2  C   UNL A   1      40.779 -16.256 -38.813  0.00  0.00    +0.012 C 
BRANCH   2   5
ATOM      3  C   UNL A   1      43.000 -16.780 -37.872  0.00  0.00    +0.246 C 
ATOM      4  O   UNL A   1      42.528 -17.359 -36.898  0.00  0.00    -0.270 OA
ATOM      5  N   UNL A   1      42.226 -16.191 -38.852  0.00  0.00    -0.311 N 
ATOM      6  H   UNL A   1      42.667 -15.717 -39.593  0.00  0.00    +0.000 HD
BRANCH   3  12
ATOM      7  C   UNL A   1      45.195 -17.625 -38.768  0.00  0.00    +0.044 A 
ATOM      8  C   UNL A   1      46.583 -17.461 -38.893  0.00  0.00    -0.040 A 
ATOM      9  C   UNL A   1      47.243 -16.372 -38.320  0.00  0.00    -0.060 A 
ATOM     10  C   UNL A   1      46.524 -15.416 -37.609  0.00  0.00    -0.061 A 
ATOM     11  C   UNL A   1      45.144 -15.552 -37.466  0.00  0.00    -0.048 A 
ATOM     12  C   UNL A   1      44.479 -16.656 -38.028  0.00  0.00    +0.058 A 
BRANCH   7  13
ATOM     13  N   UNL A   1      44.537 -18.739 -39.335  0.00  0.00    -0.314 N 
ATOM     14  H   UNL A   1      43.835 -19.117 -38.758  0.00  0.00    +0.000 HD
BRANCH  13  20
ATOM     15  C   UNL A   1      46.328 -22.602 -41.969  0.00  0.00    -0.039 C 
ATOM     16  C   UNL A   1      45.553 -21.317 -41.850  0.00  0.00    -0.046 A 
ATOM     17  C   UNL A   1      44.956 -20.789 -43.004  0.00  0.00    -0.058 A 
ATOM     18  C   UNL A   1      44.234 -19.602 -42.949  0.00  0.00    -0.060 A 
ATOM     19  C   UNL A   1      44.104 -18.925 -41.739  0.00  0.00    -0.040 A 
ATOM     20  C   UNL A   1      44.685 -19.418 -40.562  0.00  0.00    +0.035 A 
ATOM     21  C   UNL A   1      45.393 -20.646 -40.612  0.00  0.00    -0.026 A 
ATOM     22  C   UNL A   1      46.008 -21.207 -39.351  0.00  0.00    -0.038 C 
ENDBRANCH  13  20
ENDBRANCH   7  13
ENDBRANCH   3  12
ENDBRANCH   2   5
ENDBRANCH   1   2
BRANCH   1  23
ATOM     23  C   UNL A   1      39.456 -18.405 -38.939  0.00  0.00    -0.052 C 
BRANCH  23  24
ATOM     24  C   UNL A   1      39.874 -19.823 -39.328  0.00  0.00    -0.053 C 
BRANCH  24  25
ATOM     25  C   UNL A   1      41.313 -20.186 -38.952  0.00  0.00    -0.052 C 
BRANCH  25  26
ATOM     26  C   UNL A   1      41.545 -20.475 -37.465  0.00  0.00    -0.037 C 
BRANCH  26  27
ATOM     27  C   UNL A   1      42.947 -21.013 -37.167  0.00  0.00    +0.009 C 
BRANCH  27  28
ATOM     28  N   UNL A   1      43.170 -21.184 -35.722  0.00  0.00    -0.343 N 
ATOM     29  H   UNL A   1      43.084 -22.056 -35.273  0.00  0.00    +0.000 HD
BRANCH  28  30
ATOM     30  C   UNL A   1      43.516 -19.997 -35.022  0.00  0.00    +0.041 A 
ATOM     31  C   UNL A   1      44.816 -19.459 -35.124  0.00  0.00    -0.005 A 
ATOM     32  C   UNL A   1      45.069 -18.246 -34.474  0.00  0.00    +0.047 A 
ATOM     33  N   UNL A   1      44.125 -17.557 -33.790  0.00  0.00    -0.251 NA
ATOM     34  C   UNL A   1      42.899 -18.076 -33.673  0.00  0.00    +0.074 A 
ATOM     35  C   UNL A   1      41.965 -17.366 -32.932  0.00  0.00    -0.017 A 
ATOM     36  C   UNL A   1      40.677 -17.855 -32.733  0.00  0.00    +0.043 A 
ATOM     37 CL   UNL A   1      39.549 -16.945 -31.803  0.00  0.00    -0.083 Cl
ATOM     38  C   UNL A   1      40.301 -19.076 -33.268  0.00  0.00    -0.043 A 
ATOM     39  C   UNL A   1      41.226 -19.798 -34.020  0.00  0.00    -0.049 A 
ATOM     40  C   UNL A   1      42.533 -19.305 -34.256  0.00  0.00    +0.022 A 
ATOM     41  C   UNL A   1      46.415 -17.571 -34.538  0.00  0.00    -0.010 C 
ATOM     42  C   UNL A   1      47.551 -18.524 -34.886  0.00  0.00    -0.047 C 
ATOM     43  C   UNL A   1      47.173 -19.341 -36.110  0.00  0.00    -0.049 C 
ATOM     44  C   UNL A   1      45.937 -20.193 -35.824  0.00  0.00    -0.024 C 
ENDBRANCH  28  30
ENDBRANCH  27  28
ENDBRANCH  26  27
ENDBRANCH  25  26
ENDBRANCH  24  25
ENDBRANCH  23  24
ENDBRANCH   1  23
TORSDOF 12
ENDMDL
MODEL 18
REMARK VINA RESULT:    -6.591     17.833     21.327
REMARK INTER + INTRA:         -15.208
REMARK INTER:                 -11.125
REMARK INTRA:                  -4.083
REMARK UNBOUND:                -3.993
REMARK  Name = cpd175.pdb
REMARK  14 active torsions:
REMARK  status: ('A' for Active; 'I' for Inactive)
REMARK    1  A    between atoms: C_1  and  C_2
REMARK    2  A    between atoms: C_6  and  N_7
REMARK    3  A    between atoms: N_7  and  C_8
REMARK    4  A    between atoms: C_13  and  C_14
REMARK    5  A    between atoms: N_16  and  C_17
REMARK    6  A    between atoms: C_17  and  C_18
REMARK    7  A    between atoms: C_18  and  C_19
REMARK    8  A    between atoms: C_19  and  C_20
REMARK    9  A    between atoms: C_20  and  C_21
REMARK   10  A    between atoms: C_21  and  C_22
REMARK   11  A    between atoms: C_22  and  C_23
REMARK   12  A    between atoms: C_23  and  N_24
REMARK   13  A    between atoms: N_24  and  C_25
REMARK   14  A    between atoms: C_40  and  C_41
REMARK                            x       y       z     vdW  Elec       q    Type
REMARK                         _______ _______ _______ _____ _____    ______ ____
ROOT
ATOM      1  C   UNL A   1      43.387 -20.961 -38.426  0.00  0.00    -0.037 C 
ENDROOT
BRANCH   1   2
ATOM      2  C   UNL A   1      41.905 -21.303 -38.564  0.00  0.00    +0.012 C 
BRANCH   2   5
ATOM      3  C   UNL A   1      40.279 -20.916 -36.748  0.00  0.00    +0.246 C 
ATOM      4  O   UNL A   1      39.802 -19.925 -37.291  0.00  0.00    -0.270 OA
ATOM      5  N   UNL A   1      41.324 -21.645 -37.282  0.00  0.00    -0.311 N 
ATOM      6  H   UNL A   1      41.680 -22.414 -36.782  0.00  0.00    +0.000 HD
BRANCH   3  12
ATOM      7  C   UNL A   1      39.822 -20.515 -34.306  0.00  0.00    +0.044 A 
ATOM      8  C   UNL A   1      39.312 -20.987 -33.087  0.00  0.00    -0.040 A 
ATOM      9  C   UNL A   1      38.745 -22.260 -32.978  0.00  0.00    -0.060 A 
ATOM     10  C   UNL A   1      38.672 -23.089 -34.093  0.00  0.00    -0.061 A 
ATOM     11  C   UNL A   1      39.171 -22.648 -35.318  0.00  0.00    -0.048 A 
ATOM     12  C   UNL A   1      39.757 -21.374 -35.427  0.00  0.00    +0.058 A 
BRANCH   7  13
ATOM     13  N   UNL A   1      40.410 -19.235 -34.404  0.00  0.00    -0.314 N 
ATOM     14  H   UNL A   1      39.785 -18.537 -34.705  0.00  0.00    +0.000 HD
BRANCH  13  20
ATOM     15  C   UNL A   1      44.149 -16.080 -35.469  0.00  0.00    -0.039 C 
ATOM     16  C   UNL A   1      43.540 -17.202 -34.671  0.00  0.00    -0.046 A 
ATOM     17  C   UNL A   1      44.302 -17.781 -33.646  0.00  0.00    -0.058 A 
ATOM     18  C   UNL A   1      43.789 -18.824 -32.884  0.00  0.00    -0.060 A 
ATOM     19  C   UNL A   1      42.508 -19.305 -33.141  0.00  0.00    -0.040 A 
ATOM     20  C   UNL A   1      41.713 -18.756 -34.156  0.00  0.00    +0.035 A 
ATOM     21  C   UNL A   1      42.224 -17.670 -34.912  0.00  0.00    -0.026 A 
ATOM     22  C   UNL A   1      41.376 -17.047 -35.997  0.00  0.00    -0.038 C 
ENDBRANCH  13  20
ENDBRANCH   7  13
ENDBRANCH   3  12
ENDBRANCH   2   5
ENDBRANCH   1   2
BRANCH   1  23
ATOM     23  C   UNL A   1      43.764 -20.679 -36.971  0.00  0.00    -0.052 C 
BRANCH  23  24
ATOM     24  C   UNL A   1      44.803 -19.561 -36.876  0.00  0.00    -0.053 C 
BRANCH  24  25
ATOM     25  C   UNL A   1      46.207 -20.030 -36.483  0.00  0.00    -0.052 C 
BRANCH  25  26
ATOM     26  C   UNL A   1      47.289 -18.946 -36.514  0.00  0.00    -0.037 C 
BRANCH  26  27
ATOM     27  C   UNL A   1      46.870 -17.698 -37.295  0.00  0.00    +0.009 C 
BRANCH  27  28
ATOM     28  N   UNL A   1      47.380 -17.722 -38.676  0.00  0.00    -0.343 N 
ATOM     29  H   UNL A   1      48.324 -17.547 -38.894  0.00  0.00    +0.000 HD
BRANCH  28  30
ATOM     30  C   UNL A   1      46.409 -18.017 -39.671  0.00  0.00    +0.041 A 
ATOM     31  C   UNL A   1      45.443 -17.056 -40.036  0.00  0.00    -0.005 A 
ATOM     32  C   UNL A   1      44.566 -17.381 -41.077  0.00  0.00    +0.047 A 
ATOM     33  N   UNL A   1      44.625 -18.546 -41.763  0.00  0.00    -0.251 NA
ATOM     34  C   UNL A   1      45.524 -19.467 -41.404  0.00  0.00    +0.074 A 
ATOM     35  C   UNL A   1      45.533 -20.667 -42.100  0.00  0.00    -0.017 A 
ATOM     36  C   UNL A   1      46.415 -21.692 -41.766  0.00  0.00    +0.043 A 
ATOM     37 CL   UNL A   1      46.391 -23.167 -42.652  0.00  0.00    -0.083 Cl
ATOM     38  C   UNL A   1      47.303 -21.535 -40.714  0.00  0.00    -0.043 A 
ATOM     39  C   UNL A   1      47.310 -20.333 -40.009  0.00  0.00    -0.049 A 
ATOM     40  C   UNL A   1      46.440 -19.269 -40.352  0.00  0.00    +0.022 A 
ATOM     41  C   UNL A   1      43.512 -16.418 -41.563  0.00  0.00    -0.010 C 
ATOM     42  C   UNL A   1      43.149 -15.355 -40.536  0.00  0.00    -0.047 C 
ATOM     43  C   UNL A   1      44.415 -14.714 -39.995  0.00  0.00    -0.049 C 
ATOM     44  C   UNL A   1      45.280 -15.755 -39.283  0.00  0.00    -0.024 C 
ENDBRANCH  28  30
ENDBRANCH  27  28
ENDBRANCH  26  27
ENDBRANCH  25  26
ENDBRANCH  24  25
ENDBRANCH  23  24
ENDBRANCH   1  23
TORSDOF 12
ENDMDL
MODEL 19
REMARK VINA RESULT:    -6.570     17.389     20.559
REMARK INTER + INTRA:         -15.173
REMARK INTER:                  -9.915
REMARK INTRA:                  -5.258
REMARK UNBOUND:                -3.993
REMARK  Name = cpd175.pdb
REMARK  14 active torsions:
REMARK  status: ('A' for Active; 'I' for Inactive)
REMARK    1  A    between atoms: C_1  and  C_2
REMARK    2  A    between atoms: C_6  and  N_7
REMARK    3  A    between atoms: N_7  and  C_8
REMARK    4  A    between atoms: C_13  and  C_14
REMARK    5  A    between atoms: N_16  and  C_17
REMARK    6  A    between atoms: C_17  and  C_18
REMARK    7  A    between atoms: C_18  and  C_19
REMARK    8  A    between atoms: C_19  and  C_20
REMARK    9  A    between atoms: C_20  and  C_21
REMARK   10  A    between atoms: C_21  and  C_22
REMARK   11  A    between atoms: C_22  and  C_23
REMARK   12  A    between atoms: C_23  and  N_24
REMARK   13  A    between atoms: N_24  and  C_25
REMARK   14  A    between atoms: C_40  and  C_41
REMARK                            x       y       z     vdW  Elec       q    Type
REMARK                         _______ _______ _______ _____ _____    ______ ____
ROOT
ATOM      1  C   UNL A   1      46.130 -18.550 -36.210  0.00  0.00    -0.037 C 
ENDROOT
BRANCH   1   2
ATOM      2  C   UNL A   1      47.087 -18.601 -37.399  0.00  0.00    +0.012 C 
BRANCH   2   5
ATOM      3  C   UNL A   1      45.653 -18.835 -39.394  0.00  0.00    +0.246 C 
ATOM      4  O   UNL A   1      45.253 -17.677 -39.329  0.00  0.00    -0.270 OA
ATOM      5  N   UNL A   1      46.535 -19.385 -38.485  0.00  0.00    -0.311 N 
ATOM      6  H   UNL A   1      46.794 -20.330 -38.577  0.00  0.00    +0.000 HD
BRANCH   3  12
ATOM      7  C   UNL A   1      43.830 -20.212 -40.451  0.00  0.00    +0.044 A 
ATOM      8  C   UNL A   1      43.413 -21.054 -41.493  0.00  0.00    -0.040 A 
ATOM      9  C   UNL A   1      44.277 -21.410 -42.532  0.00  0.00    -0.060 A 
ATOM     10  C   UNL A   1      45.581 -20.926 -42.553  0.00  0.00    -0.061 A 
ATOM     11  C   UNL A   1      46.024 -20.087 -41.531  0.00  0.00    -0.048 A 
ATOM     12  C   UNL A   1      45.163 -19.740 -40.475  0.00  0.00    +0.058 A 
BRANCH   7  13
ATOM     13  N   UNL A   1      42.957 -19.871 -39.395  0.00  0.00    -0.314 N 
ATOM     14  H   UNL A   1      43.160 -19.000 -38.983  0.00  0.00    +0.000 HD
BRANCH  13  20
ATOM     15  C   UNL A   1      40.884 -22.268 -35.519  0.00  0.00    -0.039 C 
ATOM     16  C   UNL A   1      40.835 -21.691 -36.909  0.00  0.00    -0.046 A 
ATOM     17  C   UNL A   1      39.643 -21.811 -37.638  0.00  0.00    -0.058 A 
ATOM     18  C   UNL A   1      39.546 -21.301 -38.927  0.00  0.00    -0.060 A 
ATOM     19  C   UNL A   1      40.643 -20.668 -39.506  0.00  0.00    -0.040 A 
ATOM     20  C   UNL A   1      41.853 -20.527 -38.812  0.00  0.00    +0.035 A 
ATOM     21  C   UNL A   1      41.940 -21.018 -37.484  0.00  0.00    -0.026 A 
ATOM     22  C   UNL A   1      43.228 -20.857 -36.710  0.00  0.00    -0.038 C 
ENDBRANCH  13  20
ENDBRANCH   7  13
ENDBRANCH   3  12
ENDBRANCH   2   5
ENDBRANCH   1   2
BRANCH   1  23
ATOM     23  C   UNL A   1      45.918 -17.116 -35.722  0.00  0.00    -0.052 C 
BRANCH  23  24
ATOM     24  C   UNL A   1      45.378 -17.094 -34.292  0.00  0.00    -0.053 C 
BRANCH  24  25
ATOM     25  C   UNL A   1      44.052 -16.344 -34.126  0.00  0.00    -0.052 C 
BRANCH  25  26
ATOM     26  C   UNL A   1      43.618 -15.511 -35.336  0.00  0.00    -0.037 C 
BRANCH  26  27
ATOM     27  C   UNL A   1      42.212 -15.858 -35.833  0.00  0.00    +0.009 C 
BRANCH  27  28
ATOM     28  N   UNL A   1      42.130 -17.249 -36.308  0.00  0.00    -0.343 N 
ATOM     29  H   UNL A   1      42.907 -17.729 -36.675  0.00  0.00    +0.000 HD
BRANCH  28  30
ATOM     30  C   UNL A   1      40.845 -17.847 -36.199  0.00  0.00    +0.041 A 
ATOM     31  C   UNL A   1      40.456 -18.498 -35.010  0.00  0.00    -0.005 A 
ATOM     32  C   UNL A   1      39.150 -18.996 -34.939  0.00  0.00    +0.047 A 
ATOM     33  N   UNL A   1      38.244 -18.852 -35.935  0.00  0.00    -0.251 NA
ATOM     34  C   UNL A   1      38.617 -18.255 -37.072  0.00  0.00    +0.074 A 
ATOM     35  C   UNL A   1      37.678 -18.159 -38.088  0.00  0.00    -0.017 A 
ATOM     36  C   UNL A   1      37.996 -17.583 -39.315  0.00  0.00    +0.043 A 
ATOM     37 CL   UNL A   1      36.804 -17.486 -40.552  0.00  0.00    -0.083 Cl
ATOM     38  C   UNL A   1      39.273 -17.100 -39.551  0.00  0.00    -0.043 A 
ATOM     39  C   UNL A   1      40.226 -17.184 -38.537  0.00  0.00    -0.049 A 
ATOM     40  C   UNL A   1      39.913 -17.741 -37.273  0.00  0.00    +0.022 A 
ATOM     41  C   UNL A   1      38.625 -19.687 -33.707  0.00  0.00    -0.010 C 
ATOM     42  C   UNL A   1      39.725 -20.245 -32.814  0.00  0.00    -0.047 C 
ATOM     43  C   UNL A   1      40.771 -19.172 -32.563  0.00  0.00    -0.049 C 
ATOM     44  C   UNL A   1      41.426 -18.745 -33.876  0.00  0.00    -0.024 C 
ENDBRANCH  28  30
ENDBRANCH  27  28
ENDBRANCH  26  27
ENDBRANCH  25  26
ENDBRANCH  24  25
ENDBRANCH  23  24
ENDBRANCH   1  23
TORSDOF 12
ENDMDL
MODEL 20
REMARK VINA RESULT:    -6.455     18.195     21.315
REMARK INTER + INTRA:         -14.976
REMARK INTER:                 -10.859
REMARK INTRA:                  -4.117
REMARK UNBOUND:                -3.993
REMARK  Name = cpd175.pdb
REMARK  14 active torsions:
REMARK  status: ('A' for Active; 'I' for Inactive)
REMARK    1  A    between atoms: C_1  and  C_2
REMARK    2  A    between atoms: C_6  and  N_7
REMARK    3  A    between atoms: N_7  and  C_8
REMARK    4  A    between atoms: C_13  and  C_14
REMARK    5  A    between atoms: N_16  and  C_17
REMARK    6  A    between atoms: C_17  and  C_18
REMARK    7  A    between atoms: C_18  and  C_19
REMARK    8  A    between atoms: C_19  and  C_20
REMARK    9  A    between atoms: C_20  and  C_21
REMARK   10  A    between atoms: C_21  and  C_22
REMARK   11  A    between atoms: C_22  and  C_23
REMARK   12  A    between atoms: C_23  and  N_24
REMARK   13  A    between atoms: N_24  and  C_25
REMARK   14  A    between atoms: C_40  and  C_41
REMARK                            x       y       z     vdW  Elec       q    Type
REMARK                         _______ _______ _______ _____ _____    ______ ____
ROOT
ATOM      1  C   UNL A   1      44.032 -13.413 -36.861  0.00  0.00    -0.037 C 
ENDROOT
BRANCH   1   2
ATOM      2  C   UNL A   1      44.941 -14.178 -37.820  0.00  0.00    +0.012 C 
BRANCH   2   5
ATOM      3  C   UNL A   1      46.405 -16.162 -37.702  0.00  0.00    +0.246 C 
ATOM      4  O   UNL A   1      47.190 -15.720 -38.535  0.00  0.00    -0.270 OA
ATOM      5  N   UNL A   1      45.265 -15.492 -37.302  0.00  0.00    -0.311 N 
ATOM      6  H   UNL A   1      44.661 -15.915 -36.651  0.00  0.00    +0.000 HD
BRANCH   3  12
ATOM      7  C   UNL A   1      46.968 -18.607 -37.907  0.00  0.00    +0.044 A 
ATOM      8  C   UNL A   1      47.185 -19.845 -37.283  0.00  0.00    -0.040 A 
ATOM      9  C   UNL A   1      47.089 -19.989 -35.897  0.00  0.00    -0.060 A 
ATOM     10  C   UNL A   1      46.779 -18.891 -35.101  0.00  0.00    -0.061 A 
ATOM     11  C   UNL A   1      46.558 -17.648 -35.691  0.00  0.00    -0.048 A 
ATOM     12  C   UNL A   1      46.637 -17.503 -37.088  0.00  0.00    +0.058 A 
BRANCH   7  13
ATOM     13  N   UNL A   1      47.049 -18.472 -39.310  0.00  0.00    -0.314 N 
ATOM     14  H   UNL A   1      47.918 -18.131 -39.624  0.00  0.00    +0.000 HD
BRANCH  13  20
ATOM     15  C   UNL A   1      45.238 -21.525 -42.842  0.00  0.00    -0.039 C 
ATOM     16  C   UNL A   1      45.240 -20.229 -42.075  0.00  0.00    -0.046 A 
ATOM     17  C   UNL A   1      44.292 -19.253 -42.413  0.00  0.00    -0.058 A 
ATOM     18  C   UNL A   1      44.255 -18.037 -41.740  0.00  0.00    -0.060 A 
ATOM     19  C   UNL A   1      45.170 -17.781 -40.722  0.00  0.00    -0.040 A 
ATOM     20  C   UNL A   1      46.134 -18.729 -40.353  0.00  0.00    +0.035 A 
ATOM     21  C   UNL A   1      46.150 -19.982 -41.017  0.00  0.00    -0.026 A 
ATOM     22  C   UNL A   1      47.166 -21.028 -40.620  0.00  0.00    -0.038 C 
ENDBRANCH  13  20
ENDBRANCH   7  13
ENDBRANCH   3  12
ENDBRANCH   2   5
ENDBRANCH   1   2
BRANCH   1  23
ATOM     23  C   UNL A   1      43.997 -14.069 -35.479  0.00  0.00    -0.052 C 
BRANCH  23  24
ATOM     24  C   UNL A   1      42.613 -14.643 -35.175  0.00  0.00    -0.053 C 
BRANCH  24  25
ATOM     25  C   UNL A   1      42.540 -15.481 -33.895  0.00  0.00    -0.052 C 
BRANCH  25  26
ATOM     26  C   UNL A   1      43.378 -16.764 -33.906  0.00  0.00    -0.037 C 
BRANCH  26  27
ATOM     27  C   UNL A   1      43.092 -17.660 -35.114  0.00  0.00    +0.009 C 
BRANCH  27  28
ATOM     28  N   UNL A   1      43.127 -19.087 -34.754  0.00  0.00    -0.343 N 
ATOM     29  H   UNL A   1      43.795 -19.460 -34.136  0.00  0.00    +0.000 HD
BRANCH  28  30
ATOM     30  C   UNL A   1      42.122 -19.885 -35.366  0.00  0.00    +0.041 A 
ATOM     31  C   UNL A   1      42.315 -20.413 -36.660  0.00  0.00    -0.005 A 
ATOM     32  C   UNL A   1      41.323 -21.256 -37.172  0.00  0.00    +0.047 A 
ATOM     33  N   UNL A   1      40.216 -21.611 -36.477  0.00  0.00    -0.251 NA
ATOM     34  C   UNL A   1      40.020 -21.094 -35.260  0.00  0.00    +0.074 A 
ATOM     35  C   UNL A   1      38.857 -21.445 -34.589  0.00  0.00    -0.017 A 
ATOM     36  C   UNL A   1      38.561 -20.923 -33.333  0.00  0.00    +0.043 A 
ATOM     37 CL   UNL A   1      37.105 -21.380 -32.537  0.00  0.00    -0.083 Cl
ATOM     38  C   UNL A   1      39.425 -20.026 -32.726  0.00  0.00    -0.043 A 
ATOM     39  C   UNL A   1      40.600 -19.669 -33.384  0.00  0.00    -0.049 A 
ATOM     40  C   UNL A   1      40.933 -20.210 -34.651  0.00  0.00    +0.022 A 
ATOM     41  C   UNL A   1      41.440 -21.893 -38.533  0.00  0.00    -0.010 C 
ATOM     42  C   UNL A   1      42.399 -21.159 -39.460  0.00  0.00    -0.047 C 
ATOM     43  C   UNL A   1      43.715 -20.912 -38.742  0.00  0.00    -0.049 C 
ATOM     44  C   UNL A   1      43.498 -20.022 -37.517  0.00  0.00    -0.024 C 
ENDBRANCH  28  30
ENDBRANCH  27  28
ENDBRANCH  26  27
ENDBRANCH  25  26
ENDBRANCH  24  25
ENDBRANCH  23  24
ENDBRANCH   1  23
TORSDOF 12
ENDMDL
