REMARK  Name = cpd175.pdb
REMARK  14 active torsions:
REMARK  status: ('A' for Active; 'I' for Inactive)
REMARK    1  A    between atoms: C_1  and  C_2
REMARK    2  A    between atoms: C_6  and  N_7
REMARK    3  A    between atoms: N_7  and  C_8
REMARK    4  A    between atoms: C_13  and  C_14
REMARK    5  A    between atoms: N_16  and  C_17
REMARK    6  A    between atoms: C_17  and  C_18
REMARK    7  A    between atoms: C_18  and  C_19
REMARK    8  A    between atoms: C_19  and  C_20
REMARK    9  A    between atoms: C_20  and  C_21
REMARK   10  A    between atoms: C_21  and  C_22
REMARK   11  A    between atoms: C_22  and  C_23
REMARK   12  A    between atoms: C_23  and  N_24
REMARK   13  A    between atoms: N_24  and  C_25
REMARK   14  A    between atoms: C_40  and  C_41
REMARK                            x       y       z     vdW  Elec       q    Type
REMARK                         _______ _______ _______ _____ _____    ______ ____
ROOT
ATOM      1  C   UNL A   1       5.074   4.009   0.504  0.00  0.00    -0.037 C 
ENDROOT
BRANCH   1   2
ATOM      2  C   UNL A   1       4.282   3.452  -0.677  0.00  0.00    +0.012 C 
BRANCH   2   5
ATOM      3  C   UNL A   1       1.937   3.312   0.081  0.00  0.00    +0.246 C 
ATOM      4  O   UNL A   1       2.140   2.304   0.751  0.00  0.00    -0.270 OA
ATOM      5  N   UNL A   1       2.916   3.935  -0.668  0.00  0.00    -0.311 N 
ATOM      6  H   UNL A   1       2.681   4.724  -1.207  0.00  0.00    +0.000 HD
BRANCH   3  12
ATOM      7  C   UNL A   1      -0.569   3.077   0.092  0.00  0.00    +0.044 A 
ATOM      8  C   UNL A   1      -1.832   3.686   0.036  0.00  0.00    -0.040 A 
ATOM      9  C   UNL A   1      -1.968   5.072  -0.077  0.00  0.00    -0.060 A 
ATOM     10  C   UNL A   1      -0.838   5.882  -0.132  0.00  0.00    -0.061 A 
ATOM     11  C   UNL A   1       0.430   5.306  -0.079  0.00  0.00    -0.048 A 
ATOM     12  C   UNL A   1       0.571   3.910   0.018  0.00  0.00    +0.058 A 
BRANCH   7  13
ATOM     13  N   UNL A   1      -0.439   1.674   0.188  0.00  0.00    -0.314 N 
ATOM     14  H   UNL A   1       0.370   1.386   0.670  0.00  0.00    +0.000 HD
BRANCH  13  20
ATOM     15  C   UNL A   1      -1.895  -3.104   0.531  0.00  0.00    -0.039 C 
ATOM     16  C   UNL A   1      -1.956  -1.735  -0.092  0.00  0.00    -0.046 A 
ATOM     17  C   UNL A   1      -2.843  -1.527  -1.158  0.00  0.00    -0.058 A 
ATOM     18  C   UNL A   1      -2.934  -0.283  -1.772  0.00  0.00    -0.060 A 
ATOM     19  C   UNL A   1      -2.135   0.768  -1.330  0.00  0.00    -0.040 A 
ATOM     20  C   UNL A   1      -1.235   0.603  -0.268  0.00  0.00    +0.035 A 
ATOM     21  C   UNL A   1      -1.167  -0.657   0.380  0.00  0.00    -0.026 A 
ATOM     22  C   UNL A   1      -0.220  -0.851   1.542  0.00  0.00    -0.038 C 
ENDBRANCH  13  20
ENDBRANCH   7  13
ENDBRANCH   3  12
ENDBRANCH   2   5
ENDBRANCH   1   2
BRANCH   1  23
ATOM     23  C   UNL A   1       6.497   3.448   0.539  0.00  0.00    -0.052 C 
BRANCH  23  24
ATOM     24  C   UNL A   1       7.289   4.026   1.712  0.00  0.00    -0.053 C 
BRANCH  24  25
ATOM     25  C   UNL A   1       8.627   3.330   1.979  0.00  0.00    -0.052 C 
BRANCH  25  26
ATOM     26  C   UNL A   1       9.666   3.463   0.861  0.00  0.00    -0.037 C 
BRANCH  26  27
ATOM     27  C   UNL A   1       9.664   2.278  -0.108  0.00  0.00    +0.009 C 
BRANCH  27  28
ATOM     28  N   UNL A   1      10.679   2.435  -1.163  0.00  0.00    -0.343 N 
ATOM     29  H   UNL A   1      10.477   2.847  -2.034  0.00  0.00    +0.000 HD
BRANCH  28  30
ATOM     30  C   UNL A   1      11.972   1.947  -0.831  0.00  0.00    +0.041 A 
ATOM     31  C   UNL A   1      13.025   2.842  -0.548  0.00  0.00    -0.005 A 
ATOM     32  C   UNL A   1      14.251   2.297  -0.151  0.00  0.00    +0.047 A 
ATOM     33  N   UNL A   1      14.459   0.968   0.005  0.00  0.00    -0.251 NA
ATOM     34  C   UNL A   1      13.470   0.117  -0.285  0.00  0.00    +0.074 A 
ATOM     35  C   UNL A   1      13.727  -1.240  -0.154  0.00  0.00    -0.017 A 
ATOM     36  C   UNL A   1      12.762  -2.193  -0.469  0.00  0.00    +0.043 A 
ATOM     37 CL   UNL A   1      13.122  -3.867  -0.297  0.00  0.00    -0.083 Cl
ATOM     38  C   UNL A   1      11.517  -1.801  -0.934  0.00  0.00    -0.043 A 
ATOM     39  C   UNL A   1      11.242  -0.441  -1.065  0.00  0.00    -0.049 A 
ATOM     40  C   UNL A   1      12.201   0.544  -0.723  0.00  0.00    +0.022 A 
ATOM     41  C   UNL A   1      15.434   3.163   0.199  0.00  0.00    -0.010 C 
ATOM     42  C   UNL A   1      15.356   4.560  -0.402  0.00  0.00    -0.047 C 
ATOM     43  C   UNL A   1      13.995   5.167  -0.106  0.00  0.00    -0.049 C 
ATOM     44  C   UNL A   1      12.886   4.334  -0.749  0.00  0.00    -0.024 C 
ENDBRANCH  28  30
ENDBRANCH  27  28
ENDBRANCH  26  27
ENDBRANCH  25  26
ENDBRANCH  24  25
ENDBRANCH  23  24
ENDBRANCH   1  23
TORSDOF 12
