REMARK  Name = cpd255.pdb
REMARK  8 active torsions:
REMARK  status: ('A' for Active; 'I' for Inactive)
REMARK    1  A    between atoms: C_1  and  C_2
REMARK    2  A    between atoms: C_6  and  C_7
REMARK    3  A    between atoms: C_8  and  N_9
REMARK    4  A    between atoms: C_10  and  O_12
REMARK    5  A    between atoms: O_12  and  C_13
REMARK    6  A    between atoms: C_19  and  C_20
REMARK    7  A    between atoms: N_23  and  C_24
REMARK    8  A    between atoms: N_27  and  C_28
REMARK                            x       y       z     vdW  Elec       q    Type
REMARK                         _______ _______ _______ _____ _____    ______ ____
ROOT
ATOM      1  C   UNL A   1      -3.398  -0.944   1.473  0.00  0.00    +0.134 A 
ATOM      2  C   UNL A   1      -3.498   0.328   0.878  0.00  0.00    -0.017 A 
ATOM      3  C   UNL A   1      -2.485   0.788   0.034  0.00  0.00    -0.037 A 
ATOM      4  C   UNL A   1      -1.375  -0.014  -0.149  0.00  0.00    +0.032 A 
ATOM      5  C   UNL A   1      -1.291  -1.281   0.473  0.00  0.00    -0.017 A 
ATOM      6  C   UNL A   1      -2.289  -1.768   1.290  0.00  0.00    -0.014 A 
ATOM      7  C   UNL A   1       0.000  -1.879   0.000  0.00  0.00    +0.002 C 
ATOM      8  C   UNL A   1      -0.291  -2.623  -1.331  0.00  0.00    -0.055 C 
ATOM      9  C   UNL A   1       0.895  -2.690   0.895  0.00  0.00    -0.054 C 
ATOM     10  C   UNL A   1       2.236  -2.480   0.203  0.00  0.00    -0.048 C 
ATOM     11  N   UNL A   1       2.180  -1.105  -0.494  0.00  0.00    +0.433 N 
ATOM     12  C   UNL A   1       3.372  -0.304  -0.019  0.00  0.00    -0.060 C 
ATOM     13  O   UNL A   1       2.294  -1.227  -1.854  0.00  0.00    -0.289 OA
ATOM     14  C   UNL A   1       0.814  -0.470   0.000  0.00  0.00    +0.039 C 
ATOM     15  N   UNL A   1      -0.203   0.226  -0.912  0.00  0.00    -0.341 N 
ATOM     16  C   UNL A   1       0.043   1.550  -1.451  0.00  0.00    -0.001 C 
ENDROOT
BRANCH   1  17
ATOM     17  O   UNL A   1      -4.412  -1.408   2.342  0.00  0.00    -0.411 OA
BRANCH  17  19
ATOM     18  N   UNL A   1      -6.075  -1.481   0.702  0.00  0.00    -0.250 N 
ATOM     19  C   UNL A   1      -5.788  -1.333   2.042  0.00  0.00    +0.410 C 
ATOM     20  O   UNL A   1      -6.579  -1.141   2.956  0.00  0.00    -0.226 OA
ATOM     21  H   UNL A   1      -5.309  -1.684   0.118  0.00  0.00    +0.000 HD
BRANCH  18  29
ATOM     22  C   UNL A   1      -8.692  -2.560   1.916  0.00  0.00    -0.038 C 
ATOM     23  C   UNL A   1      -8.556  -1.800   0.624  0.00  0.00    -0.029 A 
ATOM     24  C   UNL A   1      -9.756  -1.564  -0.076  0.00  0.00    -0.057 A 
ATOM     25  C   UNL A   1      -9.755  -0.987  -1.341  0.00  0.00    -0.061 A 
ATOM     26  C   UNL A   1      -8.549  -0.647  -1.936  0.00  0.00    -0.057 A 
ATOM     27  C   UNL A   1      -7.333  -0.843  -1.258  0.00  0.00    -0.029 A 
ATOM     28  C   UNL A   1      -6.070  -0.413  -1.961  0.00  0.00    -0.038 C 
ATOM     29  C   UNL A   1      -7.333  -1.378   0.058  0.00  0.00    +0.042 A 
ENDBRANCH  18  29
ENDBRANCH  17  19
ENDBRANCH   1  17
TORSDOF 3
