MODEL 1
REMARK VINA RESULT:    -9.230      0.000      0.000
REMARK INTER + INTRA:         -11.328
REMARK INTER:                 -10.849
REMARK INTRA:                  -0.480
REMARK UNBOUND:                -0.480
REMARK  Name = cpd255.pdb
REMARK  8 active torsions:
REMARK  status: ('A' for Active; 'I' for Inactive)
REMARK    1  A    between atoms: C_1  and  C_2
REMARK    2  A    between atoms: C_6  and  C_7
REMARK    3  A    between atoms: C_8  and  N_9
REMARK    4  A    between atoms: C_10  and  O_12
REMARK    5  A    between atoms: O_12  and  C_13
REMARK    6  A    between atoms: C_19  and  C_20
REMARK    7  A    between atoms: N_23  and  C_24
REMARK    8  A    between atoms: N_27  and  C_28
REMARK                            x       y       z     vdW  Elec       q    Type
REMARK                         _______ _______ _______ _____ _____    ______ ____
ROOT
ATOM      1  C   UNL A   1      36.555 -34.528 -30.898  0.00  0.00    +0.134 A 
ATOM      2  C   UNL A   1      36.245 -35.693 -30.171  0.00  0.00    -0.017 A 
ATOM      3  C   UNL A   1      34.941 -35.911 -29.720  0.00  0.00    -0.037 A 
ATOM      4  C   UNL A   1      33.996 -34.932 -29.961  0.00  0.00    +0.032 A 
ATOM      5  C   UNL A   1      34.337 -33.763 -30.679  0.00  0.00    -0.017 A 
ATOM      6  C   UNL A   1      35.611 -33.537 -31.157  0.00  0.00    -0.014 A 
ATOM      7  C   UNL A   1      33.066 -32.977 -30.800  0.00  0.00    +0.002 C 
ATOM      8  C   UNL A   1      32.333 -33.471 -32.077  0.00  0.00    -0.055 C 
ATOM      9  C   UNL A   1      33.024 -31.479 -30.691  0.00  0.00    -0.054 C 
ATOM     10  C   UNL A   1      31.584 -31.278 -30.235  0.00  0.00    -0.048 C 
ATOM     11  N   UNL A   1      31.174 -32.540 -29.450  0.00  0.00    +0.433 N 
ATOM     12  C   UNL A   1      30.666 -32.091 -28.098  0.00  0.00    -0.060 C 
ATOM     13  O   UNL A   1      30.144 -33.202 -30.066  0.00  0.00    -0.289 OA
ATOM     14  C   UNL A   1      32.514 -33.377 -29.323  0.00  0.00    +0.039 C 
ATOM     15  N   UNL A   1      32.629 -34.883 -29.583  0.00  0.00    -0.341 N 
ATOM     16  C   UNL A   1      32.110 -35.858 -28.643  0.00  0.00    -0.001 C 
ENDROOT
BRANCH   1  17
ATOM     17  O   UNL A   1      37.877 -34.295 -31.343  0.00  0.00    -0.411 OA
BRANCH  17  19
ATOM     18  N   UNL A   1      39.714 -35.601 -30.727  0.00  0.00    -0.250 N 
ATOM     19  C   UNL A   1      38.772 -35.325 -31.695  0.00  0.00    +0.410 C 
ATOM     20  O   UNL A   1      38.651 -35.860 -32.790  0.00  0.00    -0.226 OA
ATOM     21  H   UNL A   1      39.622 -35.103 -29.883  0.00  0.00    +0.000 HD
BRANCH  18  29
ATOM     22  C   UNL A   1      42.080 -35.278 -32.672  0.00  0.00    -0.038 C 
ATOM     23  C   UNL A   1      41.928 -36.347 -31.624  0.00  0.00    -0.029 A 
ATOM     24  C   UNL A   1      42.987 -37.273 -31.537  0.00  0.00    -0.057 A 
ATOM     25  C   UNL A   1      42.913 -38.380 -30.700  0.00  0.00    -0.061 A 
ATOM     26  C   UNL A   1      41.769 -38.590 -29.943  0.00  0.00    -0.057 A 
ATOM     27  C   UNL A   1      40.703 -37.674 -29.984  0.00  0.00    -0.029 A 
ATOM     28  C   UNL A   1      39.512 -37.957 -29.103  0.00  0.00    -0.038 C 
ATOM     29  C   UNL A   1      40.799 -36.510 -30.793  0.00  0.00    +0.042 A 
ENDBRANCH  18  29
ENDBRANCH  17  19
ENDBRANCH   1  17
TORSDOF 3
ENDMDL
MODEL 2
REMARK VINA RESULT:    -8.470      1.595      2.151
REMARK INTER + INTRA:         -10.435
REMARK INTER:                  -9.807
REMARK INTRA:                  -0.629
REMARK UNBOUND:                -0.480
REMARK  Name = cpd255.pdb
REMARK  8 active torsions:
REMARK  status: ('A' for Active; 'I' for Inactive)
REMARK    1  A    between atoms: C_1  and  C_2
REMARK    2  A    between atoms: C_6  and  C_7
REMARK    3  A    between atoms: C_8  and  N_9
REMARK    4  A    between atoms: C_10  and  O_12
REMARK    5  A    between atoms: O_12  and  C_13
REMARK    6  A    between atoms: C_19  and  C_20
REMARK    7  A    between atoms: N_23  and  C_24
REMARK    8  A    between atoms: N_27  and  C_28
REMARK                            x       y       z     vdW  Elec       q    Type
REMARK                         _______ _______ _______ _____ _____    ______ ____
ROOT
ATOM      1  C   UNL A   1      34.194 -35.210 -31.233  0.00  0.00    +0.134 A 
ATOM      2  C   UNL A   1      33.895 -36.024 -30.124  0.00  0.00    -0.017 A 
ATOM      3  C   UNL A   1      32.754 -35.773 -29.359  0.00  0.00    -0.037 A 
ATOM      4  C   UNL A   1      31.973 -34.683 -29.691  0.00  0.00    +0.032 A 
ATOM      5  C   UNL A   1      32.304 -33.871 -30.801  0.00  0.00    -0.017 A 
ATOM      6  C   UNL A   1      33.411 -34.113 -31.586  0.00  0.00    -0.014 A 
ATOM      7  C   UNL A   1      31.214 -32.846 -30.891  0.00  0.00    +0.002 C 
ATOM      8  C   UNL A   1      30.075 -33.451 -31.755  0.00  0.00    -0.055 C 
ATOM      9  C   UNL A   1      31.477 -31.412 -31.259  0.00  0.00    -0.054 C 
ATOM     10  C   UNL A   1      30.284 -30.737 -30.594  0.00  0.00    -0.048 C 
ATOM     11  N   UNL A   1      29.889 -31.600 -29.378  0.00  0.00    +0.433 N 
ATOM     12  C   UNL A   1      29.872 -30.697 -28.164  0.00  0.00    -0.060 C 
ATOM     13  O   UNL A   1      28.626 -32.113 -29.516  0.00  0.00    -0.289 OA
ATOM     14  C   UNL A   1      31.037 -32.689 -29.281  0.00  0.00    +0.039 C 
ATOM     15  N   UNL A   1      30.800 -34.188 -29.066  0.00  0.00    -0.341 N 
ATOM     16  C   UNL A   1      30.398 -34.715 -27.776  0.00  0.00    -0.001 C 
ENDROOT
BRANCH   1  17
ATOM     17  O   UNL A   1      35.357 -35.449 -32.001  0.00  0.00    -0.411 OA
BRANCH  17  19
ATOM     18  N   UNL A   1      37.339 -36.569 -31.473  0.00  0.00    -0.250 N 
ATOM     19  C   UNL A   1      36.665 -35.367 -31.478  0.00  0.00    +0.410 C 
ATOM     20  O   UNL A   1      37.072 -34.283 -31.081  0.00  0.00    -0.226 OA
ATOM     21  H   UNL A   1      36.868 -37.328 -31.887  0.00  0.00    +0.000 HD
BRANCH  18  29
ATOM     22  C   UNL A   1      39.956 -35.906 -32.956  0.00  0.00    -0.038 C 
ATOM     23  C   UNL A   1      39.839 -36.493 -31.575  0.00  0.00    -0.029 A 
ATOM     24  C   UNL A   1      41.056 -36.748 -30.913  0.00  0.00    -0.057 A 
ATOM     25  C   UNL A   1      41.091 -37.405 -29.688  0.00  0.00    -0.061 A 
ATOM     26  C   UNL A   1      39.905 -37.832 -29.108  0.00  0.00    -0.057 A 
ATOM     27  C   UNL A   1      38.669 -37.573 -29.726  0.00  0.00    -0.029 A 
ATOM     28  C   UNL A   1      37.426 -38.040 -29.011  0.00  0.00    -0.038 C 
ATOM     29  C   UNL A   1      38.625 -36.851 -30.948  0.00  0.00    +0.042 A 
ENDBRANCH  18  29
ENDBRANCH  17  19
ENDBRANCH   1  17
TORSDOF 3
ENDMDL
MODEL 3
REMARK VINA RESULT:    -8.460      1.966      2.839
REMARK INTER + INTRA:         -10.424
REMARK INTER:                  -9.867
REMARK INTRA:                  -0.556
REMARK UNBOUND:                -0.480
REMARK  Name = cpd255.pdb
REMARK  8 active torsions:
REMARK  status: ('A' for Active; 'I' for Inactive)
REMARK    1  A    between atoms: C_1  and  C_2
REMARK    2  A    between atoms: C_6  and  C_7
REMARK    3  A    between atoms: C_8  and  N_9
REMARK    4  A    between atoms: C_10  and  O_12
REMARK    5  A    between atoms: O_12  and  C_13
REMARK    6  A    between atoms: C_19  and  C_20
REMARK    7  A    between atoms: N_23  and  C_24
REMARK    8  A    between atoms: N_27  and  C_28
REMARK                            x       y       z     vdW  Elec       q    Type
REMARK                         _______ _______ _______ _____ _____    ______ ____
ROOT
ATOM      1  C   UNL A   1      34.926 -36.658 -29.958  0.00  0.00    +0.134 A 
ATOM      2  C   UNL A   1      34.327 -37.416 -30.982  0.00  0.00    -0.017 A 
ATOM      3  C   UNL A   1      33.318 -36.857 -31.769  0.00  0.00    -0.037 A 
ATOM      4  C   UNL A   1      32.899 -35.574 -31.477  0.00  0.00    +0.032 A 
ATOM      5  C   UNL A   1      33.505 -34.838 -30.433  0.00  0.00    -0.017 A 
ATOM      6  C   UNL A   1      34.520 -35.359 -29.658  0.00  0.00    -0.014 A 
ATOM      7  C   UNL A   1      32.848 -33.491 -30.453  0.00  0.00    +0.002 C 
ATOM      8  C   UNL A   1      33.638 -32.602 -31.451  0.00  0.00    -0.055 C 
ATOM      9  C   UNL A   1      32.508 -32.734 -29.199  0.00  0.00    -0.054 C 
ATOM     10  C   UNL A   1      31.364 -31.865 -29.706  0.00  0.00    -0.048 C 
ATOM     11  N   UNL A   1      30.680 -32.636 -30.854  0.00  0.00    +0.433 N 
ATOM     12  C   UNL A   1      29.206 -32.729 -30.526  0.00  0.00    -0.060 C 
ATOM     13  O   UNL A   1      30.784 -31.962 -32.043  0.00  0.00    -0.289 OA
ATOM     14  C   UNL A   1      31.374 -34.061 -30.840  0.00  0.00    +0.039 C 
ATOM     15  N   UNL A   1      31.881 -34.795 -32.086  0.00  0.00    -0.341 N 
ATOM     16  C   UNL A   1      30.967 -35.418 -33.024  0.00  0.00    -0.001 C 
ENDROOT
BRANCH   1  17
ATOM     17  O   UNL A   1      35.935 -37.224 -29.146  0.00  0.00    -0.411 OA
BRANCH  17  19
ATOM     18  N   UNL A   1      38.162 -36.879 -29.764  0.00  0.00    -0.250 N 
ATOM     19  C   UNL A   1      37.125 -37.781 -29.659  0.00  0.00    +0.410 C 
ATOM     20  O   UNL A   1      37.135 -38.966 -29.965  0.00  0.00    -0.226 OA
ATOM     21  H   UNL A   1      37.984 -35.976 -29.416  0.00  0.00    +0.000 HD
BRANCH  18  29
ATOM     22  C   UNL A   1      40.413 -38.359 -28.271  0.00  0.00    -0.038 C 
ATOM     23  C   UNL A   1      40.478 -37.823 -29.676  0.00  0.00    -0.029 A 
ATOM     24  C   UNL A   1      41.693 -38.038 -30.358  0.00  0.00    -0.057 A 
ATOM     25  C   UNL A   1      41.928 -37.484 -31.611  0.00  0.00    -0.061 A 
ATOM     26  C   UNL A   1      40.955 -36.691 -32.201  0.00  0.00    -0.057 A 
ATOM     27  C   UNL A   1      39.721 -36.475 -31.564  0.00  0.00    -0.029 A 
ATOM     28  C   UNL A   1      38.704 -35.630 -32.290  0.00  0.00    -0.038 C 
ATOM     29  C   UNL A   1      39.453 -37.087 -30.310  0.00  0.00    +0.042 A 
ENDBRANCH  18  29
ENDBRANCH  17  19
ENDBRANCH   1  17
TORSDOF 3
ENDMDL
MODEL 4
REMARK VINA RESULT:    -8.339      2.429      3.709
REMARK INTER + INTRA:         -10.281
REMARK INTER:                  -9.692
REMARK INTRA:                  -0.589
REMARK UNBOUND:                -0.480
REMARK  Name = cpd255.pdb
REMARK  8 active torsions:
REMARK  status: ('A' for Active; 'I' for Inactive)
REMARK    1  A    between atoms: C_1  and  C_2
REMARK    2  A    between atoms: C_6  and  C_7
REMARK    3  A    between atoms: C_8  and  N_9
REMARK    4  A    between atoms: C_10  and  O_12
REMARK    5  A    between atoms: O_12  and  C_13
REMARK    6  A    between atoms: C_19  and  C_20
REMARK    7  A    between atoms: N_23  and  C_24
REMARK    8  A    between atoms: N_27  and  C_28
REMARK                            x       y       z     vdW  Elec       q    Type
REMARK                         _______ _______ _______ _____ _____    ______ ____
ROOT
ATOM      1  C   UNL A   1      34.903 -38.030 -27.986  0.00  0.00    +0.134 A 
ATOM      2  C   UNL A   1      34.391 -37.394 -26.839  0.00  0.00    -0.017 A 
ATOM      3  C   UNL A   1      33.518 -36.312 -26.970  0.00  0.00    -0.037 A 
ATOM      4  C   UNL A   1      33.224 -35.861 -28.243  0.00  0.00    +0.032 A 
ATOM      5  C   UNL A   1      33.765 -36.508 -29.378  0.00  0.00    -0.017 A 
ATOM      6  C   UNL A   1      34.608 -37.594 -29.276  0.00  0.00    -0.014 A 
ATOM      7  C   UNL A   1      33.184 -35.797 -30.563  0.00  0.00    +0.002 C 
ATOM      8  C   UNL A   1      31.831 -36.479 -30.899  0.00  0.00    -0.055 C 
ATOM      9  C   UNL A   1      33.977 -35.513 -31.809  0.00  0.00    -0.054 C 
ATOM     10  C   UNL A   1      33.222 -34.302 -32.343  0.00  0.00    -0.048 C 
ATOM     11  N   UNL A   1      32.611 -33.572 -31.129  0.00  0.00    +0.433 N 
ATOM     12  C   UNL A   1      33.063 -32.130 -31.190  0.00  0.00    -0.060 C 
ATOM     13  O   UNL A   1      31.242 -33.567 -31.183  0.00  0.00    -0.289 OA
ATOM     14  C   UNL A   1      33.220 -34.324 -29.873  0.00  0.00    +0.039 C 
ATOM     15  N   UNL A   1      32.410 -34.773 -28.651  0.00  0.00    -0.341 N 
ATOM     16  C   UNL A   1      31.937 -33.822 -27.663  0.00  0.00    -0.001 C 
ENDROOT
BRANCH   1  17
ATOM     17  O   UNL A   1      35.801 -39.115 -27.859  0.00  0.00    -0.411 OA
BRANCH  17  19
ATOM     18  N   UNL A   1      37.638 -37.956 -28.720  0.00  0.00    -0.250 N 
ATOM     19  C   UNL A   1      37.039 -39.183 -28.531  0.00  0.00    +0.410 C 
ATOM     20  O   UNL A   1      37.457 -40.278 -28.884  0.00  0.00    -0.226 OA
ATOM     21  H   UNL A   1      37.176 -37.185 -28.316  0.00  0.00    +0.000 HD
BRANCH  18  29
ATOM     22  C   UNL A   1      40.435 -38.757 -27.709  0.00  0.00    -0.038 C 
ATOM     23  C   UNL A   1      40.120 -38.080 -29.016  0.00  0.00    -0.029 A 
ATOM     24  C   UNL A   1      41.226 -37.804 -29.844  0.00  0.00    -0.057 A 
ATOM     25  C   UNL A   1      41.087 -37.070 -31.017  0.00  0.00    -0.061 A 
ATOM     26  C   UNL A   1      39.838 -36.586 -31.376  0.00  0.00    -0.057 A 
ATOM     27  C   UNL A   1      38.707 -36.863 -30.589  0.00  0.00    -0.029 A 
ATOM     28  C   UNL A   1      37.380 -36.330 -31.070  0.00  0.00    -0.038 C 
ATOM     29  C   UNL A   1      38.833 -37.662 -29.422  0.00  0.00    +0.042 A 
ENDBRANCH  18  29
ENDBRANCH  17  19
ENDBRANCH   1  17
TORSDOF 3
ENDMDL
MODEL 5
REMARK VINA RESULT:    -8.137      1.827      3.259
REMARK INTER + INTRA:         -10.044
REMARK INTER:                  -9.762
REMARK INTRA:                  -0.282
REMARK UNBOUND:                -0.480
REMARK  Name = cpd255.pdb
REMARK  8 active torsions:
REMARK  status: ('A' for Active; 'I' for Inactive)
REMARK    1  A    between atoms: C_1  and  C_2
REMARK    2  A    between atoms: C_6  and  C_7
REMARK    3  A    between atoms: C_8  and  N_9
REMARK    4  A    between atoms: C_10  and  O_12
REMARK    5  A    between atoms: O_12  and  C_13
REMARK    6  A    between atoms: C_19  and  C_20
REMARK    7  A    between atoms: N_23  and  C_24
REMARK    8  A    between atoms: N_27  and  C_28
REMARK                            x       y       z     vdW  Elec       q    Type
REMARK                         _______ _______ _______ _____ _____    ______ ____
ROOT
ATOM      1  C   UNL A   1      34.150 -34.134 -31.287  0.00  0.00    +0.134 A 
ATOM      2  C   UNL A   1      34.239 -32.780 -31.662  0.00  0.00    -0.017 A 
ATOM      3  C   UNL A   1      33.287 -31.864 -31.211  0.00  0.00    -0.037 A 
ATOM      4  C   UNL A   1      32.241 -32.336 -30.441  0.00  0.00    +0.032 A 
ATOM      5  C   UNL A   1      32.165 -33.704 -30.091  0.00  0.00    -0.017 A 
ATOM      6  C   UNL A   1      33.107 -34.623 -30.503  0.00  0.00    -0.014 A 
ATOM      7  C   UNL A   1      30.956 -33.830 -29.213  0.00  0.00    +0.002 C 
ATOM      8  C   UNL A   1      31.408 -33.547 -27.755  0.00  0.00    -0.055 C 
ATOM      9  C   UNL A   1      30.025 -35.008 -29.278  0.00  0.00    -0.054 C 
ATOM     10  C   UNL A   1      28.745 -34.374 -28.747  0.00  0.00    -0.048 C 
ATOM     11  N   UNL A   1      28.795 -32.875 -29.107  0.00  0.00    +0.433 N 
ATOM     12  C   UNL A   1      27.524 -32.543 -29.858  0.00  0.00    -0.060 C 
ATOM     13  O   UNL A   1      28.814 -32.089 -27.984  0.00  0.00    -0.289 OA
ATOM     14  C   UNL A   1      30.074 -32.735 -30.033  0.00  0.00    +0.039 C 
ATOM     15  N   UNL A   1      31.135 -31.637 -29.894  0.00  0.00    -0.341 N 
ATOM     16  C   UNL A   1      30.872 -30.272 -30.309  0.00  0.00    -0.001 C 
ENDROOT
BRANCH   1  17
ATOM     17  O   UNL A   1      35.101 -35.069 -31.754  0.00  0.00    -0.411 OA
BRANCH  17  19
ATOM     18  N   UNL A   1      37.008 -36.345 -31.312  0.00  0.00    -0.250 N 
ATOM     19  C   UNL A   1      36.447 -35.086 -31.334  0.00  0.00    +0.410 C 
ATOM     20  O   UNL A   1      36.980 -34.028 -31.028  0.00  0.00    -0.226 OA
ATOM     21  H   UNL A   1      36.439 -37.075 -31.647  0.00  0.00    +0.000 HD
BRANCH  18  29
ATOM     22  C   UNL A   1      39.553 -35.992 -33.010  0.00  0.00    -0.038 C 
ATOM     23  C   UNL A   1      39.489 -36.505 -31.597  0.00  0.00    -0.029 A 
ATOM     24  C   UNL A   1      40.726 -36.842 -31.012  0.00  0.00    -0.057 A 
ATOM     25  C   UNL A   1      40.796 -37.446 -29.761  0.00  0.00    -0.061 A 
ATOM     26  C   UNL A   1      39.625 -37.736 -29.077  0.00  0.00    -0.057 A 
ATOM     27  C   UNL A   1      38.373 -37.391 -29.616  0.00  0.00    -0.029 A 
ATOM     28  C   UNL A   1      37.151 -37.709 -28.792  0.00  0.00    -0.038 C 
ATOM     29  C   UNL A   1      38.300 -36.722 -30.867  0.00  0.00    +0.042 A 
ENDBRANCH  18  29
ENDBRANCH  17  19
ENDBRANCH   1  17
TORSDOF 3
ENDMDL
MODEL 6
REMARK VINA RESULT:    -7.924      2.537      4.358
REMARK INTER + INTRA:          -9.794
REMARK INTER:                  -9.371
REMARK INTRA:                  -0.423
REMARK UNBOUND:                -0.480
REMARK  Name = cpd255.pdb
REMARK  8 active torsions:
REMARK  status: ('A' for Active; 'I' for Inactive)
REMARK    1  A    between atoms: C_1  and  C_2
REMARK    2  A    between atoms: C_6  and  C_7
REMARK    3  A    between atoms: C_8  and  N_9
REMARK    4  A    between atoms: C_10  and  O_12
REMARK    5  A    between atoms: O_12  and  C_13
REMARK    6  A    between atoms: C_19  and  C_20
REMARK    7  A    between atoms: N_23  and  C_24
REMARK    8  A    between atoms: N_27  and  C_28
REMARK                            x       y       z     vdW  Elec       q    Type
REMARK                         _______ _______ _______ _____ _____    ______ ____
ROOT
ATOM      1  C   UNL A   1      33.323 -33.938 -31.425  0.00  0.00    +0.134 A 
ATOM      2  C   UNL A   1      33.727 -33.140 -30.337  0.00  0.00    -0.017 A 
ATOM      3  C   UNL A   1      32.810 -32.296 -29.708  0.00  0.00    -0.037 A 
ATOM      4  C   UNL A   1      31.527 -32.232 -30.218  0.00  0.00    +0.032 A 
ATOM      5  C   UNL A   1      31.150 -33.032 -31.321  0.00  0.00    -0.017 A 
ATOM      6  C   UNL A   1      32.030 -33.891 -31.943  0.00  0.00    -0.014 A 
ATOM      7  C   UNL A   1      29.695 -32.749 -31.546  0.00  0.00    +0.002 C 
ATOM      8  C   UNL A   1      28.886 -33.722 -30.647  0.00  0.00    -0.055 C 
ATOM      9  C   UNL A   1      29.091 -32.644 -32.919  0.00  0.00    -0.054 C 
ATOM     10  C   UNL A   1      27.889 -31.756 -32.622  0.00  0.00    -0.048 C 
ATOM     11  N   UNL A   1      28.263 -30.870 -31.416  0.00  0.00    +0.433 N 
ATOM     12  C   UNL A   1      28.031 -29.431 -31.818  0.00  0.00    -0.060 C 
ATOM     13  O   UNL A   1      27.454 -31.122 -30.339  0.00  0.00    -0.289 OA
ATOM     14  C   UNL A   1      29.800 -31.169 -31.171  0.00  0.00    +0.039 C 
ATOM     15  N   UNL A   1      30.427 -31.440 -29.798  0.00  0.00    -0.341 N 
ATOM     16  C   UNL A   1      30.636 -30.376 -28.836  0.00  0.00    -0.001 C 
ENDROOT
BRANCH   1  17
ATOM     17  O   UNL A   1      34.251 -34.781 -32.077  0.00  0.00    -0.411 OA
BRANCH  17  19
ATOM     18  N   UNL A   1      36.068 -35.448 -30.767  0.00  0.00    -0.250 N 
ATOM     19  C   UNL A   1      34.926 -35.839 -31.434  0.00  0.00    +0.410 C 
ATOM     20  O   UNL A   1      34.468 -36.970 -31.525  0.00  0.00    -0.226 OA
ATOM     21  H   UNL A   1      36.250 -34.481 -30.758  0.00  0.00    +0.000 HD
BRANCH  18  29
ATOM     22  C   UNL A   1      35.553 -36.706 -28.003  0.00  0.00    -0.038 C 
ATOM     23  C   UNL A   1      36.773 -36.907 -28.860  0.00  0.00    -0.029 A 
ATOM     24  C   UNL A   1      37.758 -37.765 -28.330  0.00  0.00    -0.057 A 
ATOM     25  C   UNL A   1      38.985 -37.935 -28.961  0.00  0.00    -0.061 A 
ATOM     26  C   UNL A   1      39.256 -37.239 -30.130  0.00  0.00    -0.057 A 
ATOM     27  C   UNL A   1      38.288 -36.394 -30.703  0.00  0.00    -0.029 A 
ATOM     28  C   UNL A   1      38.649 -35.702 -31.993  0.00  0.00    -0.038 C 
ATOM     29  C   UNL A   1      37.012 -36.262 -30.094  0.00  0.00    +0.042 A 
ENDBRANCH  18  29
ENDBRANCH  17  19
ENDBRANCH   1  17
TORSDOF 3
ENDMDL
MODEL 7
REMARK VINA RESULT:    -7.801     15.995     18.940
REMARK INTER + INTRA:          -9.649
REMARK INTER:                  -8.950
REMARK INTRA:                  -0.699
REMARK UNBOUND:                -0.480
REMARK  Name = cpd255.pdb
REMARK  8 active torsions:
REMARK  status: ('A' for Active; 'I' for Inactive)
REMARK    1  A    between atoms: C_1  and  C_2
REMARK    2  A    between atoms: C_6  and  C_7
REMARK    3  A    between atoms: C_8  and  N_9
REMARK    4  A    between atoms: C_10  and  O_12
REMARK    5  A    between atoms: O_12  and  C_13
REMARK    6  A    between atoms: C_19  and  C_20
REMARK    7  A    between atoms: N_23  and  C_24
REMARK    8  A    between atoms: N_27  and  C_28
REMARK                            x       y       z     vdW  Elec       q    Type
REMARK                         _______ _______ _______ _____ _____    ______ ____
ROOT
ATOM      1  C   UNL A   1      41.553 -22.098 -38.983  0.00  0.00    +0.134 A 
ATOM      2  C   UNL A   1      41.281 -22.149 -40.363  0.00  0.00    -0.017 A 
ATOM      3  C   UNL A   1      42.223 -21.679 -41.281  0.00  0.00    -0.037 A 
ATOM      4  C   UNL A   1      43.388 -21.122 -40.790  0.00  0.00    +0.032 A 
ATOM      5  C   UNL A   1      43.631 -21.068 -39.398  0.00  0.00    -0.017 A 
ATOM      6  C   UNL A   1      42.727 -21.548 -38.474  0.00  0.00    -0.014 A 
ATOM      7  C   UNL A   1      44.997 -20.468 -39.249  0.00  0.00    +0.002 C 
ATOM      8  C   UNL A   1      46.025 -21.629 -39.318  0.00  0.00    -0.055 C 
ATOM      9  C   UNL A   1      45.342 -19.497 -38.155  0.00  0.00    -0.054 C 
ATOM     10  C   UNL A   1      46.502 -18.753 -38.806  0.00  0.00    -0.048 C 
ATOM     11  N   UNL A   1      46.274 -18.797 -40.331  0.00  0.00    +0.433 N 
ATOM     12  C   UNL A   1      46.316 -17.373 -40.839  0.00  0.00    -0.060 C 
ATOM     13  O   UNL A   1      47.276 -19.481 -40.968  0.00  0.00    -0.289 OA
ATOM     14  C   UNL A   1      44.832 -19.434 -40.494  0.00  0.00    +0.039 C 
ATOM     15  N   UNL A   1      44.477 -20.543 -41.491  0.00  0.00    -0.341 N 
ATOM     16  C   UNL A   1      44.355 -20.275 -42.912  0.00  0.00    -0.001 C 
ENDROOT
BRANCH   1  17
ATOM     17  O   UNL A   1      40.596 -22.557 -38.049  0.00  0.00    -0.411 OA
BRANCH  17  19
ATOM     18  N   UNL A   1      40.448 -21.089 -36.236  0.00  0.00    -0.250 N 
ATOM     19  C   UNL A   1      40.719 -22.374 -36.656  0.00  0.00    +0.410 C 
ATOM     20  O   UNL A   1      41.051 -23.328 -35.965  0.00  0.00    -0.226 OA
ATOM     21  H   UNL A   1      40.140 -20.465 -36.933  0.00  0.00    +0.000 HD
BRANCH  18  29
ATOM     22  C   UNL A   1      43.129 -20.283 -34.953  0.00  0.00    -0.038 C 
ATOM     23  C   UNL A   1      41.763 -20.109 -34.346  0.00  0.00    -0.029 A 
ATOM     24  C   UNL A   1      41.732 -19.510 -33.071  0.00  0.00    -0.057 A 
ATOM     25  C   UNL A   1      40.549 -19.408 -32.348  0.00  0.00    -0.061 A 
ATOM     26  C   UNL A   1      39.374 -19.917 -32.882  0.00  0.00    -0.057 A 
ATOM     27  C   UNL A   1      39.361 -20.498 -34.162  0.00  0.00    -0.029 A 
ATOM     28  C   UNL A   1      38.036 -20.995 -34.685  0.00  0.00    -0.038 C 
ATOM     29  C   UNL A   1      40.555 -20.552 -34.930  0.00  0.00    +0.042 A 
ENDBRANCH  18  29
ENDBRANCH  17  19
ENDBRANCH   1  17
TORSDOF 3
ENDMDL
MODEL 8
REMARK VINA RESULT:    -7.793     15.846     17.778
REMARK INTER + INTRA:          -9.640
REMARK INTER:                  -9.171
REMARK INTRA:                  -0.469
REMARK UNBOUND:                -0.480
REMARK  Name = cpd255.pdb
REMARK  8 active torsions:
REMARK  status: ('A' for Active; 'I' for Inactive)
REMARK    1  A    between atoms: C_1  and  C_2
REMARK    2  A    between atoms: C_6  and  C_7
REMARK    3  A    between atoms: C_8  and  N_9
REMARK    4  A    between atoms: C_10  and  O_12
REMARK    5  A    between atoms: O_12  and  C_13
REMARK    6  A    between atoms: C_19  and  C_20
REMARK    7  A    between atoms: N_23  and  C_24
REMARK    8  A    between atoms: N_27  and  C_28
REMARK                            x       y       z     vdW  Elec       q    Type
REMARK                         _______ _______ _______ _____ _____    ______ ____
ROOT
ATOM      1  C   UNL A   1      45.246 -20.048 -36.316  0.00  0.00    +0.134 A 
ATOM      2  C   UNL A   1      45.341 -20.076 -34.912  0.00  0.00    -0.017 A 
ATOM      3  C   UNL A   1      44.206 -20.327 -34.138  0.00  0.00    -0.037 A 
ATOM      4  C   UNL A   1      42.997 -20.489 -34.787  0.00  0.00    +0.032 A 
ATOM      5  C   UNL A   1      42.925 -20.440 -36.199  0.00  0.00    -0.017 A 
ATOM      6  C   UNL A   1      44.035 -20.219 -36.986  0.00  0.00    -0.014 A 
ATOM      7  C   UNL A   1      41.492 -20.718 -36.540  0.00  0.00    +0.002 C 
ATOM      8  C   UNL A   1      41.329 -22.257 -36.650  0.00  0.00    -0.055 C 
ATOM      9  C   UNL A   1      40.771 -20.011 -37.655  0.00  0.00    -0.054 C 
ATOM     10  C   UNL A   1      39.332 -20.136 -37.172  0.00  0.00    -0.048 C 
ATOM     11  N   UNL A   1      39.371 -20.199 -35.631  0.00  0.00    +0.433 N 
ATOM     12  C   UNL A   1      38.453 -19.116 -35.107  0.00  0.00    -0.060 C 
ATOM     13  O   UNL A   1      38.889 -21.394 -35.165  0.00  0.00    -0.289 OA
ATOM     14  C   UNL A   1      40.886 -19.910 -35.265  0.00  0.00    +0.039 C 
ATOM     15  N   UNL A   1      41.704 -20.713 -34.247  0.00  0.00    -0.341 N 
ATOM     16  C   UNL A   1      41.489 -20.571 -32.820  0.00  0.00    -0.001 C 
ENDROOT
BRANCH   1  17
ATOM     17  O   UNL A   1      46.388 -19.777 -37.105  0.00  0.00    -0.411 OA
BRANCH  17  19
ATOM     18  N   UNL A   1      46.156 -21.210 -38.936  0.00  0.00    -0.250 N 
ATOM     19  C   UNL A   1      46.419 -19.927 -38.507  0.00  0.00    +0.410 C 
ATOM     20  O   UNL A   1      46.675 -18.949 -39.196  0.00  0.00    -0.226 OA
ATOM     21  H   UNL A   1      45.916 -21.858 -38.234  0.00  0.00    +0.000 HD
BRANCH  18  29
ATOM     22  C   UNL A   1      48.671 -22.443 -40.217  0.00  0.00    -0.038 C 
ATOM     23  C   UNL A   1      47.306 -22.350 -40.844  0.00  0.00    -0.029 A 
ATOM     24  C   UNL A   1      47.189 -22.893 -42.139  0.00  0.00    -0.057 A 
ATOM     25  C   UNL A   1      46.020 -22.758 -42.879  0.00  0.00    -0.061 A 
ATOM     26  C   UNL A   1      44.947 -22.063 -42.340  0.00  0.00    -0.057 A 
ATOM     27  C   UNL A   1      45.016 -21.530 -41.041  0.00  0.00    -0.029 A 
ATOM     28  C   UNL A   1      43.793 -20.820 -40.516  0.00  0.00    -0.038 C 
ATOM     29  C   UNL A   1      46.188 -21.716 -40.259  0.00  0.00    +0.042 A 
ENDBRANCH  18  29
ENDBRANCH  17  19
ENDBRANCH   1  17
TORSDOF 3
ENDMDL
MODEL 9
REMARK VINA RESULT:    -7.722      2.766      4.639
REMARK INTER + INTRA:          -9.556
REMARK INTER:                  -8.991
REMARK INTRA:                  -0.565
REMARK UNBOUND:                -0.480
REMARK  Name = cpd255.pdb
REMARK  8 active torsions:
REMARK  status: ('A' for Active; 'I' for Inactive)
REMARK    1  A    between atoms: C_1  and  C_2
REMARK    2  A    between atoms: C_6  and  C_7
REMARK    3  A    between atoms: C_8  and  N_9
REMARK    4  A    between atoms: C_10  and  O_12
REMARK    5  A    between atoms: O_12  and  C_13
REMARK    6  A    between atoms: C_19  and  C_20
REMARK    7  A    between atoms: N_23  and  C_24
REMARK    8  A    between atoms: N_27  and  C_28
REMARK                            x       y       z     vdW  Elec       q    Type
REMARK                         _______ _______ _______ _____ _____    ______ ____
ROOT
ATOM      1  C   UNL A   1      33.147 -33.017 -31.474  0.00  0.00    +0.134 A 
ATOM      2  C   UNL A   1      33.463 -31.964 -30.595  0.00  0.00    -0.017 A 
ATOM      3  C   UNL A   1      32.443 -31.258 -29.952  0.00  0.00    -0.037 A 
ATOM      4  C   UNL A   1      31.135 -31.590 -30.247  0.00  0.00    +0.032 A 
ATOM      5  C   UNL A   1      30.843 -32.642 -31.146  0.00  0.00    -0.017 A 
ATOM      6  C   UNL A   1      31.832 -33.369 -31.774  0.00  0.00    -0.014 A 
ATOM      7  C   UNL A   1      29.348 -32.753 -31.167  0.00  0.00    +0.002 C 
ATOM      8  C   UNL A   1      28.936 -33.709 -30.016  0.00  0.00    -0.055 C 
ATOM      9  C   UNL A   1      28.574 -33.043 -32.423  0.00  0.00    -0.054 C 
ATOM     10  C   UNL A   1      27.229 -32.422 -32.064  0.00  0.00    -0.048 C 
ATOM     11  N   UNL A   1      27.508 -31.270 -31.076  0.00  0.00    +0.433 N 
ATOM     12  C   UNL A   1      26.864 -30.022 -31.638  0.00  0.00    -0.060 C 
ATOM     13  O   UNL A   1      26.930 -31.505 -29.856  0.00  0.00    -0.289 OA
ATOM     14  C   UNL A   1      29.088 -31.151 -31.047  0.00  0.00    +0.039 C 
ATOM     15  N   UNL A   1      29.928 -31.015 -29.771  0.00  0.00    -0.341 N 
ATOM     16  C   UNL A   1      29.972 -29.775 -29.021  0.00  0.00    -0.001 C 
ENDROOT
BRANCH   1  17
ATOM     17  O   UNL A   1      34.174 -33.724 -32.141  0.00  0.00    -0.411 OA
BRANCH  17  19
ATOM     18  N   UNL A   1      35.623 -34.803 -30.660  0.00  0.00    -0.250 N 
ATOM     19  C   UNL A   1      34.705 -34.945 -31.678  0.00  0.00    +0.410 C 
ATOM     20  O   UNL A   1      34.330 -35.985 -32.202  0.00  0.00    -0.226 OA
ATOM     21  H   UNL A   1      35.759 -33.886 -30.327  0.00  0.00    +0.000 HD
BRANCH  18  29
ATOM     22  C   UNL A   1      38.289 -35.847 -31.796  0.00  0.00    -0.038 C 
ATOM     23  C   UNL A   1      37.656 -36.253 -30.492  0.00  0.00    -0.029 A 
ATOM     24  C   UNL A   1      38.374 -37.198 -29.732  0.00  0.00    -0.057 A 
ATOM     25  C   UNL A   1      37.840 -37.751 -28.573  0.00  0.00    -0.061 A 
ATOM     26  C   UNL A   1      36.570 -37.379 -28.161  0.00  0.00    -0.057 A 
ATOM     27  C   UNL A   1      35.833 -36.420 -28.879  0.00  0.00    -0.029 A 
ATOM     28  C   UNL A   1      34.474 -36.045 -28.342  0.00  0.00    -0.038 C 
ATOM     29  C   UNL A   1      36.398 -35.809 -30.030  0.00  0.00    +0.042 A 
ENDBRANCH  18  29
ENDBRANCH  17  19
ENDBRANCH   1  17
TORSDOF 3
ENDMDL
MODEL 10
REMARK VINA RESULT:    -7.707     15.331     18.743
REMARK INTER + INTRA:          -9.538
REMARK INTER:                  -9.060
REMARK INTRA:                  -0.478
REMARK UNBOUND:                -0.480
REMARK  Name = cpd255.pdb
REMARK  8 active torsions:
REMARK  status: ('A' for Active; 'I' for Inactive)
REMARK    1  A    between atoms: C_1  and  C_2
REMARK    2  A    between atoms: C_6  and  C_7
REMARK    3  A    between atoms: C_8  and  N_9
REMARK    4  A    between atoms: C_10  and  O_12
REMARK    5  A    between atoms: O_12  and  C_13
REMARK    6  A    between atoms: C_19  and  C_20
REMARK    7  A    between atoms: N_23  and  C_24
REMARK    8  A    between atoms: N_27  and  C_28
REMARK                            x       y       z     vdW  Elec       q    Type
REMARK                         _______ _______ _______ _____ _____    ______ ____
ROOT
ATOM      1  C   UNL A   1      42.059 -21.568 -38.270  0.00  0.00    +0.134 A 
ATOM      2  C   UNL A   1      42.802 -20.996 -37.220  0.00  0.00    -0.017 A 
ATOM      3  C   UNL A   1      44.054 -20.433 -37.474  0.00  0.00    -0.037 A 
ATOM      4  C   UNL A   1      44.553 -20.507 -38.761  0.00  0.00    +0.032 A 
ATOM      5  C   UNL A   1      43.794 -21.102 -39.795  0.00  0.00    -0.017 A 
ATOM      6  C   UNL A   1      42.545 -21.641 -39.575  0.00  0.00    -0.014 A 
ATOM      7  C   UNL A   1      44.613 -20.942 -41.040  0.00  0.00    +0.002 C 
ATOM      8  C   UNL A   1      44.257 -19.564 -41.659  0.00  0.00    -0.055 C 
ATOM      9  C   UNL A   1      44.701 -22.009 -42.096  0.00  0.00    -0.054 C 
ATOM     10  C   UNL A   1      46.050 -21.668 -42.717  0.00  0.00    -0.048 C 
ATOM     11  N   UNL A   1      46.906 -21.009 -41.616  0.00  0.00    +0.433 N 
ATOM     12  C   UNL A   1      48.207 -21.777 -41.530  0.00  0.00    -0.060 C 
ATOM     13  O   UNL A   1      47.224 -19.715 -41.935  0.00  0.00    -0.289 OA
ATOM     14  C   UNL A   1      46.042 -21.172 -40.297  0.00  0.00    +0.039 C 
ATOM     15  N   UNL A   1      45.797 -20.056 -39.275  0.00  0.00    -0.341 N 
ATOM     16  C   UNL A   1      46.836 -19.623 -38.360  0.00  0.00    -0.001 C 
ENDROOT
BRANCH   1  17
ATOM     17  O   UNL A   1      40.798 -22.155 -38.016  0.00  0.00    -0.411 OA
BRANCH  17  19
ATOM     18  N   UNL A   1      39.936 -22.080 -35.846  0.00  0.00    -0.250 N 
ATOM     19  C   UNL A   1      39.846 -21.601 -37.135  0.00  0.00    +0.410 C 
ATOM     20  O   UNL A   1      39.046 -20.784 -37.572  0.00  0.00    -0.226 OA
ATOM     21  H   UNL A   1      40.682 -22.697 -35.667  0.00  0.00    +0.000 HD
BRANCH  18  29
ATOM     22  C   UNL A   1      40.074 -19.459 -34.234  0.00  0.00    -0.038 C 
ATOM     23  C   UNL A   1      39.085 -20.577 -34.035  0.00  0.00    -0.029 A 
ATOM     24  C   UNL A   1      38.136 -20.379 -33.013  0.00  0.00    -0.057 A 
ATOM     25  C   UNL A   1      37.250 -21.384 -32.642  0.00  0.00    -0.061 A 
ATOM     26  C   UNL A   1      37.307 -22.614 -33.281  0.00  0.00    -0.057 A 
ATOM     27  C   UNL A   1      38.223 -22.841 -34.323  0.00  0.00    -0.029 A 
ATOM     28  C   UNL A   1      38.195 -24.194 -34.988  0.00  0.00    -0.038 C 
ATOM     29  C   UNL A   1      39.090 -21.798 -34.744  0.00  0.00    +0.042 A 
ENDBRANCH  18  29
ENDBRANCH  17  19
ENDBRANCH   1  17
TORSDOF 3
ENDMDL
MODEL 11
REMARK VINA RESULT:    -7.702     15.488     18.594
REMARK INTER + INTRA:          -9.532
REMARK INTER:                  -8.960
REMARK INTRA:                  -0.572
REMARK UNBOUND:                -0.480
REMARK  Name = cpd255.pdb
REMARK  8 active torsions:
REMARK  status: ('A' for Active; 'I' for Inactive)
REMARK    1  A    between atoms: C_1  and  C_2
REMARK    2  A    between atoms: C_6  and  C_7
REMARK    3  A    between atoms: C_8  and  N_9
REMARK    4  A    between atoms: C_10  and  O_12
REMARK    5  A    between atoms: O_12  and  C_13
REMARK    6  A    between atoms: C_19  and  C_20
REMARK    7  A    between atoms: N_23  and  C_24
REMARK    8  A    between atoms: N_27  and  C_28
REMARK                            x       y       z     vdW  Elec       q    Type
REMARK                         _______ _______ _______ _____ _____    ______ ____
ROOT
ATOM      1  C   UNL A   1      41.647 -22.222 -38.713  0.00  0.00    +0.134 A 
ATOM      2  C   UNL A   1      41.370 -22.242 -40.093  0.00  0.00    -0.017 A 
ATOM      3  C   UNL A   1      42.244 -21.627 -40.992  0.00  0.00    -0.037 A 
ATOM      4  C   UNL A   1      43.342 -20.962 -40.482  0.00  0.00    +0.032 A 
ATOM      5  C   UNL A   1      43.589 -20.942 -39.090  0.00  0.00    -0.017 A 
ATOM      6  C   UNL A   1      42.756 -21.563 -38.184  0.00  0.00    -0.014 A 
ATOM      7  C   UNL A   1      44.879 -20.197 -38.919  0.00  0.00    +0.002 C 
ATOM      8  C   UNL A   1      46.033 -21.228 -39.044  0.00  0.00    -0.055 C 
ATOM      9  C   UNL A   1      45.121 -19.242 -37.783  0.00  0.00    -0.054 C 
ATOM     10  C   UNL A   1      46.182 -18.342 -38.404  0.00  0.00    -0.048 C 
ATOM     11  N   UNL A   1      45.947 -18.343 -39.929  0.00  0.00    +0.433 N 
ATOM     12  C   UNL A   1      45.821 -16.903 -40.372  0.00  0.00    -0.060 C 
ATOM     13  O   UNL A   1      47.014 -18.879 -40.601  0.00  0.00    -0.289 OA
ATOM     14  C   UNL A   1      44.585 -19.134 -40.115  0.00  0.00    +0.039 C 
ATOM     15  N   UNL A   1      44.351 -20.231 -41.160  0.00  0.00    -0.341 N 
ATOM     16  C   UNL A   1      44.185 -19.916 -42.566  0.00  0.00    -0.001 C 
ENDROOT
BRANCH   1  17
ATOM     17  O   UNL A   1      40.757 -22.828 -37.796  0.00  0.00    -0.411 OA
BRANCH  17  19
ATOM     18  N   UNL A   1      39.876 -22.428 -35.670  0.00  0.00    -0.250 N 
ATOM     19  C   UNL A   1      39.839 -22.103 -37.009  0.00  0.00    +0.410 C 
ATOM     20  O   UNL A   1      39.109 -21.288 -37.558  0.00  0.00    -0.226 OA
ATOM     21  H   UNL A   1      40.571 -23.072 -35.402  0.00  0.00    +0.000 HD
BRANCH  18  29
ATOM     22  C   UNL A   1      40.055 -19.575 -34.523  0.00  0.00    -0.038 C 
ATOM     23  C   UNL A   1      39.054 -20.630 -34.135  0.00  0.00    -0.029 A 
ATOM     24  C   UNL A   1      38.112 -20.249 -33.158  0.00  0.00    -0.057 A 
ATOM     25  C   UNL A   1      37.216 -21.166 -32.621  0.00  0.00    -0.061 A 
ATOM     26  C   UNL A   1      37.254 -22.487 -33.043  0.00  0.00    -0.057 A 
ATOM     27  C   UNL A   1      38.162 -22.898 -34.035  0.00  0.00    -0.029 A 
ATOM     28  C   UNL A   1      38.114 -24.344 -34.463  0.00  0.00    -0.038 C 
ATOM     29  C   UNL A   1      39.040 -21.953 -34.629  0.00  0.00    +0.042 A 
ENDBRANCH  18  29
ENDBRANCH  17  19
ENDBRANCH   1  17
TORSDOF 3
ENDMDL
MODEL 12
REMARK VINA RESULT:    -7.663      2.665      3.938
REMARK INTER + INTRA:          -9.487
REMARK INTER:                  -8.961
REMARK INTRA:                  -0.526
REMARK UNBOUND:                -0.480
REMARK  Name = cpd255.pdb
REMARK  8 active torsions:
REMARK  status: ('A' for Active; 'I' for Inactive)
REMARK    1  A    between atoms: C_1  and  C_2
REMARK    2  A    between atoms: C_6  and  C_7
REMARK    3  A    between atoms: C_8  and  N_9
REMARK    4  A    between atoms: C_10  and  O_12
REMARK    5  A    between atoms: O_12  and  C_13
REMARK    6  A    between atoms: C_19  and  C_20
REMARK    7  A    between atoms: N_23  and  C_24
REMARK    8  A    between atoms: N_27  and  C_28
REMARK                            x       y       z     vdW  Elec       q    Type
REMARK                         _______ _______ _______ _____ _____    ______ ____
ROOT
ATOM      1  C   UNL A   1      32.892 -34.253 -31.061  0.00  0.00    +0.134 A 
ATOM      2  C   UNL A   1      32.217 -35.251 -30.334  0.00  0.00    -0.017 A 
ATOM      3  C   UNL A   1      30.926 -35.017 -29.855  0.00  0.00    -0.037 A 
ATOM      4  C   UNL A   1      30.368 -33.771 -30.069  0.00  0.00    +0.032 A 
ATOM      5  C   UNL A   1      31.074 -32.779 -30.788  0.00  0.00    -0.017 A 
ATOM      6  C   UNL A   1      32.338 -32.995 -31.294  0.00  0.00    -0.014 A 
ATOM      7  C   UNL A   1      30.144 -31.606 -30.877  0.00  0.00    +0.002 C 
ATOM      8  C   UNL A   1      29.263 -31.803 -32.139  0.00  0.00    -0.055 C 
ATOM      9  C   UNL A   1      30.619 -30.184 -30.758  0.00  0.00    -0.054 C 
ATOM     10  C   UNL A   1      29.343 -29.511 -30.269  0.00  0.00    -0.048 C 
ATOM     11  N   UNL A   1      28.541 -30.567 -29.481  0.00  0.00    +0.433 N 
ATOM     12  C   UNL A   1      28.243 -29.989 -28.116  0.00  0.00    -0.060 C 
ATOM     13  O   UNL A   1      27.336 -30.830 -30.078  0.00  0.00    -0.289 OA
ATOM     14  C   UNL A   1      29.518 -31.812 -29.389  0.00  0.00    +0.039 C 
ATOM     15  N   UNL A   1      29.107 -33.264 -29.661  0.00  0.00    -0.341 N 
ATOM     16  C   UNL A   1      28.305 -34.015 -28.714  0.00  0.00    -0.001 C 
ENDROOT
BRANCH   1  17
ATOM     17  O   UNL A   1      34.205 -34.478 -31.534  0.00  0.00    -0.411 OA
BRANCH  17  19
ATOM     18  N   UNL A   1      35.758 -35.442 -30.079  0.00  0.00    -0.250 N 
ATOM     19  C   UNL A   1      34.970 -35.614 -31.196  0.00  0.00    +0.410 C 
ATOM     20  O   UNL A   1      34.881 -36.612 -31.898  0.00  0.00    -0.226 OA
ATOM     21  H   UNL A   1      35.657 -34.584 -29.608  0.00  0.00    +0.000 HD
BRANCH  18  29
ATOM     22  C   UNL A   1      38.435 -36.150 -31.429  0.00  0.00    -0.038 C 
ATOM     23  C   UNL A   1      37.961 -36.631 -30.084  0.00  0.00    -0.029 A 
ATOM     24  C   UNL A   1      38.847 -37.479 -29.391  0.00  0.00    -0.057 A 
ATOM     25  C   UNL A   1      38.478 -38.094 -28.200  0.00  0.00    -0.061 A 
ATOM     26  C   UNL A   1      37.208 -37.881 -27.686  0.00  0.00    -0.057 A 
ATOM     27  C   UNL A   1      36.305 -37.021 -28.335  0.00  0.00    -0.029 A 
ATOM     28  C   UNL A   1      34.957 -36.817 -27.691  0.00  0.00    -0.038 C 
ATOM     29  C   UNL A   1      36.698 -36.345 -29.521  0.00  0.00    +0.042 A 
ENDBRANCH  18  29
ENDBRANCH  17  19
ENDBRANCH   1  17
TORSDOF 3
ENDMDL
MODEL 13
REMARK VINA RESULT:    -7.635     15.405     17.218
REMARK INTER + INTRA:          -9.454
REMARK INTER:                  -8.909
REMARK INTRA:                  -0.545
REMARK UNBOUND:                -0.480
REMARK  Name = cpd255.pdb
REMARK  8 active torsions:
REMARK  status: ('A' for Active; 'I' for Inactive)
REMARK    1  A    between atoms: C_1  and  C_2
REMARK    2  A    between atoms: C_6  and  C_7
REMARK    3  A    between atoms: C_8  and  N_9
REMARK    4  A    between atoms: C_10  and  O_12
REMARK    5  A    between atoms: O_12  and  C_13
REMARK    6  A    between atoms: C_19  and  C_20
REMARK    7  A    between atoms: N_23  and  C_24
REMARK    8  A    between atoms: N_27  and  C_28
REMARK                            x       y       z     vdW  Elec       q    Type
REMARK                         _______ _______ _______ _____ _____    ______ ____
ROOT
ATOM      1  C   UNL A   1      41.612 -20.005 -38.767  0.00  0.00    +0.134 A 
ATOM      2  C   UNL A   1      40.821 -21.101 -39.159  0.00  0.00    -0.017 A 
ATOM      3  C   UNL A   1      40.114 -21.833 -38.202  0.00  0.00    -0.037 A 
ATOM      4  C   UNL A   1      40.260 -21.482 -36.874  0.00  0.00    +0.032 A 
ATOM      5  C   UNL A   1      41.074 -20.386 -36.504  0.00  0.00    -0.017 A 
ATOM      6  C   UNL A   1      41.761 -19.632 -37.432  0.00  0.00    -0.014 A 
ATOM      7  C   UNL A   1      40.940 -20.267 -35.016  0.00  0.00    +0.002 C 
ATOM      8  C   UNL A   1      39.708 -19.367 -34.729  0.00  0.00    -0.055 C 
ATOM      9  C   UNL A   1      42.096 -19.912 -34.123  0.00  0.00    -0.054 C 
ATOM     10  C   UNL A   1      41.635 -20.544 -32.815  0.00  0.00    -0.048 C 
ATOM     11  N   UNL A   1      40.737 -21.744 -33.180  0.00  0.00    +0.433 N 
ATOM     12  C   UNL A   1      41.292 -22.961 -32.472  0.00  0.00    -0.060 C 
ATOM     13  O   UNL A   1      39.455 -21.567 -32.729  0.00  0.00    -0.289 OA
ATOM     14  C   UNL A   1      40.872 -21.872 -34.754  0.00  0.00    +0.039 C 
ATOM     15  N   UNL A   1      39.695 -22.074 -35.716  0.00  0.00    -0.341 N 
ATOM     16  C   UNL A   1      39.013 -23.350 -35.822  0.00  0.00    -0.001 C 
ENDROOT
BRANCH   1  17
ATOM     17  O   UNL A   1      42.343 -19.271 -39.729  0.00  0.00    -0.411 OA
BRANCH  17  19
ATOM     18  N   UNL A   1      44.018 -20.859 -40.095  0.00  0.00    -0.250 N 
ATOM     19  C   UNL A   1      43.698 -19.519 -40.032  0.00  0.00    +0.410 C 
ATOM     20  O   UNL A   1      44.447 -18.566 -40.197  0.00  0.00    -0.226 OA
ATOM     21  H   UNL A   1      43.266 -21.486 -39.988  0.00  0.00    +0.000 HD
BRANCH  18  29
ATOM     22  C   UNL A   1      46.268 -20.781 -37.993  0.00  0.00    -0.038 C 
ATOM     23  C   UNL A   1      46.313 -21.488 -39.322  0.00  0.00    -0.029 A 
ATOM     24  C   UNL A   1      47.507 -22.181 -39.605  0.00  0.00    -0.057 A 
ATOM     25  C   UNL A   1      47.726 -22.767 -40.847  0.00  0.00    -0.061 A 
ATOM     26  C   UNL A   1      46.759 -22.658 -41.835  0.00  0.00    -0.057 A 
ATOM     27  C   UNL A   1      45.544 -21.997 -41.581  0.00  0.00    -0.029 A 
ATOM     28  C   UNL A   1      44.531 -21.955 -42.697  0.00  0.00    -0.038 C 
ATOM     29  C   UNL A   1      45.291 -21.448 -40.295  0.00  0.00    +0.042 A 
ENDBRANCH  18  29
ENDBRANCH  17  19
ENDBRANCH   1  17
TORSDOF 3
ENDMDL
MODEL 14
REMARK VINA RESULT:    -7.239     19.141     20.273
REMARK INTER + INTRA:          -8.988
REMARK INTER:                  -8.531
REMARK INTRA:                  -0.457
REMARK UNBOUND:                -0.480
REMARK  Name = cpd255.pdb
REMARK  8 active torsions:
REMARK  status: ('A' for Active; 'I' for Inactive)
REMARK    1  A    between atoms: C_1  and  C_2
REMARK    2  A    between atoms: C_6  and  C_7
REMARK    3  A    between atoms: C_8  and  N_9
REMARK    4  A    between atoms: C_10  and  O_12
REMARK    5  A    between atoms: O_12  and  C_13
REMARK    6  A    between atoms: C_19  and  C_20
REMARK    7  A    between atoms: N_23  and  C_24
REMARK    8  A    between atoms: N_27  and  C_28
REMARK                            x       y       z     vdW  Elec       q    Type
REMARK                         _______ _______ _______ _____ _____    ______ ____
ROOT
ATOM      1  C   UNL A   1      46.651 -18.362 -36.782  0.00  0.00    +0.134 A 
ATOM      2  C   UNL A   1      47.421 -18.448 -35.607  0.00  0.00    -0.017 A 
ATOM      3  C   UNL A   1      46.888 -18.021 -34.388  0.00  0.00    -0.037 A 
ATOM      4  C   UNL A   1      45.621 -17.472 -34.388  0.00  0.00    +0.032 A 
ATOM      5  C   UNL A   1      44.874 -17.382 -35.585  0.00  0.00    -0.017 A 
ATOM      6  C   UNL A   1      45.367 -17.819 -36.796  0.00  0.00    -0.014 A 
ATOM      7  C   UNL A   1      43.547 -16.804 -35.192  0.00  0.00    +0.002 C 
ATOM      8  C   UNL A   1      42.627 -17.985 -34.781  0.00  0.00    -0.055 C 
ATOM      9  C   UNL A   1      42.811 -15.808 -36.044  0.00  0.00    -0.054 C 
ATOM     10  C   UNL A   1      41.975 -15.105 -34.982  0.00  0.00    -0.048 C 
ATOM     11  N   UNL A   1      42.758 -15.188 -33.655  0.00  0.00    +0.433 N 
ATOM     12  C   UNL A   1      42.901 -13.780 -33.121  0.00  0.00    -0.060 C 
ATOM     13  O   UNL A   1      42.073 -15.908 -32.712  0.00  0.00    -0.289 OA
ATOM     14  C   UNL A   1      44.161 -15.802 -34.065  0.00  0.00    +0.039 C 
ATOM     15  N   UNL A   1      44.870 -16.933 -33.311  0.00  0.00    -0.341 N 
ATOM     16  C   UNL A   1      45.515 -16.703 -32.032  0.00  0.00    -0.001 C 
ENDROOT
BRANCH   1  17
ATOM     17  O   UNL A   1      47.191 -18.776 -38.022  0.00  0.00    -0.411 OA
BRANCH  17  19
ATOM     18  N   UNL A   1      47.159 -20.029 -39.994  0.00  0.00    -0.250 N 
ATOM     19  C   UNL A   1      46.851 -19.992 -38.651  0.00  0.00    +0.410 C 
ATOM     20  O   UNL A   1      46.326 -20.872 -37.983  0.00  0.00    -0.226 OA
ATOM     21  H   UNL A   1      47.632 -19.242 -40.349  0.00  0.00    +0.000 HD
BRANCH  18  29
ATOM     22  C   UNL A   1      44.514 -20.220 -41.561  0.00  0.00    -0.038 C 
ATOM     23  C   UNL A   1      45.706 -21.126 -41.712  0.00  0.00    -0.029 A 
ATOM     24  C   UNL A   1      45.581 -22.147 -42.674  0.00  0.00    -0.057 A 
ATOM     25  C   UNL A   1      46.556 -23.127 -42.822  0.00  0.00    -0.061 A 
ATOM     26  C   UNL A   1      47.672 -23.110 -41.999  0.00  0.00    -0.057 A 
ATOM     27  C   UNL A   1      47.845 -22.092 -41.044  0.00  0.00    -0.029 A 
ATOM     28  C   UNL A   1      49.103 -22.127 -40.214  0.00  0.00    -0.038 C 
ATOM     29  C   UNL A   1      46.880 -21.056 -40.929  0.00  0.00    +0.042 A 
ENDBRANCH  18  29
ENDBRANCH  17  19
ENDBRANCH   1  17
TORSDOF 3
ENDMDL
MODEL 15
REMARK VINA RESULT:    -7.220     15.835     17.681
REMARK INTER + INTRA:          -8.966
REMARK INTER:                  -8.314
REMARK INTRA:                  -0.652
REMARK UNBOUND:                -0.480
REMARK  Name = cpd255.pdb
REMARK  8 active torsions:
REMARK  status: ('A' for Active; 'I' for Inactive)
REMARK    1  A    between atoms: C_1  and  C_2
REMARK    2  A    between atoms: C_6  and  C_7
REMARK    3  A    between atoms: C_8  and  N_9
REMARK    4  A    between atoms: C_10  and  O_12
REMARK    5  A    between atoms: O_12  and  C_13
REMARK    6  A    between atoms: C_19  and  C_20
REMARK    7  A    between atoms: N_23  and  C_24
REMARK    8  A    between atoms: N_27  and  C_28
REMARK                            x       y       z     vdW  Elec       q    Type
REMARK                         _______ _______ _______ _____ _____    ______ ____
ROOT
ATOM      1  C   UNL A   1      42.826 -19.293 -38.222  0.00  0.00    +0.134 A 
ATOM      2  C   UNL A   1      43.679 -18.766 -37.233  0.00  0.00    -0.017 A 
ATOM      3  C   UNL A   1      43.407 -18.990 -35.882  0.00  0.00    -0.037 A 
ATOM      4  C   UNL A   1      42.260 -19.688 -35.555  0.00  0.00    +0.032 A 
ATOM      5  C   UNL A   1      41.411 -20.193 -36.566  0.00  0.00    -0.017 A 
ATOM      6  C   UNL A   1      41.671 -20.007 -37.907  0.00  0.00    -0.014 A 
ATOM      7  C   UNL A   1      40.325 -20.936 -35.848  0.00  0.00    +0.002 C 
ATOM      8  C   UNL A   1      40.821 -22.390 -35.629  0.00  0.00    -0.055 C 
ATOM      9  C   UNL A   1      38.890 -20.910 -36.297  0.00  0.00    -0.054 C 
ATOM     10  C   UNL A   1      38.186 -21.209 -34.979  0.00  0.00    -0.048 C 
ATOM     11  N   UNL A   1      39.089 -20.676 -33.848  0.00  0.00    +0.433 N 
ATOM     12  C   UNL A   1      38.251 -19.750 -32.994  0.00  0.00    -0.060 C 
ATOM     13  O   UNL A   1      39.525 -21.688 -33.034  0.00  0.00    -0.289 OA
ATOM     14  C   UNL A   1      40.242 -19.892 -34.602  0.00  0.00    +0.039 C 
ATOM     15  N   UNL A   1      41.735 -20.015 -34.278  0.00  0.00    -0.341 N 
ATOM     16  C   UNL A   1      42.306 -19.408 -33.091  0.00  0.00    -0.001 C 
ENDROOT
BRANCH   1  17
ATOM     17  O   UNL A   1      43.087 -19.056 -39.591  0.00  0.00    -0.411 OA
BRANCH  17  19
ATOM     18  N   UNL A   1      44.477 -20.839 -40.183  0.00  0.00    -0.250 N 
ATOM     19  C   UNL A   1      44.264 -19.478 -40.243  0.00  0.00    +0.410 C 
ATOM     20  O   UNL A   1      44.973 -18.637 -40.778  0.00  0.00    -0.226 OA
ATOM     21  H   UNL A   1      43.765 -21.367 -39.754  0.00  0.00    +0.000 HD
BRANCH  18  29
ATOM     22  C   UNL A   1      47.061 -21.239 -38.556  0.00  0.00    -0.038 C 
ATOM     23  C   UNL A   1      46.757 -21.832 -39.905  0.00  0.00    -0.029 A 
ATOM     24  C   UNL A   1      47.763 -22.653 -40.454  0.00  0.00    -0.057 A 
ATOM     25  C   UNL A   1      47.662 -23.157 -41.746  0.00  0.00    -0.061 A 
ATOM     26  C   UNL A   1      46.556 -22.837 -42.519  0.00  0.00    -0.057 A 
ATOM     27  C   UNL A   1      45.519 -22.043 -41.998  0.00  0.00    -0.029 A 
ATOM     28  C   UNL A   1      44.336 -21.772 -42.892  0.00  0.00    -0.038 C 
ATOM     29  C   UNL A   1      45.590 -21.574 -40.658  0.00  0.00    +0.042 A 
ENDBRANCH  18  29
ENDBRANCH  17  19
ENDBRANCH   1  17
TORSDOF 3
ENDMDL
MODEL 16
REMARK VINA RESULT:    -7.209     16.956     18.738
REMARK INTER + INTRA:          -8.953
REMARK INTER:                  -8.312
REMARK INTRA:                  -0.640
REMARK UNBOUND:                -0.480
REMARK  Name = cpd255.pdb
REMARK  8 active torsions:
REMARK  status: ('A' for Active; 'I' for Inactive)
REMARK    1  A    between atoms: C_1  and  C_2
REMARK    2  A    between atoms: C_6  and  C_7
REMARK    3  A    between atoms: C_8  and  N_9
REMARK    4  A    between atoms: C_10  and  O_12
REMARK    5  A    between atoms: O_12  and  C_13
REMARK    6  A    between atoms: C_19  and  C_20
REMARK    7  A    between atoms: N_23  and  C_24
REMARK    8  A    between atoms: N_27  and  C_28
REMARK                            x       y       z     vdW  Elec       q    Type
REMARK                         _______ _______ _______ _____ _____    ______ ____
ROOT
ATOM      1  C   UNL A   1      45.925 -19.446 -35.688  0.00  0.00    +0.134 A 
ATOM      2  C   UNL A   1      46.338 -18.373 -34.874  0.00  0.00    -0.017 A 
ATOM      3  C   UNL A   1      45.410 -17.707 -34.071  0.00  0.00    -0.037 A 
ATOM      4  C   UNL A   1      44.086 -18.096 -34.144  0.00  0.00    +0.032 A 
ATOM      5  C   UNL A   1      43.695 -19.166 -34.981  0.00  0.00    -0.017 A 
ATOM      6  C   UNL A   1      44.596 -19.856 -35.765  0.00  0.00    -0.014 A 
ATOM      7  C   UNL A   1      42.223 -19.341 -34.753  0.00  0.00    +0.002 C 
ATOM      8  C   UNL A   1      42.050 -20.304 -33.549  0.00  0.00    -0.055 C 
ATOM      9  C   UNL A   1      41.264 -19.673 -35.862  0.00  0.00    -0.054 C 
ATOM     10  C   UNL A   1      39.973 -19.107 -35.284  0.00  0.00    -0.048 C 
ATOM     11  N   UNL A   1      40.361 -17.937 -34.357  0.00  0.00    +0.433 N 
ATOM     12  C   UNL A   1      39.580 -16.721 -34.805  0.00  0.00    -0.060 C 
ATOM     13  O   UNL A   1      40.006 -18.187 -33.058  0.00  0.00    -0.289 OA
ATOM     14  C   UNL A   1      41.918 -17.750 -34.592  0.00  0.00    +0.039 C 
ATOM     15  N   UNL A   1      42.952 -17.569 -33.474  0.00  0.00    -0.341 N 
ATOM     16  C   UNL A   1      43.066 -16.323 -32.742  0.00  0.00    -0.001 C 
ENDROOT
BRANCH   1  17
ATOM     17  O   UNL A   1      46.857 -20.113 -36.516  0.00  0.00    -0.411 OA
BRANCH  17  19
ATOM     18  N   UNL A   1      46.181 -21.228 -38.455  0.00  0.00    -0.250 N 
ATOM     19  C   UNL A   1      46.787 -20.110 -37.925  0.00  0.00    +0.410 C 
ATOM     20  O   UNL A   1      47.259 -19.159 -38.534  0.00  0.00    -0.226 OA
ATOM     21  H   UNL A   1      45.811 -21.867 -37.804  0.00  0.00    +0.000 HD
BRANCH  18  29
ATOM     22  C   UNL A   1      48.336 -22.706 -40.087  0.00  0.00    -0.038 C 
ATOM     23  C   UNL A   1      46.964 -22.315 -40.569  0.00  0.00    -0.029 A 
ATOM     24  C   UNL A   1      46.656 -22.678 -41.895  0.00  0.00    -0.057 A 
ATOM     25  C   UNL A   1      45.475 -22.267 -42.503  0.00  0.00    -0.061 A 
ATOM     26  C   UNL A   1      44.585 -21.470 -41.797  0.00  0.00    -0.057 A 
ATOM     27  C   UNL A   1      44.846 -21.110 -40.464  0.00  0.00    -0.029 A 
ATOM     28  C   UNL A   1      43.810 -20.272 -39.757  0.00  0.00    -0.038 C 
ATOM     29  C   UNL A   1      46.023 -21.576 -39.820  0.00  0.00    +0.042 A 
ENDBRANCH  18  29
ENDBRANCH  17  19
ENDBRANCH   1  17
TORSDOF 3
ENDMDL
MODEL 17
REMARK VINA RESULT:    -7.059     15.748     17.605
REMARK INTER + INTRA:          -8.777
REMARK INTER:                  -8.214
REMARK INTRA:                  -0.563
REMARK UNBOUND:                -0.480
REMARK  Name = cpd255.pdb
REMARK  8 active torsions:
REMARK  status: ('A' for Active; 'I' for Inactive)
REMARK    1  A    between atoms: C_1  and  C_2
REMARK    2  A    between atoms: C_6  and  C_7
REMARK    3  A    between atoms: C_8  and  N_9
REMARK    4  A    between atoms: C_10  and  O_12
REMARK    5  A    between atoms: O_12  and  C_13
REMARK    6  A    between atoms: C_19  and  C_20
REMARK    7  A    between atoms: N_23  and  C_24
REMARK    8  A    between atoms: N_27  and  C_28
REMARK                            x       y       z     vdW  Elec       q    Type
REMARK                         _______ _______ _______ _____ _____    ______ ____
ROOT
ATOM      1  C   UNL A   1      43.606 -19.502 -37.078  0.00  0.00    +0.134 A 
ATOM      2  C   UNL A   1      42.604 -19.237 -38.031  0.00  0.00    -0.017 A 
ATOM      3  C   UNL A   1      41.259 -19.264 -37.659  0.00  0.00    -0.037 A 
ATOM      4  C   UNL A   1      40.949 -19.608 -36.357  0.00  0.00    +0.032 A 
ATOM      5  C   UNL A   1      41.973 -19.886 -35.423  0.00  0.00    -0.017 A 
ATOM      6  C   UNL A   1      43.310 -19.841 -35.759  0.00  0.00    -0.014 A 
ATOM      7  C   UNL A   1      41.274 -20.151 -34.123  0.00  0.00    +0.002 C 
ATOM      8  C   UNL A   1      41.083 -18.785 -33.410  0.00  0.00    -0.055 C 
ATOM      9  C   UNL A   1      41.727 -21.211 -33.159  0.00  0.00    -0.054 C 
ATOM     10  C   UNL A   1      40.417 -21.499 -32.435  0.00  0.00    -0.048 C 
ATOM     11  N   UNL A   1      39.273 -21.200 -33.424  0.00  0.00    +0.433 N 
ATOM     12  C   UNL A   1      38.403 -22.435 -33.501  0.00  0.00    -0.060 C 
ATOM     13  O   UNL A   1      38.479 -20.176 -32.979  0.00  0.00    -0.289 OA
ATOM     14  C   UNL A   1      40.008 -20.916 -34.800  0.00  0.00    +0.039 C 
ATOM     15  N   UNL A   1      39.681 -19.746 -35.736  0.00  0.00    -0.341 N 
ATOM     16  C   UNL A   1      38.480 -19.738 -36.550  0.00  0.00    -0.001 C 
ENDROOT
BRANCH   1  17
ATOM     17  O   UNL A   1      44.969 -19.494 -37.453  0.00  0.00    -0.411 OA
BRANCH  17  19
ATOM     18  N   UNL A   1      45.247 -21.041 -39.182  0.00  0.00    -0.250 N 
ATOM     19  C   UNL A   1      45.416 -19.737 -38.768  0.00  0.00    +0.410 C 
ATOM     20  O   UNL A   1      45.904 -18.811 -39.403  0.00  0.00    -0.226 OA
ATOM     21  H   UNL A   1      44.783 -21.636 -38.550  0.00  0.00    +0.000 HD
BRANCH  18  29
ATOM     22  C   UNL A   1      48.012 -22.336 -39.589  0.00  0.00    -0.038 C 
ATOM     23  C   UNL A   1      46.891 -22.296 -40.592  0.00  0.00    -0.029 A 
ATOM     24  C   UNL A   1      47.151 -22.925 -41.826  0.00  0.00    -0.057 A 
ATOM     25  C   UNL A   1      46.249 -22.850 -42.881  0.00  0.00    -0.061 A 
ATOM     26  C   UNL A   1      45.074 -22.130 -42.726  0.00  0.00    -0.057 A 
ATOM     27  C   UNL A   1      44.767 -21.510 -41.502  0.00  0.00    -0.029 A 
ATOM     28  C   UNL A   1      43.453 -20.778 -41.405  0.00  0.00    -0.038 C 
ATOM     29  C   UNL A   1      45.658 -21.634 -40.402  0.00  0.00    +0.042 A 
ENDBRANCH  18  29
ENDBRANCH  17  19
ENDBRANCH   1  17
TORSDOF 3
ENDMDL
MODEL 18
REMARK VINA RESULT:    -6.992     16.306     19.321
REMARK INTER + INTRA:          -8.698
REMARK INTER:                  -8.112
REMARK INTRA:                  -0.587
REMARK UNBOUND:                -0.480
REMARK  Name = cpd255.pdb
REMARK  8 active torsions:
REMARK  status: ('A' for Active; 'I' for Inactive)
REMARK    1  A    between atoms: C_1  and  C_2
REMARK    2  A    between atoms: C_6  and  C_7
REMARK    3  A    between atoms: C_8  and  N_9
REMARK    4  A    between atoms: C_10  and  O_12
REMARK    5  A    between atoms: O_12  and  C_13
REMARK    6  A    between atoms: C_19  and  C_20
REMARK    7  A    between atoms: N_23  and  C_24
REMARK    8  A    between atoms: N_27  and  C_28
REMARK                            x       y       z     vdW  Elec       q    Type
REMARK                         _______ _______ _______ _____ _____    ______ ____
ROOT
ATOM      1  C   UNL A   1      44.846 -19.350 -35.219  0.00  0.00    +0.134 A 
ATOM      2  C   UNL A   1      45.659 -18.200 -35.219  0.00  0.00    -0.017 A 
ATOM      3  C   UNL A   1      46.070 -17.633 -36.427  0.00  0.00    -0.037 A 
ATOM      4  C   UNL A   1      45.702 -18.262 -37.601  0.00  0.00    +0.032 A 
ATOM      5  C   UNL A   1      44.899 -19.425 -37.574  0.00  0.00    -0.017 A 
ATOM      6  C   UNL A   1      44.460 -19.990 -36.396  0.00  0.00    -0.014 A 
ATOM      7  C   UNL A   1      44.654 -19.781 -39.010  0.00  0.00    +0.002 C 
ATOM      8  C   UNL A   1      43.395 -19.000 -39.475  0.00  0.00    -0.055 C 
ATOM      9  C   UNL A   1      44.629 -21.201 -39.502  0.00  0.00    -0.054 C 
ATOM     10  C   UNL A   1      45.002 -20.991 -40.964  0.00  0.00    -0.048 C 
ATOM     11  N   UNL A   1      45.877 -19.722 -41.034  0.00  0.00    +0.433 N 
ATOM     12  C   UNL A   1      47.160 -20.092 -41.743  0.00  0.00    -0.060 C 
ATOM     13  O   UNL A   1      45.276 -18.739 -41.776  0.00  0.00    -0.289 OA
ATOM     14  C   UNL A   1      46.136 -19.340 -39.517  0.00  0.00    +0.039 C 
ATOM     15  N   UNL A   1      46.014 -17.923 -38.943  0.00  0.00    -0.341 N 
ATOM     16  C   UNL A   1      47.013 -16.907 -39.213  0.00  0.00    -0.001 C 
ENDROOT
BRANCH   1  17
ATOM     17  O   UNL A   1      44.441 -19.938 -34.000  0.00  0.00    -0.411 OA
BRANCH  17  19
ATOM     18  N   UNL A   1      42.424 -21.106 -34.172  0.00  0.00    -0.250 N 
ATOM     19  C   UNL A   1      43.094 -20.047 -33.598  0.00  0.00    +0.410 C 
ATOM     20  O   UNL A   1      42.646 -19.220 -32.813  0.00  0.00    -0.226 OA
ATOM     21  H   UNL A   1      42.966 -21.700 -34.740  0.00  0.00    +0.000 HD
BRANCH  18  29
ATOM     22  C   UNL A   1      41.369 -23.159 -32.133  0.00  0.00    -0.038 C 
ATOM     23  C   UNL A   1      40.538 -22.332 -33.076  0.00  0.00    -0.029 A 
ATOM     24  C   UNL A   1      39.144 -22.526 -32.994  0.00  0.00    -0.057 A 
ATOM     25  C   UNL A   1      38.274 -21.920 -33.894  0.00  0.00    -0.061 A 
ATOM     26  C   UNL A   1      38.785 -21.118 -34.903  0.00  0.00    -0.057 A 
ATOM     27  C   UNL A   1      40.167 -20.879 -35.001  0.00  0.00    -0.029 A 
ATOM     28  C   UNL A   1      40.637 -19.965 -36.105  0.00  0.00    -0.038 C 
ATOM     29  C   UNL A   1      41.055 -21.448 -34.049  0.00  0.00    +0.042 A 
ENDBRANCH  18  29
ENDBRANCH  17  19
ENDBRANCH   1  17
TORSDOF 3
ENDMDL
MODEL 19
REMARK VINA RESULT:    -6.963      3.114      4.593
REMARK INTER + INTRA:          -8.664
REMARK INTER:                  -8.185
REMARK INTRA:                  -0.479
REMARK UNBOUND:                -0.480
REMARK  Name = cpd255.pdb
REMARK  8 active torsions:
REMARK  status: ('A' for Active; 'I' for Inactive)
REMARK    1  A    between atoms: C_1  and  C_2
REMARK    2  A    between atoms: C_6  and  C_7
REMARK    3  A    between atoms: C_8  and  N_9
REMARK    4  A    between atoms: C_10  and  O_12
REMARK    5  A    between atoms: O_12  and  C_13
REMARK    6  A    between atoms: C_19  and  C_20
REMARK    7  A    between atoms: N_23  and  C_24
REMARK    8  A    between atoms: N_27  and  C_28
REMARK                            x       y       z     vdW  Elec       q    Type
REMARK                         _______ _______ _______ _____ _____    ______ ____
ROOT
ATOM      1  C   UNL A   1      34.350 -34.026 -30.603  0.00  0.00    +0.134 A 
ATOM      2  C   UNL A   1      34.528 -32.711 -30.131  0.00  0.00    -0.017 A 
ATOM      3  C   UNL A   1      33.436 -31.844 -30.046  0.00  0.00    -0.037 A 
ATOM      4  C   UNL A   1      32.207 -32.299 -30.485  0.00  0.00    +0.032 A 
ATOM      5  C   UNL A   1      32.059 -33.618 -30.970  0.00  0.00    -0.017 A 
ATOM      6  C   UNL A   1      33.115 -34.501 -31.040  0.00  0.00    -0.014 A 
ATOM      7  C   UNL A   1      30.601 -33.771 -31.287  0.00  0.00    +0.002 C 
ATOM      8  C   UNL A   1      29.888 -34.236 -29.989  0.00  0.00    -0.055 C 
ATOM      9  C   UNL A   1      30.106 -34.532 -32.485  0.00  0.00    -0.054 C 
ATOM     10  C   UNL A   1      28.756 -33.860 -32.697  0.00  0.00    -0.048 C 
ATOM     11  N   UNL A   1      28.878 -32.414 -32.173  0.00  0.00    +0.433 N 
ATOM     12  C   UNL A   1      28.451 -31.486 -33.289  0.00  0.00    -0.060 C 
ATOM     13  O   UNL A   1      28.033 -32.189 -31.118  0.00  0.00    -0.289 OA
ATOM     14  C   UNL A   1      30.418 -32.249 -31.833  0.00  0.00    +0.039 C 
ATOM     15  N   UNL A   1      30.962 -31.621 -30.545  0.00  0.00    -0.341 N 
ATOM     16  C   UNL A   1      30.914 -30.189 -30.320  0.00  0.00    -0.001 C 
ENDROOT
BRANCH   1  17
ATOM     17  O   UNL A   1      35.455 -34.902 -30.708  0.00  0.00    -0.411 OA
BRANCH  17  19
ATOM     18  N   UNL A   1      36.173 -37.119 -30.533  0.00  0.00    -0.250 N 
ATOM     19  C   UNL A   1      35.633 -36.031 -29.881  0.00  0.00    +0.410 C 
ATOM     20  O   UNL A   1      35.299 -35.957 -28.706  0.00  0.00    -0.226 OA
ATOM     21  H   UNL A   1      36.431 -36.973 -31.472  0.00  0.00    +0.000 HD
BRANCH  18  29
ATOM     22  C   UNL A   1      38.271 -37.741 -28.365  0.00  0.00    -0.038 C 
ATOM     23  C   UNL A   1      37.308 -38.721 -28.981  0.00  0.00    -0.029 A 
ATOM     24  C   UNL A   1      37.386 -40.042 -28.497  0.00  0.00    -0.057 A 
ATOM     25  C   UNL A   1      36.643 -41.068 -29.070  0.00  0.00    -0.061 A 
ATOM     26  C   UNL A   1      35.816 -40.793 -30.149  0.00  0.00    -0.057 A 
ATOM     27  C   UNL A   1      35.691 -39.482 -30.643  0.00  0.00    -0.029 A 
ATOM     28  C   UNL A   1      34.744 -39.263 -31.795  0.00  0.00    -0.038 C 
ATOM     29  C   UNL A   1      36.404 -38.421 -30.023  0.00  0.00    +0.042 A 
ENDBRANCH  18  29
ENDBRANCH  17  19
ENDBRANCH   1  17
TORSDOF 3
ENDMDL
MODEL 20
REMARK VINA RESULT:    -6.912     24.880     27.881
REMARK INTER + INTRA:          -8.604
REMARK INTER:                  -7.717
REMARK INTRA:                  -0.887
REMARK UNBOUND:                -0.480
REMARK  Name = cpd255.pdb
REMARK  8 active torsions:
REMARK  status: ('A' for Active; 'I' for Inactive)
REMARK    1  A    between atoms: C_1  and  C_2
REMARK    2  A    between atoms: C_6  and  C_7
REMARK    3  A    between atoms: C_8  and  N_9
REMARK    4  A    between atoms: C_10  and  O_12
REMARK    5  A    between atoms: O_12  and  C_13
REMARK    6  A    between atoms: C_19  and  C_20
REMARK    7  A    between atoms: N_23  and  C_24
REMARK    8  A    between atoms: N_27  and  C_28
REMARK                            x       y       z     vdW  Elec       q    Type
REMARK                         _______ _______ _______ _____ _____    ______ ____
ROOT
ATOM      1  C   UNL A   1      46.837 -33.787 -53.088  0.00  0.00    +0.134 A 
ATOM      2  C   UNL A   1      45.530 -34.241 -52.826  0.00  0.00    -0.017 A 
ATOM      3  C   UNL A   1      45.077 -35.434 -53.392  0.00  0.00    -0.037 A 
ATOM      4  C   UNL A   1      45.923 -36.113 -54.247  0.00  0.00    +0.032 A 
ATOM      5  C   UNL A   1      47.226 -35.628 -54.507  0.00  0.00    -0.017 A 
ATOM      6  C   UNL A   1      47.705 -34.466 -53.941  0.00  0.00    -0.014 A 
ATOM      7  C   UNL A   1      47.862 -36.641 -55.410  0.00  0.00    +0.002 C 
ATOM      8  C   UNL A   1      48.515 -37.724 -54.509  0.00  0.00    -0.055 C 
ATOM      9  C   UNL A   1      48.767 -36.260 -56.548  0.00  0.00    -0.054 C 
ATOM     10  C   UNL A   1      48.588 -37.470 -57.456  0.00  0.00    -0.048 C 
ATOM     11  N   UNL A   1      47.176 -38.032 -57.196  0.00  0.00    +0.433 N 
ATOM     12  C   UNL A   1      46.465 -38.115 -58.529  0.00  0.00    -0.060 C 
ATOM     13  O   UNL A   1      47.227 -39.304 -56.688  0.00  0.00    -0.289 OA
ATOM     14  C   UNL A   1      46.499 -36.965 -56.238  0.00  0.00    +0.039 C 
ATOM     15  N   UNL A   1      45.702 -37.311 -54.975  0.00  0.00    -0.341 N 
ATOM     16  C   UNL A   1      44.365 -37.867 -55.050  0.00  0.00    -0.001 C 
ENDROOT
BRANCH   1  17
ATOM     17  O   UNL A   1      47.295 -32.570 -52.533  0.00  0.00    -0.411 OA
BRANCH  17  19
ATOM     18  N   UNL A   1      47.167 -30.965 -54.225  0.00  0.00    -0.250 N 
ATOM     19  C   UNL A   1      47.961 -31.576 -53.279  0.00  0.00    +0.410 C 
ATOM     20  O   UNL A   1      49.141 -31.355 -53.042  0.00  0.00    -0.226 OA
ATOM     21  H   UNL A   1      46.221 -31.237 -54.234  0.00  0.00    +0.000 HD
BRANCH  18  29
ATOM     22  C   UNL A   1      47.126 -27.934 -53.676  0.00  0.00    -0.038 C 
ATOM     23  C   UNL A   1      47.597 -28.605 -54.938  0.00  0.00    -0.029 A 
ATOM     24  C   UNL A   1      48.069 -27.743 -55.949  0.00  0.00    -0.057 A 
ATOM     25  C   UNL A   1      48.413 -28.223 -57.207  0.00  0.00    -0.061 A 
ATOM     26  C   UNL A   1      48.278 -29.576 -57.483  0.00  0.00    -0.057 A 
ATOM     27  C   UNL A   1      47.836 -30.470 -56.492  0.00  0.00    -0.029 A 
ATOM     28  C   UNL A   1      47.753 -31.930 -56.863  0.00  0.00    -0.038 C 
ATOM     29  C   UNL A   1      47.540 -29.993 -55.188  0.00  0.00    +0.042 A 
ENDBRANCH  18  29
ENDBRANCH  17  19
ENDBRANCH   1  17
TORSDOF 3
ENDMDL
