REMARK  Name = cpd190.pdb
REMARK  13 active torsions:
REMARK  status: ('A' for Active; 'I' for Inactive)
REMARK    1  A    between atoms: C_1  and  C_2
REMARK    2  A    between atoms: C_2  and  C_3
REMARK    3  A    between atoms: C_2  and  C_4
REMARK    4  A    between atoms: C_7  and  C_8
REMARK    5  A    between atoms: C_14  and  C_15
REMARK    6  A    between atoms: C_18  and  O_19
REMARK    7  A    between atoms: O_19  and  S_20
REMARK    8  A    between atoms: C_24  and  C_25
REMARK    9  A    between atoms: C_24  and  C_26
REMARK   10  A    between atoms: C_30  and  C_31
REMARK   11  A    between atoms: C_32  and  C_33
REMARK   12  A    between atoms: C_35  and  O_36
REMARK   13  A    between atoms: O_36  and  S_37
REMARK                            x       y       z     vdW  Elec       q    Type
REMARK                         _______ _______ _______ _____ _____    ______ ____
ROOT
ATOM      1  C   UNL     1      -1.459   5.347  -0.119  0.00  0.00    -0.035 C 
ATOM      2  C   UNL     1       0.020   5.638   0.240  0.00  0.00    -0.049 C 
ATOM      3  C   UNL     1       0.815   4.414  -0.225  0.00  0.00    -0.045 C 
ATOM      4  C   UNL     1      -0.139   3.226   0.033  0.00  0.00    -0.000 C 
ATOM      5  C   UNL     1      -0.131   2.947   1.554  0.00  0.00    -0.057 C 
ATOM      6  C   UNL     1      -1.469   3.843  -0.516  0.00  0.00    -0.027 C 
ATOM      7  C   UNL     1      -2.604   2.816  -0.354  0.00  0.00    -0.031 C 
ATOM      8  C   UNL     1      -4.065   3.261  -0.302  0.00  0.00    -0.049 C 
ATOM      9  C   UNL     1      -4.994   2.080   0.044  0.00  0.00    -0.049 C 
ATOM     10  C   UNL     1      -4.806   0.833  -0.845  0.00  0.00    -0.029 C 
ATOM     11  C   UNL     1      -5.873  -0.357  -0.629  0.00  0.00    -0.025 C 
ATOM     12  C   UNL     1      -6.831  -0.268  -1.851  0.00  0.00    -0.059 C 
ATOM     13  C   UNL     1      -6.719  -0.175   0.656  0.00  0.00    -0.045 C 
ATOM     14  C   UNL     1      -7.688  -1.328   0.937  0.00  0.00    -0.023 C 
ATOM     15  C   UNL     1      -6.982  -2.685   1.035  0.00  0.00    +0.095 C 
ATOM     16  C   UNL     1      -6.071  -3.008  -0.202  0.00  0.00    -0.003 C 
ATOM     17  C   UNL     1      -6.904  -3.532  -1.390  0.00  0.00    -0.057 C 
ATOM     18  C   UNL     1      -5.145  -4.197   0.202  0.00  0.00    -0.057 C 
ATOM     19  C   UNL     1      -5.168  -1.751  -0.534  0.00  0.00    -0.028 C 
ATOM     20  C   UNL     1      -4.154  -1.969  -1.675  0.00  0.00    -0.049 C 
ATOM     21  C   UNL     1      -3.294  -0.745  -2.035  0.00  0.00    -0.047 C 
ATOM     22  C   UNL     1      -3.292   0.400  -0.982  0.00  0.00    -0.023 C 
ATOM     23  C   UNL     1      -2.712  -0.138   0.359  0.00  0.00    -0.059 C 
ATOM     24  C   UNL     1      -2.415   1.683  -1.444  0.00  0.00    -0.021 C 
ATOM     25  C   UNL     1      -2.904   2.195  -2.852  0.00  0.00    -0.059 C 
ATOM     26  C   UNL     1      -0.891   1.346  -1.688  0.00  0.00    -0.018 C 
ATOM     27  C   UNL     1       0.253   1.942  -0.776  0.00  0.00    +0.096 C 
ENDROOT
BRANCH   1  29
ATOM     28  C   UNL     1      -2.279   7.498   0.955  0.00  0.00    -0.062 C 
ATOM     29  C   UNL     1      -2.494   5.979   0.837  0.00  0.00    -0.044 C 
ATOM     30  C   UNL     1      -2.556   5.378   2.238  0.00  0.00    -0.062 C 
ENDBRANCH   1  29
BRANCH  15  31
ATOM     31  O   UNL     1      -7.778  -3.822   1.358  0.00  0.00    -0.210 OA
BRANCH  31  32
ATOM     32  S   UNL     1      -9.404  -3.848   1.390  0.00  0.00    +0.239 S 
ATOM     33  O   UNL     1      -9.759  -2.942   2.479  0.00  0.00    -0.116 OA
ATOM     34  O   UNL     1      -9.708  -5.251   1.662  0.00  0.00    -0.116 OA
ATOM     35  O   UNL     1      -9.810  -3.402   0.061  0.00  0.00    -0.022 OA
ENDBRANCH  31  32
ENDBRANCH  15  31
BRANCH  27  36
ATOM     36  O   UNL     1       0.954   0.954   0.000  0.00  0.00    -0.210 OA
BRANCH  36  37
ATOM     37  S   UNL     1       0.954   0.000   0.000  0.00  0.00    +0.239 S 
ATOM     38  O   UNL     1       2.194   0.146  -0.811  0.00  0.00    -0.116 OA
ATOM     39  O   UNL     1       0.954  -0.954   0.000  0.00  0.00    -0.116 OA
ATOM     40  O   UNL     1       1.043   0.151   1.473  0.00  0.00    -0.022 OA
ENDBRANCH  36  37
ENDBRANCH  27  36
TORSDOF 5
