MODEL 1
REMARK VINA RESULT:    -8.417      0.000      0.000
REMARK INTER + INTRA:         -12.149
REMARK INTER:                 -10.877
REMARK INTRA:                  -1.272
REMARK UNBOUND:                -1.272
REMARK  Name = cpd190.pdb
REMARK  13 active torsions:
REMARK  status: ('A' for Active; 'I' for Inactive)
REMARK    1  A    between atoms: C_1  and  C_2
REMARK    2  A    between atoms: C_2  and  C_3
REMARK    3  A    between atoms: C_2  and  C_4
REMARK    4  A    between atoms: C_7  and  C_8
REMARK    5  A    between atoms: C_14  and  C_15
REMARK    6  A    between atoms: C_18  and  O_19
REMARK    7  A    between atoms: O_19  and  S_20
REMARK    8  A    between atoms: C_24  and  C_25
REMARK    9  A    between atoms: C_24  and  C_26
REMARK   10  A    between atoms: C_30  and  C_31
REMARK   11  A    between atoms: C_32  and  C_33
REMARK   12  A    between atoms: C_35  and  O_36
REMARK   13  A    between atoms: O_36  and  S_37
REMARK                            x       y       z     vdW  Elec       q    Type
REMARK                         _______ _______ _______ _____ _____    ______ ____
ROOT
ATOM      1  C   UNL     1      38.899 -21.772 -33.826  0.00  0.00    -0.035 C 
ATOM      2  C   UNL     1      38.711 -21.111 -32.437  0.00  0.00    -0.049 C 
ATOM      3  C   UNL     1      38.924 -19.609 -32.652  0.00  0.00    -0.045 C 
ATOM      4  C   UNL     1      40.025 -19.538 -33.735  0.00  0.00    -0.000 C 
ATOM      5  C   UNL     1      41.371 -19.871 -33.051  0.00  0.00    -0.057 C 
ATOM      6  C   UNL     1      39.493 -20.640 -34.712  0.00  0.00    -0.027 C 
ATOM      7  C   UNL     1      40.459 -20.762 -35.905  0.00  0.00    -0.031 C 
ATOM      8  C   UNL     1      40.522 -22.043 -36.736  0.00  0.00    -0.049 C 
ATOM      9  C   UNL     1      41.682 -21.990 -37.751  0.00  0.00    -0.049 C 
ATOM     10  C   UNL     1      41.701 -20.729 -38.639  0.00  0.00    -0.029 C 
ATOM     11  C   UNL     1      42.792 -20.717 -39.827  0.00  0.00    -0.025 C 
ATOM     12  C   UNL     1      41.980 -20.989 -41.125  0.00  0.00    -0.059 C 
ATOM     13  C   UNL     1      43.849 -21.840 -39.679  0.00  0.00    -0.045 C 
ATOM     14  C   UNL     1      44.949 -21.810 -40.745  0.00  0.00    -0.023 C 
ATOM     15  C   UNL     1      45.697 -20.473 -40.787  0.00  0.00    +0.095 C 
ATOM     16  C   UNL     1      44.749 -19.229 -40.925  0.00  0.00    -0.003 C 
ATOM     17  C   UNL     1      44.306 -19.022 -42.388  0.00  0.00    -0.057 C 
ATOM     18  C   UNL     1      45.591 -17.963 -40.571  0.00  0.00    -0.057 C 
ATOM     19  C   UNL     1      43.560 -19.354 -39.887  0.00  0.00    -0.028 C 
ATOM     20  C   UNL     1      42.604 -18.145 -39.854  0.00  0.00    -0.049 C 
ATOM     21  C   UNL     1      41.421 -18.268 -38.877  0.00  0.00    -0.047 C 
ATOM     22  C   UNL     1      41.553 -19.392 -37.809  0.00  0.00    -0.023 C 
ATOM     23  C   UNL     1      42.801 -19.112 -36.922  0.00  0.00    -0.059 C 
ATOM     24  C   UNL     1      40.253 -19.507 -36.848  0.00  0.00    -0.021 C 
ATOM     25  C   UNL     1      38.951 -19.687 -37.717  0.00  0.00    -0.059 C 
ATOM     26  C   UNL     1      39.963 -18.190 -36.025  0.00  0.00    -0.018 C 
ATOM     27  C   UNL     1      40.087 -18.145 -34.450  0.00  0.00    +0.096 C 
ENDROOT
BRANCH   1  29
ATOM     28  C   UNL     1      38.340 -24.243 -33.651  0.00  0.00    -0.062 C 
ATOM     29  C   UNL     1      39.469 -23.207 -33.788  0.00  0.00    -0.044 C 
ATOM     30  C   UNL     1      40.519 -23.475 -32.715  0.00  0.00    -0.062 C 
ENDBRANCH   1  29
BRANCH  15  31
ATOM     31  O   UNL     1      46.786 -20.353 -41.698  0.00  0.00    -0.210 OA
BRANCH  31  32
ATOM     32  S   UNL     1      48.110 -21.298 -41.704  0.00  0.00    +0.239 S 
ATOM     33  O   UNL     1      49.144 -20.468 -42.316  0.00  0.00    -0.116 OA
ATOM     34  O   UNL     1      47.700 -22.437 -42.523  0.00  0.00    -0.116 OA
ATOM     35  O   UNL     1      48.337 -21.630 -40.301  0.00  0.00    -0.022 OA
ENDBRANCH  31  32
ENDBRANCH  15  31
BRANCH  27  36
ATOM     36  O   UNL     1      41.142 -17.290 -33.974  0.00  0.00    -0.210 OA
BRANCH  36  37
ATOM     37  S   UNL     1      41.334 -16.362 -34.084  0.00  0.00    +0.239 S 
ATOM     38  O   UNL     1      40.660 -16.216 -32.765  0.00  0.00    -0.116 OA
ATOM     39  O   UNL     1      41.526 -15.434 -34.195  0.00  0.00    -0.116 OA
ATOM     40  O   UNL     1      42.746 -16.813 -34.118  0.00  0.00    -0.022 OA
ENDBRANCH  36  37
ENDBRANCH  27  36
TORSDOF 5
ENDMDL
MODEL 2
REMARK VINA RESULT:    -7.740      3.711      5.474
REMARK INTER + INTRA:         -11.274
REMARK INTER:                 -10.059
REMARK INTRA:                  -1.215
REMARK UNBOUND:                -1.272
REMARK  Name = cpd190.pdb
REMARK  13 active torsions:
REMARK  status: ('A' for Active; 'I' for Inactive)
REMARK    1  A    between atoms: C_1  and  C_2
REMARK    2  A    between atoms: C_2  and  C_3
REMARK    3  A    between atoms: C_2  and  C_4
REMARK    4  A    between atoms: C_7  and  C_8
REMARK    5  A    between atoms: C_14  and  C_15
REMARK    6  A    between atoms: C_18  and  O_19
REMARK    7  A    between atoms: O_19  and  S_20
REMARK    8  A    between atoms: C_24  and  C_25
REMARK    9  A    between atoms: C_24  and  C_26
REMARK   10  A    between atoms: C_30  and  C_31
REMARK   11  A    between atoms: C_32  and  C_33
REMARK   12  A    between atoms: C_35  and  O_36
REMARK   13  A    between atoms: O_36  and  S_37
REMARK                            x       y       z     vdW  Elec       q    Type
REMARK                         _______ _______ _______ _____ _____    ______ ____
ROOT
ATOM      1  C   UNL     1      37.582 -18.714 -32.617  0.00  0.00    -0.035 C 
ATOM      2  C   UNL     1      36.355 -19.627 -32.865  0.00  0.00    -0.049 C 
ATOM      3  C   UNL     1      36.913 -20.944 -33.414  0.00  0.00    -0.045 C 
ATOM      4  C   UNL     1      38.121 -20.510 -34.275  0.00  0.00    -0.000 C 
ATOM      5  C   UNL     1      37.563 -19.924 -35.593  0.00  0.00    -0.057 C 
ATOM      6  C   UNL     1      38.761 -19.460 -33.307  0.00  0.00    -0.027 C 
ATOM      7  C   UNL     1      40.015 -18.863 -33.970  0.00  0.00    -0.031 C 
ATOM      8  C   UNL     1      40.553 -17.497 -33.547  0.00  0.00    -0.049 C 
ATOM      9  C   UNL     1      41.699 -17.040 -34.472  0.00  0.00    -0.049 C 
ATOM     10  C   UNL     1      42.832 -18.072 -34.649  0.00  0.00    -0.029 C 
ATOM     11  C   UNL     1      44.127 -17.568 -35.467  0.00  0.00    -0.025 C 
ATOM     12  C   UNL     1      45.219 -17.325 -34.387  0.00  0.00    -0.059 C 
ATOM     13  C   UNL     1      43.882 -16.229 -36.208  0.00  0.00    -0.045 C 
ATOM     14  C   UNL     1      45.064 -15.760 -37.062  0.00  0.00    -0.023 C 
ATOM     15  C   UNL     1      45.490 -16.797 -38.107  0.00  0.00    +0.095 C 
ATOM     16  C   UNL     1      45.766 -18.219 -37.502  0.00  0.00    -0.003 C 
ATOM     17  C   UNL     1      47.168 -18.294 -36.863  0.00  0.00    -0.057 C 
ATOM     18  C   UNL     1      45.805 -19.229 -38.691  0.00  0.00    -0.057 C 
ATOM     19  C   UNL     1      44.579 -18.620 -36.535  0.00  0.00    -0.028 C 
ATOM     20  C   UNL     1      44.680 -20.041 -35.944  0.00  0.00    -0.049 C 
ATOM     21  C   UNL     1      43.553 -20.432 -34.973  0.00  0.00    -0.047 C 
ATOM     22  C   UNL     1      42.296 -19.516 -35.007  0.00  0.00    -0.023 C 
ATOM     23  C   UNL     1      41.661 -19.571 -36.427  0.00  0.00    -0.059 C 
ATOM     24  C   UNL     1      41.170 -19.945 -33.922  0.00  0.00    -0.021 C 
ATOM     25  C   UNL     1      41.802 -20.004 -32.480  0.00  0.00    -0.059 C 
ATOM     26  C   UNL     1      40.618 -21.410 -34.138  0.00  0.00    -0.018 C 
ATOM     27  C   UNL     1      39.120 -21.684 -34.560  0.00  0.00    +0.096 C 
ENDROOT
BRANCH   1  29
ATOM     28  C   UNL     1      36.235 -16.718 -31.811  0.00  0.00    -0.062 C 
ATOM     29  C   UNL     1      37.313 -17.204 -32.795  0.00  0.00    -0.044 C 
ATOM     30  C   UNL     1      36.932 -16.761 -34.204  0.00  0.00    -0.062 C 
ENDBRANCH   1  29
BRANCH  15  31
ATOM     31  O   UNL     1      46.540 -16.441 -39.002  0.00  0.00    -0.210 OA
BRANCH  31  32
ATOM     32  S   UNL     1      46.332 -15.876 -40.512  0.00  0.00    +0.239 S 
ATOM     33  O   UNL     1      45.921 -14.487 -40.326  0.00  0.00    -0.116 OA
ATOM     34  O   UNL     1      45.282 -16.739 -41.048  0.00  0.00    -0.116 OA
ATOM     35  O   UNL     1      47.629 -16.053 -41.158  0.00  0.00    -0.022 OA
ENDBRANCH  31  32
ENDBRANCH  15  31
BRANCH  27  36
ATOM     36  O   UNL     1      38.980 -22.266 -35.868  0.00  0.00    -0.210 OA
BRANCH  36  37
ATOM     37  S   UNL     1      39.535 -22.836 -36.394  0.00  0.00    +0.239 S 
ATOM     38  O   UNL     1      38.640 -23.918 -35.902  0.00  0.00    -0.116 OA
ATOM     39  O   UNL     1      40.091 -23.406 -36.920  0.00  0.00    -0.116 OA
ATOM     40  O   UNL     1      39.077 -21.988 -37.522  0.00  0.00    -0.022 OA
ENDBRANCH  36  37
ENDBRANCH  27  36
TORSDOF 5
ENDMDL
MODEL 3
REMARK VINA RESULT:    -7.617      3.235      4.984
REMARK INTER + INTRA:         -11.116
REMARK INTER:                  -9.798
REMARK INTRA:                  -1.317
REMARK UNBOUND:                -1.272
REMARK  Name = cpd190.pdb
REMARK  13 active torsions:
REMARK  status: ('A' for Active; 'I' for Inactive)
REMARK    1  A    between atoms: C_1  and  C_2
REMARK    2  A    between atoms: C_2  and  C_3
REMARK    3  A    between atoms: C_2  and  C_4
REMARK    4  A    between atoms: C_7  and  C_8
REMARK    5  A    between atoms: C_14  and  C_15
REMARK    6  A    between atoms: C_18  and  O_19
REMARK    7  A    between atoms: O_19  and  S_20
REMARK    8  A    between atoms: C_24  and  C_25
REMARK    9  A    between atoms: C_24  and  C_26
REMARK   10  A    between atoms: C_30  and  C_31
REMARK   11  A    between atoms: C_32  and  C_33
REMARK   12  A    between atoms: C_35  and  O_36
REMARK   13  A    between atoms: O_36  and  S_37
REMARK                            x       y       z     vdW  Elec       q    Type
REMARK                         _______ _______ _______ _____ _____    ______ ____
ROOT
ATOM      1  C   UNL     1      37.401 -17.762 -33.734  0.00  0.00    -0.035 C 
ATOM      2  C   UNL     1      36.338 -18.812 -33.325  0.00  0.00    -0.049 C 
ATOM      3  C   UNL     1      37.120 -20.027 -32.815  0.00  0.00    -0.045 C 
ATOM      4  C   UNL     1      38.379 -20.066 -33.710  0.00  0.00    -0.000 C 
ATOM      5  C   UNL     1      37.951 -20.624 -35.087  0.00  0.00    -0.057 C 
ATOM      6  C   UNL     1      38.745 -18.543 -33.702  0.00  0.00    -0.027 C 
ATOM      7  C   UNL     1      40.003 -18.324 -34.561  0.00  0.00    -0.031 C 
ATOM      8  C   UNL     1      40.310 -16.957 -35.170  0.00  0.00    -0.049 C 
ATOM      9  C   UNL     1      41.515 -17.033 -36.129  0.00  0.00    -0.049 C 
ATOM     10  C   UNL     1      42.775 -17.689 -35.526  0.00  0.00    -0.029 C 
ATOM     11  C   UNL     1      44.106 -17.632 -36.436  0.00  0.00    -0.025 C 
ATOM     12  C   UNL     1      44.996 -16.536 -35.783  0.00  0.00    -0.059 C 
ATOM     13  C   UNL     1      43.814 -17.204 -37.896  0.00  0.00    -0.045 C 
ATOM     14  C   UNL     1      45.043 -17.216 -38.811  0.00  0.00    -0.023 C 
ATOM     15  C   UNL     1      45.733 -18.584 -38.858  0.00  0.00    +0.095 C 
ATOM     16  C   UNL     1      46.084 -19.158 -37.439  0.00  0.00    -0.003 C 
ATOM     17  C   UNL     1      47.380 -18.529 -36.886  0.00  0.00    -0.057 C 
ATOM     18  C   UNL     1      46.412 -20.672 -37.620  0.00  0.00    -0.057 C 
ATOM     19  C   UNL     1      44.826 -19.020 -36.489  0.00  0.00    -0.028 C 
ATOM     20  C   UNL     1      45.008 -19.635 -35.086  0.00  0.00    -0.049 C 
ATOM     21  C   UNL     1      43.807 -19.477 -34.137  0.00  0.00    -0.047 C 
ATOM     22  C   UNL     1      42.470 -19.068 -34.818  0.00  0.00    -0.023 C 
ATOM     23  C   UNL     1      42.055 -20.171 -35.835  0.00  0.00    -0.059 C 
ATOM     24  C   UNL     1      41.258 -18.862 -33.760  0.00  0.00    -0.021 C 
ATOM     25  C   UNL     1      41.679 -17.827 -32.649  0.00  0.00    -0.059 C 
ATOM     26  C   UNL     1      40.918 -20.165 -32.934  0.00  0.00    -0.018 C 
ATOM     27  C   UNL     1      39.540 -20.920 -33.094  0.00  0.00    +0.096 C 
ENDROOT
BRANCH   1  29
ATOM     28  C   UNL     1      36.004 -15.754 -34.421  0.00  0.00    -0.062 C 
ATOM     29  C   UNL     1      36.984 -16.839 -34.900  0.00  0.00    -0.044 C 
ATOM     30  C   UNL     1      36.389 -17.539 -36.119  0.00  0.00    -0.062 C 
ENDBRANCH   1  29
BRANCH  15  31
ATOM     31  O   UNL     1      46.851 -18.730 -39.728  0.00  0.00    -0.210 OA
BRANCH  31  32
ATOM     32  S   UNL     1      46.808 -19.420 -41.201  0.00  0.00    +0.239 S 
ATOM     33  O   UNL     1      46.869 -20.854 -40.931  0.00  0.00    -0.116 OA
ATOM     34  O   UNL     1      48.002 -18.887 -41.852  0.00  0.00    -0.116 OA
ATOM     35  O   UNL     1      45.556 -18.957 -41.792  0.00  0.00    -0.022 OA
ENDBRANCH  31  32
ENDBRANCH  15  31
BRANCH  27  36
ATOM     36  O   UNL     1      39.658 -22.238 -33.657  0.00  0.00    -0.210 OA
BRANCH  36  37
ATOM     37  S   UNL     1      40.175 -23.005 -33.426  0.00  0.00    +0.239 S 
ATOM     38  O   UNL     1      38.895 -23.517 -32.863  0.00  0.00    -0.116 OA
ATOM     39  O   UNL     1      40.692 -23.773 -33.195  0.00  0.00    -0.116 OA
ATOM     40  O   UNL     1      40.402 -23.106 -34.889  0.00  0.00    -0.022 OA
ENDBRANCH  36  37
ENDBRANCH  27  36
TORSDOF 5
ENDMDL
MODEL 4
REMARK VINA RESULT:    -7.585     19.135     24.406
REMARK INTER + INTRA:         -11.074
REMARK INTER:                  -9.783
REMARK INTRA:                  -1.291
REMARK UNBOUND:                -1.272
REMARK  Name = cpd190.pdb
REMARK  13 active torsions:
REMARK  status: ('A' for Active; 'I' for Inactive)
REMARK    1  A    between atoms: C_1  and  C_2
REMARK    2  A    between atoms: C_2  and  C_3
REMARK    3  A    between atoms: C_2  and  C_4
REMARK    4  A    between atoms: C_7  and  C_8
REMARK    5  A    between atoms: C_14  and  C_15
REMARK    6  A    between atoms: C_18  and  O_19
REMARK    7  A    between atoms: O_19  and  S_20
REMARK    8  A    between atoms: C_24  and  C_25
REMARK    9  A    between atoms: C_24  and  C_26
REMARK   10  A    between atoms: C_30  and  C_31
REMARK   11  A    between atoms: C_32  and  C_33
REMARK   12  A    between atoms: C_35  and  O_36
REMARK   13  A    between atoms: O_36  and  S_37
REMARK                            x       y       z     vdW  Elec       q    Type
REMARK                         _______ _______ _______ _____ _____    ______ ____
ROOT
ATOM      1  C   UNL     1      32.986 -34.773 -30.105  0.00  0.00    -0.035 C 
ATOM      2  C   UNL     1      33.774 -34.862 -31.437  0.00  0.00    -0.049 C 
ATOM      3  C   UNL     1      34.031 -36.353 -31.675  0.00  0.00    -0.045 C 
ATOM      4  C   UNL     1      34.250 -36.929 -30.257  0.00  0.00    -0.000 C 
ATOM      5  C   UNL     1      35.669 -36.515 -29.803  0.00  0.00    -0.057 C 
ATOM      6  C   UNL     1      33.082 -36.206 -29.506  0.00  0.00    -0.027 C 
ATOM      7  C   UNL     1      33.100 -36.627 -28.026  0.00  0.00    -0.031 C 
ATOM      8  C   UNL     1      32.460 -35.748 -26.951  0.00  0.00    -0.049 C 
ATOM      9  C   UNL     1      32.763 -36.288 -25.539  0.00  0.00    -0.049 C 
ATOM     10  C   UNL     1      32.426 -37.780 -25.335  0.00  0.00    -0.029 C 
ATOM     11  C   UNL     1      32.565 -38.338 -23.828  0.00  0.00    -0.025 C 
ATOM     12  C   UNL     1      31.105 -38.470 -23.309  0.00  0.00    -0.059 C 
ATOM     13  C   UNL     1      33.317 -37.356 -22.895  0.00  0.00    -0.045 C 
ATOM     14  C   UNL     1      33.540 -37.887 -21.475  0.00  0.00    -0.023 C 
ATOM     15  C   UNL     1      34.297 -39.220 -21.453  0.00  0.00    +0.095 C 
ATOM     16  C   UNL     1      33.653 -40.321 -22.368  0.00  0.00    -0.003 C 
ATOM     17  C   UNL     1      32.452 -40.996 -21.673  0.00  0.00    -0.057 C 
ATOM     18  C   UNL     1      34.711 -41.454 -22.544  0.00  0.00    -0.057 C 
ATOM     19  C   UNL     1      33.330 -39.703 -23.789  0.00  0.00    -0.028 C 
ATOM     20  C   UNL     1      32.778 -40.708 -24.819  0.00  0.00    -0.049 C 
ATOM     21  C   UNL     1      32.424 -40.116 -26.194  0.00  0.00    -0.047 C 
ATOM     22  C   UNL     1      33.007 -38.702 -26.480  0.00  0.00    -0.023 C 
ATOM     23  C   UNL     1      34.562 -38.772 -26.444  0.00  0.00    -0.059 C 
ATOM     24  C   UNL     1      32.553 -38.109 -27.919  0.00  0.00    -0.021 C 
ATOM     25  C   UNL     1      30.981 -38.119 -28.037  0.00  0.00    -0.059 C 
ATOM     26  C   UNL     1      33.015 -38.999 -29.139  0.00  0.00    -0.018 C 
ATOM     27  C   UNL     1      34.071 -38.485 -30.196  0.00  0.00    +0.096 C 
ENDROOT
BRANCH   1  29
ATOM     28  C   UNL     1      32.139 -32.450 -29.527  0.00  0.00    -0.062 C 
ATOM     29  C   UNL     1      33.245 -33.491 -29.284  0.00  0.00    -0.044 C 
ATOM     30  C   UNL     1      34.603 -32.830 -29.498  0.00  0.00    -0.062 C 
ENDBRANCH   1  29
BRANCH  15  31
ATOM     31  O   UNL     1      34.617 -39.776 -20.181  0.00  0.00    -0.210 OA
BRANCH  31  32
ATOM     32  S   UNL     1      36.064 -39.664 -19.447  0.00  0.00    +0.239 S 
ATOM     33  O   UNL     1      36.367 -38.235 -19.461  0.00  0.00    -0.116 OA
ATOM     34  O   UNL     1      36.934 -40.464 -20.306  0.00  0.00    -0.116 OA
ATOM     35  O   UNL     1      35.854 -40.235 -18.120  0.00  0.00    -0.022 OA
ENDBRANCH  31  32
ENDBRANCH  15  31
BRANCH  27  36
ATOM     36  O   UNL     1      35.310 -39.215 -30.186  0.00  0.00    -0.210 OA
BRANCH  36  37
ATOM     37  S   UNL     1      35.523 -40.144 -30.221  0.00  0.00    +0.239 S 
ATOM     38  O   UNL     1      35.725 -39.893 -31.675  0.00  0.00    -0.116 OA
ATOM     39  O   UNL     1      35.736 -41.074 -30.257  0.00  0.00    -0.116 OA
ATOM     40  O   UNL     1      36.606 -39.777 -29.277  0.00  0.00    -0.022 OA
ENDBRANCH  36  37
ENDBRANCH  27  36
TORSDOF 5
ENDMDL
MODEL 5
REMARK VINA RESULT:    -7.352      6.026      8.824
REMARK INTER + INTRA:         -10.772
REMARK INTER:                  -9.365
REMARK INTRA:                  -1.408
REMARK UNBOUND:                -1.272
REMARK  Name = cpd190.pdb
REMARK  13 active torsions:
REMARK  status: ('A' for Active; 'I' for Inactive)
REMARK    1  A    between atoms: C_1  and  C_2
REMARK    2  A    between atoms: C_2  and  C_3
REMARK    3  A    between atoms: C_2  and  C_4
REMARK    4  A    between atoms: C_7  and  C_8
REMARK    5  A    between atoms: C_14  and  C_15
REMARK    6  A    between atoms: C_18  and  O_19
REMARK    7  A    between atoms: O_19  and  S_20
REMARK    8  A    between atoms: C_24  and  C_25
REMARK    9  A    between atoms: C_24  and  C_26
REMARK   10  A    between atoms: C_30  and  C_31
REMARK   11  A    between atoms: C_32  and  C_33
REMARK   12  A    between atoms: C_35  and  O_36
REMARK   13  A    between atoms: O_36  and  S_37
REMARK                            x       y       z     vdW  Elec       q    Type
REMARK                         _______ _______ _______ _____ _____    ______ ____
ROOT
ATOM      1  C   UNL     1      44.636 -19.553 -40.260  0.00  0.00    -0.035 C 
ATOM      2  C   UNL     1      44.712 -20.888 -39.477  0.00  0.00    -0.049 C 
ATOM      3  C   UNL     1      44.765 -20.505 -37.995  0.00  0.00    -0.045 C 
ATOM      4  C   UNL     1      45.591 -19.199 -37.974  0.00  0.00    -0.000 C 
ATOM      5  C   UNL     1      47.076 -19.587 -38.170  0.00  0.00    -0.057 C 
ATOM      6  C   UNL     1      44.937 -18.464 -39.191  0.00  0.00    -0.027 C 
ATOM      7  C   UNL     1      45.622 -17.098 -39.380  0.00  0.00    -0.031 C 
ATOM      8  C   UNL     1      45.591 -16.385 -40.731  0.00  0.00    -0.049 C 
ATOM      9  C   UNL     1      46.492 -15.133 -40.719  0.00  0.00    -0.049 C 
ATOM     10  C   UNL     1      46.224 -14.160 -39.551  0.00  0.00    -0.029 C 
ATOM     11  C   UNL     1      47.023 -12.760 -39.600  0.00  0.00    -0.025 C 
ATOM     12  C   UNL     1      45.966 -11.707 -40.038  0.00  0.00    -0.059 C 
ATOM     13  C   UNL     1      48.163 -12.758 -40.648  0.00  0.00    -0.045 C 
ATOM     14  C   UNL     1      48.996 -11.473 -40.667  0.00  0.00    -0.023 C 
ATOM     15  C   UNL     1      49.619 -11.151 -39.304  0.00  0.00    +0.095 C 
ATOM     16  C   UNL     1      48.578 -11.127 -38.129  0.00  0.00    -0.003 C 
ATOM     17  C   UNL     1      47.809  -9.790 -38.088  0.00  0.00    -0.057 C 
ATOM     18  C   UNL     1      49.385 -11.174 -36.794  0.00  0.00    -0.057 C 
ATOM     19  C   UNL     1      47.659 -12.413 -38.213  0.00  0.00    -0.028 C 
ATOM     20  C   UNL     1      46.651 -12.561 -37.056  0.00  0.00    -0.049 C 
ATOM     21  C   UNL     1      45.725 -13.787 -37.142  0.00  0.00    -0.047 C 
ATOM     22  C   UNL     1      46.168 -14.887 -38.149  0.00  0.00    -0.023 C 
ATOM     23  C   UNL     1      47.558 -15.443 -37.720  0.00  0.00    -0.059 C 
ATOM     24  C   UNL     1      45.124 -16.124 -38.235  0.00  0.00    -0.021 C 
ATOM     25  C   UNL     1      43.678 -15.591 -38.564  0.00  0.00    -0.059 C 
ATOM     26  C   UNL     1      44.930 -16.879 -36.861  0.00  0.00    -0.018 C 
ATOM     27  C   UNL     1      45.395 -18.374 -36.655  0.00  0.00    +0.096 C 
ENDROOT
BRANCH   1  29
ATOM     28  C   UNL     1      44.276 -19.944 -42.744  0.00  0.00    -0.062 C 
ATOM     29  C   UNL     1      45.300 -19.581 -41.653  0.00  0.00    -0.044 C 
ATOM     30  C   UNL     1      46.514 -20.495 -41.791  0.00  0.00    -0.062 C 
ENDBRANCH   1  29
BRANCH  15  31
ATOM     31  O   UNL     1      50.469 -10.010 -39.219  0.00  0.00    -0.210 OA
BRANCH  31  32
ATOM     32  S   UNL     1      52.080 -10.024 -39.441  0.00  0.00    +0.239 S 
ATOM     33  O   UNL     1      52.273  -9.371 -40.733  0.00  0.00    -0.116 OA
ATOM     34  O   UNL     1      52.402 -11.449 -39.441  0.00  0.00    -0.116 OA
ATOM     35  O   UNL     1      52.620  -9.296 -38.297  0.00  0.00    -0.022 OA
ENDBRANCH  31  32
ENDBRANCH  15  31
BRANCH  27  36
ATOM     36  O   UNL     1      46.465 -18.527 -35.706  0.00  0.00    -0.210 OA
BRANCH  36  37
ATOM     37  S   UNL     1      46.578 -18.260 -34.797  0.00  0.00    +0.239 S 
ATOM     38  O   UNL     1      46.019 -19.605 -34.487  0.00  0.00    -0.116 OA
ATOM     39  O   UNL     1      46.690 -17.994 -33.888  0.00  0.00    -0.116 OA
ATOM     40  O   UNL     1      48.011 -18.151 -35.165  0.00  0.00    -0.022 OA
ENDBRANCH  36  37
ENDBRANCH  27  36
TORSDOF 5
ENDMDL
MODEL 6
REMARK VINA RESULT:    -7.349      3.446      8.723
REMARK INTER + INTRA:         -10.769
REMARK INTER:                  -9.467
REMARK INTRA:                  -1.303
REMARK UNBOUND:                -1.272
REMARK  Name = cpd190.pdb
REMARK  13 active torsions:
REMARK  status: ('A' for Active; 'I' for Inactive)
REMARK    1  A    between atoms: C_1  and  C_2
REMARK    2  A    between atoms: C_2  and  C_3
REMARK    3  A    between atoms: C_2  and  C_4
REMARK    4  A    between atoms: C_7  and  C_8
REMARK    5  A    between atoms: C_14  and  C_15
REMARK    6  A    between atoms: C_18  and  O_19
REMARK    7  A    between atoms: O_19  and  S_20
REMARK    8  A    between atoms: C_24  and  C_25
REMARK    9  A    between atoms: C_24  and  C_26
REMARK   10  A    between atoms: C_30  and  C_31
REMARK   11  A    between atoms: C_32  and  C_33
REMARK   12  A    between atoms: C_35  and  O_36
REMARK   13  A    between atoms: O_36  and  S_37
REMARK                            x       y       z     vdW  Elec       q    Type
REMARK                         _______ _______ _______ _____ _____    ______ ____
ROOT
ATOM      1  C   UNL     1      45.229 -15.265 -40.138  0.00  0.00    -0.035 C 
ATOM      2  C   UNL     1      46.565 -14.621 -39.687  0.00  0.00    -0.049 C 
ATOM      3  C   UNL     1      47.275 -15.676 -38.834  0.00  0.00    -0.045 C 
ATOM      4  C   UNL     1      46.126 -16.395 -38.092  0.00  0.00    -0.000 C 
ATOM      5  C   UNL     1      45.649 -15.459 -36.958  0.00  0.00    -0.057 C 
ATOM      6  C   UNL     1      45.118 -16.558 -39.280  0.00  0.00    -0.027 C 
ATOM      7  C   UNL     1      43.849 -17.263 -38.769  0.00  0.00    -0.031 C 
ATOM      8  C   UNL     1      42.517 -17.113 -39.503  0.00  0.00    -0.049 C 
ATOM      9  C   UNL     1      41.367 -17.760 -38.705  0.00  0.00    -0.049 C 
ATOM     10  C   UNL     1      41.624 -19.220 -38.276  0.00  0.00    -0.029 C 
ATOM     11  C   UNL     1      40.380 -19.985 -37.593  0.00  0.00    -0.025 C 
ATOM     12  C   UNL     1      39.844 -20.947 -38.691  0.00  0.00    -0.059 C 
ATOM     13  C   UNL     1      39.231 -19.024 -37.197  0.00  0.00    -0.045 C 
ATOM     14  C   UNL     1      38.066 -19.705 -36.472  0.00  0.00    -0.023 C 
ATOM     15  C   UNL     1      38.508 -20.445 -35.204  0.00  0.00    +0.095 C 
ATOM     16  C   UNL     1      39.684 -21.456 -35.448  0.00  0.00    -0.003 C 
ATOM     17  C   UNL     1      39.167 -22.785 -36.038  0.00  0.00    -0.057 C 
ATOM     18  C   UNL     1      40.269 -21.832 -34.051  0.00  0.00    -0.057 C 
ATOM     19  C   UNL     1      40.816 -20.752 -36.300  0.00  0.00    -0.028 C 
ATOM     20  C   UNL     1      42.077 -21.610 -36.531  0.00  0.00    -0.049 C 
ATOM     21  C   UNL     1      43.172 -20.954 -37.390  0.00  0.00    -0.047 C 
ATOM     22  C   UNL     1      43.032 -19.418 -37.587  0.00  0.00    -0.023 C 
ATOM     23  C   UNL     1      43.111 -18.714 -36.200  0.00  0.00    -0.059 C 
ATOM     24  C   UNL     1      44.182 -18.795 -38.546  0.00  0.00    -0.021 C 
ATOM     25  C   UNL     1      44.205 -19.554 -39.927  0.00  0.00    -0.059 C 
ATOM     26  C   UNL     1      45.645 -19.007 -37.989  0.00  0.00    -0.018 C 
ATOM     27  C   UNL     1      46.547 -17.795 -37.526  0.00  0.00    +0.096 C 
ENDROOT
BRANCH   1  29
ATOM     28  C   UNL     1      43.530 -14.319 -41.772  0.00  0.00    -0.062 C 
ATOM     29  C   UNL     1      44.063 -14.271 -40.329  0.00  0.00    -0.044 C 
ATOM     30  C   UNL     1      44.361 -12.821 -39.961  0.00  0.00    -0.062 C 
ENDBRANCH   1  29
BRANCH  15  31
ATOM     31  O   UNL     1      37.497 -21.063 -34.413  0.00  0.00    -0.210 OA
BRANCH  31  32
ATOM     32  S   UNL     1      37.074 -20.605 -32.910  0.00  0.00    +0.239 S 
ATOM     33  O   UNL     1      35.753 -20.003 -33.074  0.00  0.00    -0.116 OA
ATOM     34  O   UNL     1      38.120 -19.652 -32.547  0.00  0.00    -0.116 OA
ATOM     35  O   UNL     1      37.097 -21.836 -32.126  0.00  0.00    -0.022 OA
ENDBRANCH  31  32
ENDBRANCH  15  31
BRANCH  27  36
ATOM     36  O   UNL     1      46.840 -17.791 -36.118  0.00  0.00    -0.210 OA
BRANCH  36  37
ATOM     37  S   UNL     1      47.217 -18.437 -35.525  0.00  0.00    +0.239 S 
ATOM     38  O   UNL     1      48.451 -17.613 -35.649  0.00  0.00    -0.116 OA
ATOM     39  O   UNL     1      47.595 -19.082 -34.933  0.00  0.00    -0.116 OA
ATOM     40  O   UNL     1      46.150 -17.988 -34.599  0.00  0.00    -0.022 OA
ENDBRANCH  36  37
ENDBRANCH  27  36
TORSDOF 5
ENDMDL
MODEL 7
REMARK VINA RESULT:    -7.348      4.624      7.174
REMARK INTER + INTRA:         -10.768
REMARK INTER:                  -9.630
REMARK INTRA:                  -1.138
REMARK UNBOUND:                -1.272
REMARK  Name = cpd190.pdb
REMARK  13 active torsions:
REMARK  status: ('A' for Active; 'I' for Inactive)
REMARK    1  A    between atoms: C_1  and  C_2
REMARK    2  A    between atoms: C_2  and  C_3
REMARK    3  A    between atoms: C_2  and  C_4
REMARK    4  A    between atoms: C_7  and  C_8
REMARK    5  A    between atoms: C_14  and  C_15
REMARK    6  A    between atoms: C_18  and  O_19
REMARK    7  A    between atoms: O_19  and  S_20
REMARK    8  A    between atoms: C_24  and  C_25
REMARK    9  A    between atoms: C_24  and  C_26
REMARK   10  A    between atoms: C_30  and  C_31
REMARK   11  A    between atoms: C_32  and  C_33
REMARK   12  A    between atoms: C_35  and  O_36
REMARK   13  A    between atoms: O_36  and  S_37
REMARK                            x       y       z     vdW  Elec       q    Type
REMARK                         _______ _______ _______ _____ _____    ______ ____
ROOT
ATOM      1  C   UNL     1      42.825 -19.849 -38.773  0.00  0.00    -0.035 C 
ATOM      2  C   UNL     1      42.761 -20.883 -37.621  0.00  0.00    -0.049 C 
ATOM      3  C   UNL     1      43.350 -20.183 -36.393  0.00  0.00    -0.045 C 
ATOM      4  C   UNL     1      44.469 -19.288 -36.970  0.00  0.00    -0.000 C 
ATOM      5  C   UNL     1      45.666 -20.205 -37.314  0.00  0.00    -0.057 C 
ATOM      6  C   UNL     1      43.712 -18.702 -38.209  0.00  0.00    -0.027 C 
ATOM      7  C   UNL     1      44.656 -17.755 -38.973  0.00  0.00    -0.031 C 
ATOM      8  C   UNL     1      44.426 -17.440 -40.451  0.00  0.00    -0.049 C 
ATOM      9  C   UNL     1      45.595 -16.621 -41.033  0.00  0.00    -0.049 C 
ATOM     10  C   UNL     1      45.958 -15.357 -40.227  0.00  0.00    -0.029 C 
ATOM     11  C   UNL     1      47.057 -14.383 -40.895  0.00  0.00    -0.025 C 
ATOM     12  C   UNL     1      46.247 -13.174 -41.442  0.00  0.00    -0.059 C 
ATOM     13  C   UNL     1      47.794 -15.043 -42.087  0.00  0.00    -0.045 C 
ATOM     14  C   UNL     1      48.902 -14.178 -42.696  0.00  0.00    -0.023 C 
ATOM     15  C   UNL     1      49.961 -13.762 -41.669  0.00  0.00    +0.095 C 
ATOM     16  C   UNL     1      49.359 -13.082 -40.388  0.00  0.00    -0.003 C 
ATOM     17  C   UNL     1      49.030 -11.597 -40.645  0.00  0.00    -0.057 C 
ATOM     18  C   UNL     1      50.477 -13.070 -39.300  0.00  0.00    -0.057 C 
ATOM     19  C   UNL     1      48.142 -13.944 -39.857  0.00  0.00    -0.028 C 
ATOM     20  C   UNL     1      47.517 -13.434 -38.542  0.00  0.00    -0.049 C 
ATOM     21  C   UNL     1      46.309 -14.239 -38.032  0.00  0.00    -0.047 C 
ATOM     22  C   UNL     1      46.121 -15.640 -38.681  0.00  0.00    -0.023 C 
ATOM     23  C   UNL     1      47.369 -16.520 -38.374  0.00  0.00    -0.059 C 
ATOM     24  C   UNL     1      44.801 -16.415 -38.144  0.00  0.00    -0.021 C 
ATOM     25  C   UNL     1      43.525 -15.511 -38.340  0.00  0.00    -0.059 C 
ATOM     26  C   UNL     1      44.822 -16.682 -36.587  0.00  0.00    -0.018 C 
ATOM     27  C   UNL     1      44.901 -18.143 -35.991  0.00  0.00    +0.096 C 
ENDROOT
BRANCH   1  29
ATOM     28  C   UNL     1      41.897 -21.460 -40.503  0.00  0.00    -0.062 C 
ATOM     29  C   UNL     1      43.017 -20.456 -40.180  0.00  0.00    -0.044 C 
ATOM     30  C   UNL     1      44.366 -21.121 -40.437  0.00  0.00    -0.062 C 
ENDBRANCH   1  29
BRANCH  15  31
ATOM     31  O   UNL     1      51.075 -13.007 -42.137  0.00  0.00    -0.210 OA
BRANCH  31  32
ATOM     32  S   UNL     1      52.066 -13.453 -43.347  0.00  0.00    +0.239 S 
ATOM     33  O   UNL     1      52.262 -14.886 -43.145  0.00  0.00    -0.116 OA
ATOM     34  O   UNL     1      53.263 -12.651 -43.109  0.00  0.00    -0.116 OA
ATOM     35  O   UNL     1      51.348 -13.097 -44.567  0.00  0.00    -0.022 OA
ENDBRANCH  31  32
ENDBRANCH  15  31
BRANCH  27  36
ATOM     36  O   UNL     1      46.119 -18.415 -35.275  0.00  0.00    -0.210 OA
BRANCH  36  37
ATOM     37  S   UNL     1      46.551 -17.997 -34.535  0.00  0.00    +0.239 S 
ATOM     38  O   UNL     1      45.529 -18.711 -33.722  0.00  0.00    -0.116 OA
ATOM     39  O   UNL     1      46.984 -17.579 -33.795  0.00  0.00    -0.116 OA
ATOM     40  O   UNL     1      47.743 -18.747 -35.002  0.00  0.00    -0.022 OA
ENDBRANCH  36  37
ENDBRANCH  27  36
TORSDOF 5
ENDMDL
MODEL 8
REMARK VINA RESULT:    -7.119      3.781      4.860
REMARK INTER + INTRA:         -10.472
REMARK INTER:                  -9.108
REMARK INTRA:                  -1.364
REMARK UNBOUND:                -1.272
REMARK  Name = cpd190.pdb
REMARK  13 active torsions:
REMARK  status: ('A' for Active; 'I' for Inactive)
REMARK    1  A    between atoms: C_1  and  C_2
REMARK    2  A    between atoms: C_2  and  C_3
REMARK    3  A    between atoms: C_2  and  C_4
REMARK    4  A    between atoms: C_7  and  C_8
REMARK    5  A    between atoms: C_14  and  C_15
REMARK    6  A    between atoms: C_18  and  O_19
REMARK    7  A    between atoms: O_19  and  S_20
REMARK    8  A    between atoms: C_24  and  C_25
REMARK    9  A    between atoms: C_24  and  C_26
REMARK   10  A    between atoms: C_30  and  C_31
REMARK   11  A    between atoms: C_32  and  C_33
REMARK   12  A    between atoms: C_35  and  O_36
REMARK   13  A    between atoms: O_36  and  S_37
REMARK                            x       y       z     vdW  Elec       q    Type
REMARK                         _______ _______ _______ _____ _____    ______ ____
ROOT
ATOM      1  C   UNL     1      40.319 -21.599 -34.752  0.00  0.00    -0.035 C 
ATOM      2  C   UNL     1      38.794 -21.408 -34.550  0.00  0.00    -0.049 C 
ATOM      3  C   UNL     1      38.273 -20.779 -35.847  0.00  0.00    -0.045 C 
ATOM      4  C   UNL     1      39.421 -19.850 -36.301  0.00  0.00    -0.000 C 
ATOM      5  C   UNL     1      39.385 -18.594 -35.400  0.00  0.00    -0.057 C 
ATOM      6  C   UNL     1      40.637 -20.805 -36.051  0.00  0.00    -0.027 C 
ATOM      7  C   UNL     1      41.936 -20.075 -36.435  0.00  0.00    -0.031 C 
ATOM      8  C   UNL     1      43.281 -20.503 -35.848  0.00  0.00    -0.049 C 
ATOM      9  C   UNL     1      44.398 -19.515 -36.239  0.00  0.00    -0.049 C 
ATOM     10  C   UNL     1      44.500 -19.226 -37.751  0.00  0.00    -0.029 C 
ATOM     11  C   UNL     1      45.761 -18.336 -38.218  0.00  0.00    -0.025 C 
ATOM     12  C   UNL     1      46.748 -19.344 -38.870  0.00  0.00    -0.059 C 
ATOM     13  C   UNL     1      46.487 -17.658 -37.029  0.00  0.00    -0.045 C 
ATOM     14  C   UNL     1      47.641 -16.739 -37.441  0.00  0.00    -0.023 C 
ATOM     15  C   UNL     1      47.203 -15.633 -38.408  0.00  0.00    +0.095 C 
ATOM     16  C   UNL     1      46.438 -16.171 -39.669  0.00  0.00    -0.003 C 
ATOM     17  C   UNL     1      47.418 -16.707 -40.732  0.00  0.00    -0.057 C 
ATOM     18  C   UNL     1      45.736 -14.950 -40.340  0.00  0.00    -0.057 C 
ATOM     19  C   UNL     1      45.331 -17.206 -39.212  0.00  0.00    -0.028 C 
ATOM     20  C   UNL     1      44.440 -17.741 -40.350  0.00  0.00    -0.049 C 
ATOM     21  C   UNL     1      43.382 -18.776 -39.929  0.00  0.00    -0.047 C 
ATOM     22  C   UNL     1      43.106 -18.860 -38.400  0.00  0.00    -0.023 C 
ATOM     23  C   UNL     1      42.568 -17.487 -37.901  0.00  0.00    -0.059 C 
ATOM     24  C   UNL     1      42.026 -20.006 -38.014  0.00  0.00    -0.021 C 
ATOM     25  C   UNL     1      42.483 -21.398 -38.595  0.00  0.00    -0.059 C 
ATOM     26  C   UNL     1      40.609 -19.782 -38.677  0.00  0.00    -0.018 C 
ATOM     27  C   UNL     1      39.326 -19.458 -37.816  0.00  0.00    +0.096 C 
ENDROOT
BRANCH   1  29
ATOM     28  C   UNL     1      40.835 -22.638 -32.492  0.00  0.00    -0.062 C 
ATOM     29  C   UNL     1      41.161 -21.489 -33.463  0.00  0.00    -0.044 C 
ATOM     30  C   UNL     1      41.057 -20.164 -32.713  0.00  0.00    -0.062 C 
ENDBRANCH   1  29
BRANCH  15  31
ATOM     31  O   UNL     1      48.183 -14.679 -38.808  0.00  0.00    -0.210 OA
BRANCH  31  32
ATOM     32  S   UNL     1      48.476 -13.266 -38.057  0.00  0.00    +0.239 S 
ATOM     33  O   UNL     1      47.600 -13.289 -36.889  0.00  0.00    -0.116 OA
ATOM     34  O   UNL     1      48.102 -12.273 -39.061  0.00  0.00    -0.116 OA
ATOM     35  O   UNL     1      49.904 -13.294 -37.756  0.00  0.00    -0.022 OA
ENDBRANCH  31  32
ENDBRANCH  15  31
BRANCH  27  36
ATOM     36  O   UNL     1      38.786 -18.144 -38.046  0.00  0.00    -0.210 OA
BRANCH  36  37
ATOM     37  S   UNL     1      38.442 -17.704 -38.820  0.00  0.00    +0.239 S 
ATOM     38  O   UNL     1      37.113 -17.984 -38.208  0.00  0.00    -0.116 OA
ATOM     39  O   UNL     1      38.098 -17.263 -39.593  0.00  0.00    -0.116 OA
ATOM     40  O   UNL     1      39.226 -16.547 -38.323  0.00  0.00    -0.022 OA
ENDBRANCH  36  37
ENDBRANCH  27  36
TORSDOF 5
ENDMDL
MODEL 9
REMARK VINA RESULT:    -6.869      3.457      8.867
REMARK INTER + INTRA:         -10.148
REMARK INTER:                  -8.868
REMARK INTRA:                  -1.280
REMARK UNBOUND:                -1.272
REMARK  Name = cpd190.pdb
REMARK  13 active torsions:
REMARK  status: ('A' for Active; 'I' for Inactive)
REMARK    1  A    between atoms: C_1  and  C_2
REMARK    2  A    between atoms: C_2  and  C_3
REMARK    3  A    between atoms: C_2  and  C_4
REMARK    4  A    between atoms: C_7  and  C_8
REMARK    5  A    between atoms: C_14  and  C_15
REMARK    6  A    between atoms: C_18  and  O_19
REMARK    7  A    between atoms: O_19  and  S_20
REMARK    8  A    between atoms: C_24  and  C_25
REMARK    9  A    between atoms: C_24  and  C_26
REMARK   10  A    between atoms: C_30  and  C_31
REMARK   11  A    between atoms: C_32  and  C_33
REMARK   12  A    between atoms: C_35  and  O_36
REMARK   13  A    between atoms: O_36  and  S_37
REMARK                            x       y       z     vdW  Elec       q    Type
REMARK                         _______ _______ _______ _____ _____    ______ ____
ROOT
ATOM      1  C   UNL     1      44.696 -20.111 -40.271  0.00  0.00    -0.035 C 
ATOM      2  C   UNL     1      46.234 -19.923 -40.258  0.00  0.00    -0.049 C 
ATOM      3  C   UNL     1      46.661 -20.047 -38.792  0.00  0.00    -0.045 C 
ATOM      4  C   UNL     1      45.495 -19.407 -38.006  0.00  0.00    -0.000 C 
ATOM      5  C   UNL     1      45.620 -17.873 -38.158  0.00  0.00    -0.057 C 
ATOM      6  C   UNL     1      44.289 -20.049 -38.771  0.00  0.00    -0.027 C 
ATOM      7  C   UNL     1      42.974 -19.539 -38.154  0.00  0.00    -0.031 C 
ATOM      8  C   UNL     1      41.674 -19.550 -38.957  0.00  0.00    -0.049 C 
ATOM      9  C   UNL     1      40.544 -18.830 -38.194  0.00  0.00    -0.049 C 
ATOM     10  C   UNL     1      40.329 -19.322 -36.748  0.00  0.00    -0.029 C 
ATOM     11  C   UNL     1      39.048 -18.717 -35.977  0.00  0.00    -0.025 C 
ATOM     12  C   UNL     1      37.998 -19.864 -35.974  0.00  0.00    -0.059 C 
ATOM     13  C   UNL     1      38.427 -17.503 -36.713  0.00  0.00    -0.045 C 
ATOM     14  C   UNL     1      37.257 -16.850 -35.969  0.00  0.00    -0.023 C 
ATOM     15  C   UNL     1      37.635 -16.393 -34.555  0.00  0.00    +0.095 C 
ATOM     16  C   UNL     1      38.291 -17.523 -33.685  0.00  0.00    -0.003 C 
ATOM     17  C   UNL     1      37.224 -18.464 -33.091  0.00  0.00    -0.057 C 
ATOM     18  C   UNL     1      38.957 -16.833 -32.454  0.00  0.00    -0.057 C 
ATOM     19  C   UNL     1      39.416 -18.251 -34.529  0.00  0.00    -0.028 C 
ATOM     20  C   UNL     1      40.207 -19.325 -33.756  0.00  0.00    -0.049 C 
ATOM     21  C   UNL     1      41.279 -20.068 -34.572  0.00  0.00    -0.047 C 
ATOM     22  C   UNL     1      41.673 -19.398 -35.920  0.00  0.00    -0.023 C 
ATOM     23  C   UNL     1      42.268 -17.988 -35.636  0.00  0.00    -0.059 C 
ATOM     24  C   UNL     1      42.763 -20.257 -36.759  0.00  0.00    -0.021 C 
ATOM     25  C   UNL     1      42.242 -21.728 -36.977  0.00  0.00    -0.059 C 
ATOM     26  C   UNL     1      44.126 -20.464 -35.988  0.00  0.00    -0.018 C 
ATOM     27  C   UNL     1      45.478 -19.822 -36.494  0.00  0.00    +0.096 C 
ENDROOT
BRANCH   1  29
ATOM     28  C   UNL     1      44.313 -19.891 -42.772  0.00  0.00    -0.062 C 
ATOM     29  C   UNL     1      43.958 -19.333 -41.383  0.00  0.00    -0.044 C 
ATOM     30  C   UNL     1      44.169 -17.822 -41.387  0.00  0.00    -0.062 C 
ENDBRANCH   1  29
BRANCH  15  31
ATOM     31  O   UNL     1      36.641 -15.714 -33.793  0.00  0.00    -0.210 OA
BRANCH  31  32
ATOM     32  S   UNL     1      36.543 -14.101 -33.608  0.00  0.00    +0.239 S 
ATOM     33  O   UNL     1      36.541 -13.902 -32.161  0.00  0.00    -0.116 OA
ATOM     34  O   UNL     1      35.276 -13.769 -34.254  0.00  0.00    -0.116 OA
ATOM     35  O   UNL     1      37.716 -13.574 -34.300  0.00  0.00    -0.022 OA
ENDBRANCH  31  32
ENDBRANCH  15  31
BRANCH  27  36
ATOM     36  O   UNL     1      46.018 -18.825 -35.609  0.00  0.00    -0.210 OA
BRANCH  36  37
ATOM     37  S   UNL     1      46.013 -18.719 -34.661  0.00  0.00    +0.239 S 
ATOM     38  O   UNL     1      47.267 -19.520 -34.712  0.00  0.00    -0.116 OA
ATOM     39  O   UNL     1      46.008 -18.614 -33.712  0.00  0.00    -0.116 OA
ATOM     40  O   UNL     1      46.078 -17.271 -34.973  0.00  0.00    -0.022 OA
ENDBRANCH  36  37
ENDBRANCH  27  36
TORSDOF 5
ENDMDL
MODEL 10
REMARK VINA RESULT:    -6.846      3.453      8.839
REMARK INTER + INTRA:         -10.119
REMARK INTER:                  -8.687
REMARK INTRA:                  -1.432
REMARK UNBOUND:                -1.272
REMARK  Name = cpd190.pdb
REMARK  13 active torsions:
REMARK  status: ('A' for Active; 'I' for Inactive)
REMARK    1  A    between atoms: C_1  and  C_2
REMARK    2  A    between atoms: C_2  and  C_3
REMARK    3  A    between atoms: C_2  and  C_4
REMARK    4  A    between atoms: C_7  and  C_8
REMARK    5  A    between atoms: C_14  and  C_15
REMARK    6  A    between atoms: C_18  and  O_19
REMARK    7  A    between atoms: O_19  and  S_20
REMARK    8  A    between atoms: C_24  and  C_25
REMARK    9  A    between atoms: C_24  and  C_26
REMARK   10  A    between atoms: C_30  and  C_31
REMARK   11  A    between atoms: C_32  and  C_33
REMARK   12  A    between atoms: C_35  and  O_36
REMARK   13  A    between atoms: O_36  and  S_37
REMARK                            x       y       z     vdW  Elec       q    Type
REMARK                         _______ _______ _______ _____ _____    ______ ____
ROOT
ATOM      1  C   UNL     1      46.031 -19.896 -40.828  0.00  0.00    -0.035 C 
ATOM      2  C   UNL     1      46.848 -18.846 -41.621  0.00  0.00    -0.049 C 
ATOM      3  C   UNL     1      47.253 -17.772 -40.607  0.00  0.00    -0.045 C 
ATOM      4  C   UNL     1      46.046 -17.691 -39.645  0.00  0.00    -0.000 C 
ATOM      5  C   UNL     1      44.924 -16.914 -40.374  0.00  0.00    -0.057 C 
ATOM      6  C   UNL     1      45.770 -19.219 -39.452  0.00  0.00    -0.027 C 
ATOM      7  C   UNL     1      44.567 -19.397 -38.508  0.00  0.00    -0.031 C 
ATOM      8  C   UNL     1      43.739 -20.682 -38.524  0.00  0.00    -0.049 C 
ATOM      9  C   UNL     1      42.491 -20.550 -37.628  0.00  0.00    -0.049 C 
ATOM     10  C   UNL     1      42.781 -20.073 -36.189  0.00  0.00    -0.029 C 
ATOM     11  C   UNL     1      41.528 -20.089 -35.173  0.00  0.00    -0.025 C 
ATOM     12  C   UNL     1      41.765 -21.324 -34.258  0.00  0.00    -0.059 C 
ATOM     13  C   UNL     1      40.173 -20.284 -35.898  0.00  0.00    -0.045 C 
ATOM     14  C   UNL     1      38.953 -20.223 -34.973  0.00  0.00    -0.023 C 
ATOM     15  C   UNL     1      38.873 -18.912 -34.184  0.00  0.00    +0.095 C 
ATOM     16  C   UNL     1      40.188 -18.571 -33.398  0.00  0.00    -0.003 C 
ATOM     17  C   UNL     1      40.270 -19.358 -32.074  0.00  0.00    -0.057 C 
ATOM     18  C   UNL     1      40.102 -17.072 -32.976  0.00  0.00    -0.057 C 
ATOM     19  C   UNL     1      41.436 -18.759 -34.354  0.00  0.00    -0.028 C 
ATOM     20  C   UNL     1      42.790 -18.364 -33.731  0.00  0.00    -0.049 C 
ATOM     21  C   UNL     1      44.018 -18.575 -34.635  0.00  0.00    -0.047 C 
ATOM     22  C   UNL     1      43.705 -18.792 -36.143  0.00  0.00    -0.023 C 
ATOM     23  C   UNL     1      42.986 -17.529 -36.703  0.00  0.00    -0.059 C 
ATOM     24  C   UNL     1      45.033 -19.065 -37.032  0.00  0.00    -0.021 C 
ATOM     25  C   UNL     1      45.847 -20.274 -36.433  0.00  0.00    -0.059 C 
ATOM     26  C   UNL     1      46.069 -17.873 -36.994  0.00  0.00    -0.018 C 
ATOM     27  C   UNL     1      46.401 -17.013 -38.277  0.00  0.00    +0.096 C 
ENDROOT
BRANCH   1  29
ATOM     28  C   UNL     1      45.485 -21.881 -42.316  0.00  0.00    -0.062 C 
ATOM     29  C   UNL     1      44.932 -20.613 -41.642  0.00  0.00    -0.044 C 
ATOM     30  C   UNL     1      44.225 -19.763 -42.694  0.00  0.00    -0.062 C 
ENDBRANCH   1  29
BRANCH  15  31
ATOM     31  O   UNL     1      37.742 -18.718 -33.338  0.00  0.00    -0.210 OA
BRANCH  31  32
ATOM     32  S   UNL     1      36.443 -17.811 -33.705  0.00  0.00    +0.239 S 
ATOM     33  O   UNL     1      36.031 -17.235 -32.428  0.00  0.00    -0.116 OA
ATOM     34  O   UNL     1      35.500 -18.787 -34.247  0.00  0.00    -0.116 OA
ATOM     35  O   UNL     1      36.926 -16.848 -34.689  0.00  0.00    -0.022 OA
ENDBRANCH  31  32
ENDBRANCH  15  31
BRANCH  27  36
ATOM     36  O   UNL     1      45.986 -15.639 -38.181  0.00  0.00    -0.210 OA
BRANCH  36  37
ATOM     37  S   UNL     1      46.185 -14.936 -37.567  0.00  0.00    +0.239 S 
ATOM     38  O   UNL     1      47.185 -14.523 -38.591  0.00  0.00    -0.116 OA
ATOM     39  O   UNL     1      46.384 -14.233 -36.954  0.00  0.00    -0.116 OA
ATOM     40  O   UNL     1      44.763 -14.564 -37.768  0.00  0.00    -0.022 OA
ENDBRANCH  36  37
ENDBRANCH  27  36
TORSDOF 5
ENDMDL
MODEL 11
REMARK VINA RESULT:    -6.809     18.149     21.565
REMARK INTER + INTRA:         -10.072
REMARK INTER:                  -8.675
REMARK INTRA:                  -1.397
REMARK UNBOUND:                -1.272
REMARK  Name = cpd190.pdb
REMARK  13 active torsions:
REMARK  status: ('A' for Active; 'I' for Inactive)
REMARK    1  A    between atoms: C_1  and  C_2
REMARK    2  A    between atoms: C_2  and  C_3
REMARK    3  A    between atoms: C_2  and  C_4
REMARK    4  A    between atoms: C_7  and  C_8
REMARK    5  A    between atoms: C_14  and  C_15
REMARK    6  A    between atoms: C_18  and  O_19
REMARK    7  A    between atoms: O_19  and  S_20
REMARK    8  A    between atoms: C_24  and  C_25
REMARK    9  A    between atoms: C_24  and  C_26
REMARK   10  A    between atoms: C_30  and  C_31
REMARK   11  A    between atoms: C_32  and  C_33
REMARK   12  A    between atoms: C_35  and  O_36
REMARK   13  A    between atoms: O_36  and  S_37
REMARK                            x       y       z     vdW  Elec       q    Type
REMARK                         _______ _______ _______ _____ _____    ______ ____
ROOT
ATOM      1  C   UNL     1      36.415 -38.458 -30.139  0.00  0.00    -0.035 C 
ATOM      2  C   UNL     1      36.346 -40.004 -30.211  0.00  0.00    -0.049 C 
ATOM      3  C   UNL     1      35.181 -40.331 -31.150  0.00  0.00    -0.045 C 
ATOM      4  C   UNL     1      34.144 -39.223 -30.862  0.00  0.00    -0.000 C 
ATOM      5  C   UNL     1      33.463 -39.564 -29.516  0.00  0.00    -0.057 C 
ATOM      6  C   UNL     1      35.099 -37.983 -30.821  0.00  0.00    -0.027 C 
ATOM      7  C   UNL     1      34.271 -36.719 -30.530  0.00  0.00    -0.031 C 
ATOM      8  C   UNL     1      34.922 -35.474 -29.928  0.00  0.00    -0.049 C 
ATOM      9  C   UNL     1      33.863 -34.414 -29.564  0.00  0.00    -0.049 C 
ATOM     10  C   UNL     1      32.892 -34.057 -30.709  0.00  0.00    -0.029 C 
ATOM     11  C   UNL     1      31.883 -32.831 -30.425  0.00  0.00    -0.025 C 
ATOM     12  C   UNL     1      32.460 -31.635 -31.235  0.00  0.00    -0.059 C 
ATOM     13  C   UNL     1      31.846 -32.423 -28.931  0.00  0.00    -0.045 C 
ATOM     14  C   UNL     1      30.838 -31.314 -28.609  0.00  0.00    -0.023 C 
ATOM     15  C   UNL     1      29.408 -31.674 -29.027  0.00  0.00    +0.095 C 
ATOM     16  C   UNL     1      29.288 -32.123 -30.527  0.00  0.00    -0.003 C 
ATOM     17  C   UNL     1      29.254 -30.906 -31.474  0.00  0.00    -0.057 C 
ATOM     18  C   UNL     1      27.897 -32.809 -30.695  0.00  0.00    -0.057 C 
ATOM     19  C   UNL     1      30.419 -33.180 -30.853  0.00  0.00    -0.028 C 
ATOM     20  C   UNL     1      30.355 -33.775 -32.274  0.00  0.00    -0.049 C 
ATOM     21  C   UNL     1      31.470 -34.778 -32.620  0.00  0.00    -0.047 C 
ATOM     22  C   UNL     1      32.267 -35.331 -31.404  0.00  0.00    -0.023 C 
ATOM     23  C   UNL     1      31.295 -36.097 -30.460  0.00  0.00    -0.059 C 
ATOM     24  C   UNL     1      33.463 -36.337 -31.837  0.00  0.00    -0.021 C 
ATOM     25  C   UNL     1      34.414 -35.632 -32.878  0.00  0.00    -0.059 C 
ATOM     26  C   UNL     1      32.957 -37.616 -32.614  0.00  0.00    -0.018 C 
ATOM     27  C   UNL     1      33.082 -39.068 -32.005  0.00  0.00    +0.096 C 
ENDROOT
BRANCH   1  29
ATOM     28  C   UNL     1      38.343 -38.407 -28.486  0.00  0.00    -0.062 C 
ATOM     29  C   UNL     1      36.925 -37.894 -28.795  0.00  0.00    -0.044 C 
ATOM     30  C   UNL     1      36.031 -38.152 -27.586  0.00  0.00    -0.062 C 
ENDBRANCH   1  29
BRANCH  15  31
ATOM     31  O   UNL     1      28.375 -30.743 -28.717  0.00  0.00    -0.210 OA
BRANCH  31  32
ATOM     32  S   UNL     1      27.396 -30.827 -27.421  0.00  0.00    +0.239 S 
ATOM     33  O   UNL     1      26.192 -30.109 -27.830  0.00  0.00    -0.116 OA
ATOM     34  O   UNL     1      28.165 -30.151 -26.380  0.00  0.00    -0.116 OA
ATOM     35  O   UNL     1      27.211 -32.256 -27.186  0.00  0.00    -0.022 OA
ENDBRANCH  31  32
ENDBRANCH  15  31
BRANCH  27  36
ATOM     36  O   UNL     1      31.818 -39.690 -31.716  0.00  0.00    -0.210 OA
BRANCH  36  37
ATOM     37  S   UNL     1      31.061 -39.914 -32.251  0.00  0.00    +0.239 S 
ATOM     38  O   UNL     1      31.634 -41.288 -32.228  0.00  0.00    -0.116 OA
ATOM     39  O   UNL     1      30.303 -40.138 -32.786  0.00  0.00    -0.116 OA
ATOM     40  O   UNL     1      30.283 -39.446 -31.077  0.00  0.00    -0.022 OA
ENDBRANCH  36  37
ENDBRANCH  27  36
TORSDOF 5
ENDMDL
MODEL 12
REMARK VINA RESULT:    -6.808     19.328     22.799
REMARK INTER + INTRA:         -10.070
REMARK INTER:                  -8.684
REMARK INTRA:                  -1.385
REMARK UNBOUND:                -1.272
REMARK  Name = cpd190.pdb
REMARK  13 active torsions:
REMARK  status: ('A' for Active; 'I' for Inactive)
REMARK    1  A    between atoms: C_1  and  C_2
REMARK    2  A    between atoms: C_2  and  C_3
REMARK    3  A    between atoms: C_2  and  C_4
REMARK    4  A    between atoms: C_7  and  C_8
REMARK    5  A    between atoms: C_14  and  C_15
REMARK    6  A    between atoms: C_18  and  O_19
REMARK    7  A    between atoms: O_19  and  S_20
REMARK    8  A    between atoms: C_24  and  C_25
REMARK    9  A    between atoms: C_24  and  C_26
REMARK   10  A    between atoms: C_30  and  C_31
REMARK   11  A    between atoms: C_32  and  C_33
REMARK   12  A    between atoms: C_35  and  O_36
REMARK   13  A    between atoms: O_36  and  S_37
REMARK                            x       y       z     vdW  Elec       q    Type
REMARK                         _______ _______ _______ _____ _____    ______ ____
ROOT
ATOM      1  C   UNL     1      36.554 -37.615 -29.167  0.00  0.00    -0.035 C 
ATOM      2  C   UNL     1      36.534 -36.114 -28.784  0.00  0.00    -0.049 C 
ATOM      3  C   UNL     1      35.064 -35.685 -28.834  0.00  0.00    -0.045 C 
ATOM      4  C   UNL     1      34.474 -36.503 -30.005  0.00  0.00    -0.000 C 
ATOM      5  C   UNL     1      34.955 -35.844 -31.319  0.00  0.00    -0.057 C 
ATOM      6  C   UNL     1      35.117 -37.896 -29.694  0.00  0.00    -0.027 C 
ATOM      7  C   UNL     1      34.669 -38.907 -30.764  0.00  0.00    -0.031 C 
ATOM      8  C   UNL     1      35.489 -40.164 -31.050  0.00  0.00    -0.049 C 
ATOM      9  C   UNL     1      34.939 -40.920 -32.277  0.00  0.00    -0.049 C 
ATOM     10  C   UNL     1      33.427 -41.223 -32.219  0.00  0.00    -0.029 C 
ATOM     11  C   UNL     1      32.849 -42.160 -33.397  0.00  0.00    -0.025 C 
ATOM     12  C   UNL     1      32.627 -43.550 -32.736  0.00  0.00    -0.059 C 
ATOM     13  C   UNL     1      33.852 -42.340 -34.565  0.00  0.00    -0.045 C 
ATOM     14  C   UNL     1      33.306 -43.159 -35.739  0.00  0.00    -0.023 C 
ATOM     15  C   UNL     1      32.016 -42.571 -36.323  0.00  0.00    +0.095 C 
ATOM     16  C   UNL     1      30.900 -42.321 -35.248  0.00  0.00    -0.003 C 
ATOM     17  C   UNL     1      30.147 -43.623 -34.908  0.00  0.00    -0.057 C 
ATOM     18  C   UNL     1      29.830 -41.390 -35.899  0.00  0.00    -0.057 C 
ATOM     19  C   UNL     1      31.527 -41.577 -33.999  0.00  0.00    -0.028 C 
ATOM     20  C   UNL     1      30.513 -41.185 -32.905  0.00  0.00    -0.049 C 
ATOM     21  C   UNL     1      31.113 -40.495 -31.668  0.00  0.00    -0.047 C 
ATOM     22  C   UNL     1      32.561 -39.956 -31.843  0.00  0.00    -0.023 C 
ATOM     23  C   UNL     1      32.575 -38.880 -32.969  0.00  0.00    -0.059 C 
ATOM     24  C   UNL     1      33.157 -39.291 -30.490  0.00  0.00    -0.021 C 
ATOM     25  C   UNL     1      33.063 -40.316 -29.296  0.00  0.00    -0.059 C 
ATOM     26  C   UNL     1      32.317 -38.055 -29.976  0.00  0.00    -0.018 C 
ATOM     27  C   UNL     1      32.910 -36.591 -29.961  0.00  0.00    +0.096 C 
ENDROOT
BRANCH   1  29
ATOM     28  C   UNL     1      38.948 -38.419 -28.896  0.00  0.00    -0.062 C 
ATOM     29  C   UNL     1      37.831 -38.080 -29.899  0.00  0.00    -0.044 C 
ATOM     30  C   UNL     1      38.383 -37.118 -30.947  0.00  0.00    -0.062 C 
ENDBRANCH   1  29
BRANCH  15  31
ATOM     31  O   UNL     1      31.453 -43.215 -37.462  0.00  0.00    -0.210 OA
BRANCH  31  32
ATOM     32  S   UNL     1      31.387 -42.581 -38.959  0.00  0.00    +0.239 S 
ATOM     33  O   UNL     1      29.963 -42.564 -39.282  0.00  0.00    -0.116 OA
ATOM     34  O   UNL     1      32.165 -43.527 -39.755  0.00  0.00    -0.116 OA
ATOM     35  O   UNL     1      32.005 -41.265 -38.833  0.00  0.00    -0.022 OA
ENDBRANCH  31  32
ENDBRANCH  15  31
BRANCH  27  36
ATOM     36  O   UNL     1      32.248 -35.685 -30.861  0.00  0.00    -0.210 OA
BRANCH  36  37
ATOM     37  S   UNL     1      31.337 -35.425 -30.977  0.00  0.00    +0.239 S 
ATOM     38  O   UNL     1      31.706 -34.279 -30.101  0.00  0.00    -0.116 OA
ATOM     39  O   UNL     1      30.427 -35.165 -31.093  0.00  0.00    -0.116 OA
ATOM     40  O   UNL     1      31.695 -35.367 -32.416  0.00  0.00    -0.022 OA
ENDBRANCH  36  37
ENDBRANCH  27  36
TORSDOF 5
ENDMDL
MODEL 13
REMARK VINA RESULT:    -6.661     19.749     24.258
REMARK INTER + INTRA:          -9.880
REMARK INTER:                  -8.669
REMARK INTRA:                  -1.211
REMARK UNBOUND:                -1.272
REMARK  Name = cpd190.pdb
REMARK  13 active torsions:
REMARK  status: ('A' for Active; 'I' for Inactive)
REMARK    1  A    between atoms: C_1  and  C_2
REMARK    2  A    between atoms: C_2  and  C_3
REMARK    3  A    between atoms: C_2  and  C_4
REMARK    4  A    between atoms: C_7  and  C_8
REMARK    5  A    between atoms: C_14  and  C_15
REMARK    6  A    between atoms: C_18  and  O_19
REMARK    7  A    between atoms: O_19  and  S_20
REMARK    8  A    between atoms: C_24  and  C_25
REMARK    9  A    between atoms: C_24  and  C_26
REMARK   10  A    between atoms: C_30  and  C_31
REMARK   11  A    between atoms: C_32  and  C_33
REMARK   12  A    between atoms: C_35  and  O_36
REMARK   13  A    between atoms: O_36  and  S_37
REMARK                            x       y       z     vdW  Elec       q    Type
REMARK                         _______ _______ _______ _____ _____    ______ ____
ROOT
ATOM      1  C   UNL     1      36.755 -35.735 -30.002  0.00  0.00    -0.035 C 
ATOM      2  C   UNL     1      36.296 -34.429 -30.698  0.00  0.00    -0.049 C 
ATOM      3  C   UNL     1      34.882 -34.150 -30.180  0.00  0.00    -0.045 C 
ATOM      4  C   UNL     1      34.259 -35.554 -30.013  0.00  0.00    -0.000 C 
ATOM      5  C   UNL     1      33.894 -36.070 -31.425  0.00  0.00    -0.057 C 
ATOM      6  C   UNL     1      35.463 -36.289 -29.335  0.00  0.00    -0.027 C 
ATOM      7  C   UNL     1      35.074 -37.754 -29.070  0.00  0.00    -0.031 C 
ATOM      8  C   UNL     1      36.142 -38.835 -28.911  0.00  0.00    -0.049 C 
ATOM      9  C   UNL     1      35.507 -40.238 -28.835  0.00  0.00    -0.049 C 
ATOM     10  C   UNL     1      34.387 -40.380 -27.783  0.00  0.00    -0.029 C 
ATOM     11  C   UNL     1      33.818 -41.872 -27.553  0.00  0.00    -0.025 C 
ATOM     12  C   UNL     1      34.435 -42.336 -26.203  0.00  0.00    -0.059 C 
ATOM     13  C   UNL     1      34.275 -42.862 -28.653  0.00  0.00    -0.045 C 
ATOM     14  C   UNL     1      33.688 -44.270 -28.512  0.00  0.00    -0.023 C 
ATOM     15  C   UNL     1      32.155 -44.274 -28.493  0.00  0.00    +0.095 C 
ATOM     16  C   UNL     1      31.540 -43.301 -27.425  0.00  0.00    -0.003 C 
ATOM     17  C   UNL     1      31.556 -43.932 -26.017  0.00  0.00    -0.057 C 
ATOM     18  C   UNL     1      30.030 -43.124 -27.775  0.00  0.00    -0.057 C 
ATOM     19  C   UNL     1      32.253 -41.892 -27.524  0.00  0.00    -0.028 C 
ATOM     20  C   UNL     1      31.676 -40.810 -26.589  0.00  0.00    -0.049 C 
ATOM     21  C   UNL     1      32.382 -39.444 -26.645  0.00  0.00    -0.047 C 
ATOM     22  C   UNL     1      33.311 -39.226 -27.874  0.00  0.00    -0.023 C 
ATOM     23  C   UNL     1      32.465 -39.313 -29.178  0.00  0.00    -0.059 C 
ATOM     24  C   UNL     1      34.069 -37.793 -27.847  0.00  0.00    -0.021 C 
ATOM     25  C   UNL     1      34.855 -37.621 -26.491  0.00  0.00    -0.059 C 
ATOM     26  C   UNL     1      33.081 -36.560 -27.854  0.00  0.00    -0.018 C 
ATOM     27  C   UNL     1      33.005 -35.558 -29.072  0.00  0.00    +0.096 C 
ENDROOT
BRANCH   1  29
ATOM     28  C   UNL     1      38.902 -37.093 -29.973  0.00  0.00    -0.062 C 
ATOM     29  C   UNL     1      37.722 -36.607 -30.833  0.00  0.00    -0.044 C 
ATOM     30  C   UNL     1      38.268 -35.964 -32.104  0.00  0.00    -0.062 C 
ENDBRANCH   1  29
BRANCH  15  31
ATOM     31  O   UNL     1      31.499 -45.537 -28.430  0.00  0.00    -0.210 OA
BRANCH  31  32
ATOM     32  S   UNL     1      31.406 -46.606 -29.652  0.00  0.00    +0.239 S 
ATOM     33  O   UNL     1      31.485 -45.785 -30.857  0.00  0.00    -0.116 OA
ATOM     34  O   UNL     1      30.103 -47.234 -29.446  0.00  0.00    -0.116 OA
ATOM     35  O   UNL     1      32.536 -47.507 -29.446  0.00  0.00    -0.022 OA
ENDBRANCH  31  32
ENDBRANCH  15  31
BRANCH  27  36
ATOM     36  O   UNL     1      31.749 -35.586 -29.773  0.00  0.00    -0.210 OA
BRANCH  36  37
ATOM     37  S   UNL     1      30.847 -35.421 -29.508  0.00  0.00    +0.239 S 
ATOM     38  O   UNL     1      31.079 -34.068 -30.086  0.00  0.00    -0.116 OA
ATOM     39  O   UNL     1      29.946 -35.256 -29.244  0.00  0.00    -0.116 OA
ATOM     40  O   UNL     1      30.533 -36.544 -30.425  0.00  0.00    -0.022 OA
ENDBRANCH  36  37
ENDBRANCH  27  36
TORSDOF 5
ENDMDL
MODEL 14
REMARK VINA RESULT:    -6.585     17.390     21.682
REMARK INTER + INTRA:          -9.782
REMARK INTER:                  -8.510
REMARK INTRA:                  -1.272
REMARK UNBOUND:                -1.272
REMARK  Name = cpd190.pdb
REMARK  13 active torsions:
REMARK  status: ('A' for Active; 'I' for Inactive)
REMARK    1  A    between atoms: C_1  and  C_2
REMARK    2  A    between atoms: C_2  and  C_3
REMARK    3  A    between atoms: C_2  and  C_4
REMARK    4  A    between atoms: C_7  and  C_8
REMARK    5  A    between atoms: C_14  and  C_15
REMARK    6  A    between atoms: C_18  and  O_19
REMARK    7  A    between atoms: O_19  and  S_20
REMARK    8  A    between atoms: C_24  and  C_25
REMARK    9  A    between atoms: C_24  and  C_26
REMARK   10  A    between atoms: C_30  and  C_31
REMARK   11  A    between atoms: C_32  and  C_33
REMARK   12  A    between atoms: C_35  and  O_36
REMARK   13  A    between atoms: O_36  and  S_37
REMARK                            x       y       z     vdW  Elec       q    Type
REMARK                         _______ _______ _______ _____ _____    ______ ____
ROOT
ATOM      1  C   UNL     1      28.440 -33.112 -31.362  0.00  0.00    -0.035 C 
ATOM      2  C   UNL     1      28.735 -31.599 -31.198  0.00  0.00    -0.049 C 
ATOM      3  C   UNL     1      30.204 -31.413 -31.589  0.00  0.00    -0.045 C 
ATOM      4  C   UNL     1      30.894 -32.702 -31.090  0.00  0.00    -0.000 C 
ATOM      5  C   UNL     1      31.043 -32.583 -29.555  0.00  0.00    -0.057 C 
ATOM      6  C   UNL     1      29.840 -33.757 -31.569  0.00  0.00    -0.027 C 
ATOM      7  C   UNL     1      30.317 -35.163 -31.164  0.00  0.00    -0.031 C 
ATOM      8  C   UNL     1      29.325 -36.316 -31.015  0.00  0.00    -0.049 C 
ATOM      9  C   UNL     1      30.012 -37.568 -30.432  0.00  0.00    -0.049 C 
ATOM     10  C   UNL     1      31.291 -38.004 -31.176  0.00  0.00    -0.029 C 
ATOM     11  C   UNL     1      31.940 -39.404 -30.706  0.00  0.00    -0.025 C 
ATOM     12  C   UNL     1      31.565 -40.419 -31.823  0.00  0.00    -0.059 C 
ATOM     13  C   UNL     1      31.345 -39.920 -29.372  0.00  0.00    -0.045 C 
ATOM     14  C   UNL     1      31.995 -41.207 -28.852  0.00  0.00    -0.023 C 
ATOM     15  C   UNL     1      33.510 -41.071 -28.663  0.00  0.00    +0.095 C 
ATOM     16  C   UNL     1      34.256 -40.543 -29.939  0.00  0.00    -0.003 C 
ATOM     17  C   UNL     1      34.489 -41.675 -30.960  0.00  0.00    -0.057 C 
ATOM     18  C   UNL     1      35.683 -40.098 -29.491  0.00  0.00    -0.057 C 
ATOM     19  C   UNL     1      33.489 -39.284 -30.515  0.00  0.00    -0.028 C 
ATOM     20  C   UNL     1      34.173 -38.608 -31.720  0.00  0.00    -0.049 C 
ATOM     21  C   UNL     1      33.421 -37.405 -32.315  0.00  0.00    -0.047 C 
ATOM     22  C   UNL     1      32.299 -36.811 -31.416  0.00  0.00    -0.023 C 
ATOM     23  C   UNL     1      32.925 -36.296 -30.087  0.00  0.00    -0.059 C 
ATOM     24  C   UNL     1      31.506 -35.584 -32.121  0.00  0.00    -0.021 C 
ATOM     25  C   UNL     1      30.945 -36.036 -33.522  0.00  0.00    -0.059 C 
ATOM     26  C   UNL     1      32.438 -34.359 -32.479  0.00  0.00    -0.018 C 
ATOM     27  C   UNL     1      32.282 -32.956 -31.772  0.00  0.00    +0.096 C 
ENDROOT
BRANCH   1  29
ATOM     28  C   UNL     1      25.961 -33.489 -30.951  0.00  0.00    -0.062 C 
ATOM     29  C   UNL     1      27.381 -33.674 -30.388  0.00  0.00    -0.044 C 
ATOM     30  C   UNL     1      27.427 -33.120 -28.968  0.00  0.00    -0.062 C 
ENDBRANCH   1  29
BRANCH  15  31
ATOM     31  O   UNL     1      34.210 -42.188 -28.121  0.00  0.00    -0.210 OA
BRANCH  31  32
ATOM     32  S   UNL     1      34.664 -42.345 -26.567  0.00  0.00    +0.239 S 
ATOM     33  O   UNL     1      34.416 -41.029 -25.983  0.00  0.00    -0.116 OA
ATOM     34  O   UNL     1      36.079 -42.692 -26.668  0.00  0.00    -0.116 OA
ATOM     35  O   UNL     1      33.827 -43.419 -26.042  0.00  0.00    -0.022 OA
ENDBRANCH  31  32
ENDBRANCH  15  31
BRANCH  27  36
ATOM     36  O   UNL     1      33.409 -32.585 -30.958  0.00  0.00    -0.210 OA
BRANCH  36  37
ATOM     37  S   UNL     1      34.343 -32.775 -31.006  0.00  0.00    +0.239 S 
ATOM     38  O   UNL     1      34.408 -31.518 -31.802  0.00  0.00    -0.116 OA
ATOM     39  O   UNL     1      35.276 -32.965 -31.054  0.00  0.00    -0.116 OA
ATOM     40  O   UNL     1      34.284 -32.680 -29.526  0.00  0.00    -0.022 OA
ENDBRANCH  36  37
ENDBRANCH  27  36
TORSDOF 5
ENDMDL
MODEL 15
REMARK VINA RESULT:    -6.511     22.335     25.108
REMARK INTER + INTRA:          -9.686
REMARK INTER:                  -8.301
REMARK INTRA:                  -1.386
REMARK UNBOUND:                -1.272
REMARK  Name = cpd190.pdb
REMARK  13 active torsions:
REMARK  status: ('A' for Active; 'I' for Inactive)
REMARK    1  A    between atoms: C_1  and  C_2
REMARK    2  A    between atoms: C_2  and  C_3
REMARK    3  A    between atoms: C_2  and  C_4
REMARK    4  A    between atoms: C_7  and  C_8
REMARK    5  A    between atoms: C_14  and  C_15
REMARK    6  A    between atoms: C_18  and  O_19
REMARK    7  A    between atoms: O_19  and  S_20
REMARK    8  A    between atoms: C_24  and  C_25
REMARK    9  A    between atoms: C_24  and  C_26
REMARK   10  A    between atoms: C_30  and  C_31
REMARK   11  A    between atoms: C_32  and  C_33
REMARK   12  A    between atoms: C_35  and  O_36
REMARK   13  A    between atoms: O_36  and  S_37
REMARK                            x       y       z     vdW  Elec       q    Type
REMARK                         _______ _______ _______ _____ _____    ______ ____
ROOT
ATOM      1  C   UNL     1      56.089 -35.951 -48.526  0.00  0.00    -0.035 C 
ATOM      2  C   UNL     1      55.965 -37.213 -47.636  0.00  0.00    -0.049 C 
ATOM      3  C   UNL     1      55.563 -38.354 -48.575  0.00  0.00    -0.045 C 
ATOM      4  C   UNL     1      54.640 -37.678 -49.614  0.00  0.00    -0.000 C 
ATOM      5  C   UNL     1      53.272 -37.441 -48.934  0.00  0.00    -0.057 C 
ATOM      6  C   UNL     1      55.472 -36.381 -49.888  0.00  0.00    -0.027 C 
ATOM      7  C   UNL     1      54.727 -35.514 -50.919  0.00  0.00    -0.031 C 
ATOM      8  C   UNL     1      54.983 -34.010 -51.013  0.00  0.00    -0.049 C 
ATOM      9  C   UNL     1      53.995 -33.338 -51.987  0.00  0.00    -0.049 C 
ATOM     10  C   UNL     1      53.921 -33.995 -53.382  0.00  0.00    -0.029 C 
ATOM     11  C   UNL     1      53.031 -33.220 -54.482  0.00  0.00    -0.025 C 
ATOM     12  C   UNL     1      54.061 -32.539 -55.428  0.00  0.00    -0.059 C 
ATOM     13  C   UNL     1      52.146 -32.111 -53.861  0.00  0.00    -0.045 C 
ATOM     14  C   UNL     1      51.227 -31.407 -54.865  0.00  0.00    -0.023 C 
ATOM     15  C   UNL     1      50.301 -32.380 -55.604  0.00  0.00    +0.095 C 
ATOM     16  C   UNL     1      51.061 -33.575 -56.282  0.00  0.00    -0.003 C 
ATOM     17  C   UNL     1      51.684 -33.151 -57.629  0.00  0.00    -0.057 C 
ATOM     18  C   UNL     1      49.995 -34.654 -56.648  0.00  0.00    -0.057 C 
ATOM     19  C   UNL     1      52.085 -34.201 -55.251  0.00  0.00    -0.028 C 
ATOM     20  C   UNL     1      52.833 -35.449 -55.762  0.00  0.00    -0.049 C 
ATOM     21  C   UNL     1      53.860 -36.049 -54.785  0.00  0.00    -0.047 C 
ATOM     22  C   UNL     1      53.739 -35.563 -53.312  0.00  0.00    -0.023 C 
ATOM     23  C   UNL     1      52.344 -35.968 -52.752  0.00  0.00    -0.059 C 
ATOM     24  C   UNL     1      54.882 -36.185 -52.345  0.00  0.00    -0.021 C 
ATOM     25  C   UNL     1      56.312 -35.887 -52.935  0.00  0.00    -0.059 C 
ATOM     26  C   UNL     1      54.843 -37.763 -52.263  0.00  0.00    -0.018 C 
ATOM     27  C   UNL     1      54.477 -38.521 -50.926  0.00  0.00    +0.096 C 
ENDROOT
BRANCH   1  29
ATOM     28  C   UNL     1      56.909 -33.624 -47.922  0.00  0.00    -0.062 C 
ATOM     29  C   UNL     1      55.743 -34.623 -47.819  0.00  0.00    -0.044 C 
ATOM     30  C   UNL     1      55.319 -34.740 -46.358  0.00  0.00    -0.062 C 
ENDBRANCH   1  29
BRANCH  15  31
ATOM     31  O   UNL     1      49.357 -31.829 -56.518  0.00  0.00    -0.210 OA
BRANCH  31  32
ATOM     32  S   UNL     1      47.799 -31.510 -56.175  0.00  0.00    +0.239 S 
ATOM     33  O   UNL     1      47.450 -32.480 -55.140  0.00  0.00    -0.116 OA
ATOM     34  O   UNL     1      47.125 -31.737 -57.452  0.00  0.00    -0.116 OA
ATOM     35  O   UNL     1      47.790 -30.117 -55.741  0.00  0.00    -0.022 OA
ENDBRANCH  31  32
ENDBRANCH  15  31
BRANCH  27  36
ATOM     36  O   UNL     1      53.247 -39.263 -50.995  0.00  0.00    -0.210 OA
BRANCH  36  37
ATOM     37  S   UNL     1      52.931 -39.956 -51.568  0.00  0.00    +0.239 S 
ATOM     38  O   UNL     1      53.349 -40.861 -50.462  0.00  0.00    -0.116 OA
ATOM     39  O   UNL     1      52.615 -40.650 -52.142  0.00  0.00    -0.116 OA
ATOM     40  O   UNL     1      51.632 -39.248 -51.459  0.00  0.00    -0.022 OA
ENDBRANCH  36  37
ENDBRANCH  27  36
TORSDOF 5
ENDMDL
MODEL 16
REMARK VINA RESULT:    -6.478     21.471     23.879
REMARK INTER + INTRA:          -9.644
REMARK INTER:                  -8.569
REMARK INTRA:                  -1.075
REMARK UNBOUND:                -1.272
REMARK  Name = cpd190.pdb
REMARK  13 active torsions:
REMARK  status: ('A' for Active; 'I' for Inactive)
REMARK    1  A    between atoms: C_1  and  C_2
REMARK    2  A    between atoms: C_2  and  C_3
REMARK    3  A    between atoms: C_2  and  C_4
REMARK    4  A    between atoms: C_7  and  C_8
REMARK    5  A    between atoms: C_14  and  C_15
REMARK    6  A    between atoms: C_18  and  O_19
REMARK    7  A    between atoms: O_19  and  S_20
REMARK    8  A    between atoms: C_24  and  C_25
REMARK    9  A    between atoms: C_24  and  C_26
REMARK   10  A    between atoms: C_30  and  C_31
REMARK   11  A    between atoms: C_32  and  C_33
REMARK   12  A    between atoms: C_35  and  O_36
REMARK   13  A    between atoms: O_36  and  S_37
REMARK                            x       y       z     vdW  Elec       q    Type
REMARK                         _______ _______ _______ _____ _____    ______ ____
ROOT
ATOM      1  C   UNL     1      45.381 -35.310 -56.075  0.00  0.00    -0.035 C 
ATOM      2  C   UNL     1      44.134 -34.406 -55.905  0.00  0.00    -0.049 C 
ATOM      3  C   UNL     1      44.633 -32.966 -56.055  0.00  0.00    -0.045 C 
ATOM      4  C   UNL     1      46.039 -32.987 -55.415  0.00  0.00    -0.000 C 
ATOM      5  C   UNL     1      45.850 -33.010 -53.881  0.00  0.00    -0.057 C 
ATOM      6  C   UNL     1      46.581 -34.320 -56.032  0.00  0.00    -0.027 C 
ATOM      7  C   UNL     1      48.010 -34.568 -55.517  0.00  0.00    -0.031 C 
ATOM      8  C   UNL     1      48.607 -35.975 -55.502  0.00  0.00    -0.049 C 
ATOM      9  C   UNL     1      49.970 -35.993 -54.781  0.00  0.00    -0.049 C 
ATOM     10  C   UNL     1      50.981 -34.947 -55.293  0.00  0.00    -0.029 C 
ATOM     11  C   UNL     1      52.472 -35.048 -54.686  0.00  0.00    -0.025 C 
ATOM     12  C   UNL     1      53.330 -35.674 -55.822  0.00  0.00    -0.059 C 
ATOM     13  C   UNL     1      52.553 -35.983 -53.454  0.00  0.00    -0.045 C 
ATOM     14  C   UNL     1      53.938 -36.041 -52.800  0.00  0.00    -0.023 C 
ATOM     15  C   UNL     1      54.447 -34.661 -52.369  0.00  0.00    +0.095 C 
ATOM     16  C   UNL     1      54.415 -33.594 -53.519  0.00  0.00    -0.003 C 
ATOM     17  C   UNL     1      55.630 -33.744 -54.458  0.00  0.00    -0.057 C 
ATOM     18  C   UNL     1      54.584 -32.192 -52.856  0.00  0.00    -0.057 C 
ATOM     19  C   UNL     1      53.010 -33.645 -54.247  0.00  0.00    -0.028 C 
ATOM     20  C   UNL     1      52.811 -32.577 -55.341  0.00  0.00    -0.049 C 
ATOM     21  C   UNL     1      51.464 -32.637 -56.083  0.00  0.00    -0.047 C 
ATOM     22  C   UNL     1      50.364 -33.496 -55.397  0.00  0.00    -0.023 C 
ATOM     23  C   UNL     1      50.043 -32.894 -53.997  0.00  0.00    -0.059 C 
ATOM     24  C   UNL     1      48.990 -33.566 -56.254  0.00  0.00    -0.021 C 
ATOM     25  C   UNL     1      49.289 -34.073 -57.716  0.00  0.00    -0.059 C 
ATOM     26  C   UNL     1      48.323 -32.153 -56.488  0.00  0.00    -0.018 C 
ATOM     27  C   UNL     1      46.927 -31.772 -55.853  0.00  0.00    +0.096 C 
ENDROOT
BRANCH   1  29
ATOM     28  C   UNL     1      45.091 -37.830 -56.201  0.00  0.00    -0.062 C 
ATOM     29  C   UNL     1      45.340 -36.629 -55.273  0.00  0.00    -0.044 C 
ATOM     30  C   UNL     1      44.336 -36.675 -54.125  0.00  0.00    -0.062 C 
ENDBRANCH   1  29
BRANCH  15  31
ATOM     31  O   UNL     1      55.699 -34.602 -51.690  0.00  0.00    -0.210 OA
BRANCH  31  32
ATOM     32  S   UNL     1      55.900 -34.740 -50.082  0.00  0.00    +0.239 S 
ATOM     33  O   UNL     1      54.647 -35.323 -49.610  0.00  0.00    -0.116 OA
ATOM     34  O   UNL     1      56.109 -33.358 -49.655  0.00  0.00    -0.116 OA
ATOM     35  O   UNL     1      57.074 -35.592 -49.925  0.00  0.00    -0.022 OA
ENDBRANCH  31  32
ENDBRANCH  15  31
BRANCH  27  36
ATOM     36  O   UNL     1      47.000 -30.719 -54.876  0.00  0.00    -0.210 OA
BRANCH  36  37
ATOM     37  S   UNL     1      47.609 -29.999 -54.732  0.00  0.00    +0.239 S 
ATOM     38  O   UNL     1      46.754 -29.272 -55.709  0.00  0.00    -0.116 OA
ATOM     39  O   UNL     1      48.219 -29.280 -54.588  0.00  0.00    -0.116 OA
ATOM     40  O   UNL     1      47.157 -30.098 -53.322  0.00  0.00    -0.022 OA
ENDBRANCH  36  37
ENDBRANCH  27  36
TORSDOF 5
ENDMDL
MODEL 17
REMARK VINA RESULT:    -6.404      4.396      6.225
REMARK INTER + INTRA:          -9.548
REMARK INTER:                  -8.281
REMARK INTRA:                  -1.267
REMARK UNBOUND:                -1.272
REMARK  Name = cpd190.pdb
REMARK  13 active torsions:
REMARK  status: ('A' for Active; 'I' for Inactive)
REMARK    1  A    between atoms: C_1  and  C_2
REMARK    2  A    between atoms: C_2  and  C_3
REMARK    3  A    between atoms: C_2  and  C_4
REMARK    4  A    between atoms: C_7  and  C_8
REMARK    5  A    between atoms: C_14  and  C_15
REMARK    6  A    between atoms: C_18  and  O_19
REMARK    7  A    between atoms: O_19  and  S_20
REMARK    8  A    between atoms: C_24  and  C_25
REMARK    9  A    between atoms: C_24  and  C_26
REMARK   10  A    between atoms: C_30  and  C_31
REMARK   11  A    between atoms: C_32  and  C_33
REMARK   12  A    between atoms: C_35  and  O_36
REMARK   13  A    between atoms: O_36  and  S_37
REMARK                            x       y       z     vdW  Elec       q    Type
REMARK                         _______ _______ _______ _____ _____    ______ ____
ROOT
ATOM      1  C   UNL     1      41.018 -19.798 -33.605  0.00  0.00    -0.035 C 
ATOM      2  C   UNL     1      39.937 -20.879 -33.858  0.00  0.00    -0.049 C 
ATOM      3  C   UNL     1      40.423 -21.688 -35.064  0.00  0.00    -0.045 C 
ATOM      4  C   UNL     1      41.126 -20.643 -35.959  0.00  0.00    -0.000 C 
ATOM      5  C   UNL     1      40.023 -19.816 -36.660  0.00  0.00    -0.057 C 
ATOM      6  C   UNL     1      41.932 -19.868 -34.862  0.00  0.00    -0.027 C 
ATOM      7  C   UNL     1      42.731 -18.736 -35.532  0.00  0.00    -0.031 C 
ATOM      8  C   UNL     1      43.187 -17.517 -34.731  0.00  0.00    -0.049 C 
ATOM      9  C   UNL     1      43.806 -16.446 -35.652  0.00  0.00    -0.049 C 
ATOM     10  C   UNL     1      44.918 -16.967 -36.586  0.00  0.00    -0.029 C 
ATOM     11  C   UNL     1      45.708 -15.849 -37.439  0.00  0.00    -0.025 C 
ATOM     12  C   UNL     1      47.085 -15.700 -36.733  0.00  0.00    -0.059 C 
ATOM     13  C   UNL     1      45.004 -14.469 -37.411  0.00  0.00    -0.045 C 
ATOM     14  C   UNL     1      45.682 -13.402 -38.276  0.00  0.00    -0.023 C 
ATOM     15  C   UNL     1      45.814 -13.825 -39.744  0.00  0.00    +0.095 C 
ATOM     16  C   UNL     1      46.505 -15.222 -39.933  0.00  0.00    -0.003 C 
ATOM     17  C   UNL     1      48.040 -15.106 -39.833  0.00  0.00    -0.057 C 
ATOM     18  C   UNL     1      46.226 -15.683 -41.397  0.00  0.00    -0.057 C 
ATOM     19  C   UNL     1      45.857 -16.270 -38.939  0.00  0.00    -0.028 C 
ATOM     20  C   UNL     1      46.383 -17.711 -39.089  0.00  0.00    -0.049 C 
ATOM     21  C   UNL     1      45.791 -18.735 -38.105  0.00  0.00    -0.047 C 
ATOM     22  C   UNL     1      44.501 -18.278 -37.366  0.00  0.00    -0.023 C 
ATOM     23  C   UNL     1      43.380 -18.006 -38.411  0.00  0.00    -0.059 C 
ATOM     24  C   UNL     1      43.958 -19.375 -36.303  0.00  0.00    -0.021 C 
ATOM     25  C   UNL     1      45.100 -19.757 -35.287  0.00  0.00    -0.059 C 
ATOM     26  C   UNL     1      43.583 -20.759 -36.966  0.00  0.00    -0.018 C 
ATOM     27  C   UNL     1      42.096 -21.290 -37.007  0.00  0.00    +0.096 C 
ENDROOT
BRANCH   1  29
ATOM     28  C   UNL     1      39.638 -18.732 -31.759  0.00  0.00    -0.062 C 
ATOM     29  C   UNL     1      40.486 -18.474 -33.017  0.00  0.00    -0.044 C 
ATOM     30  C   UNL     1      39.691 -17.594 -33.977  0.00  0.00    -0.062 C 
ENDBRANCH   1  29
BRANCH  15  31
ATOM     31  O   UNL     1      46.372 -12.883 -40.655  0.00  0.00    -0.210 OA
BRANCH  31  32
ATOM     32  S   UNL     1      45.530 -12.038 -41.761  0.00  0.00    +0.239 S 
ATOM     33  O   UNL     1      44.216 -12.674 -41.779  0.00  0.00    -0.116 OA
ATOM     34  O   UNL     1      46.302 -12.234 -42.986  0.00  0.00    -0.116 OA
ATOM     35  O   UNL     1      45.542 -10.664 -41.268  0.00  0.00    -0.022 OA
ENDBRANCH  31  32
ENDBRANCH  15  31
BRANCH  27  36
ATOM     36  O   UNL     1      41.545 -21.381 -38.333  0.00  0.00    -0.210 OA
BRANCH  36  37
ATOM     37  S   UNL     1      41.879 -21.722 -39.159  0.00  0.00    +0.239 S 
ATOM     38  O   UNL     1      41.293 -23.010 -38.695  0.00  0.00    -0.116 OA
ATOM     39  O   UNL     1      42.213 -22.064 -39.985  0.00  0.00    -0.116 OA
ATOM     40  O   UNL     1      40.983 -20.708 -39.767  0.00  0.00    -0.022 OA
ENDBRANCH  36  37
ENDBRANCH  27  36
TORSDOF 5
ENDMDL
MODEL 18
REMARK VINA RESULT:    -6.353      3.153      3.876
REMARK INTER + INTRA:          -9.481
REMARK INTER:                  -8.092
REMARK INTRA:                  -1.389
REMARK UNBOUND:                -1.272
REMARK  Name = cpd190.pdb
REMARK  13 active torsions:
REMARK  status: ('A' for Active; 'I' for Inactive)
REMARK    1  A    between atoms: C_1  and  C_2
REMARK    2  A    between atoms: C_2  and  C_3
REMARK    3  A    between atoms: C_2  and  C_4
REMARK    4  A    between atoms: C_7  and  C_8
REMARK    5  A    between atoms: C_14  and  C_15
REMARK    6  A    between atoms: C_18  and  O_19
REMARK    7  A    between atoms: O_19  and  S_20
REMARK    8  A    between atoms: C_24  and  C_25
REMARK    9  A    between atoms: C_24  and  C_26
REMARK   10  A    between atoms: C_30  and  C_31
REMARK   11  A    between atoms: C_32  and  C_33
REMARK   12  A    between atoms: C_35  and  O_36
REMARK   13  A    between atoms: O_36  and  S_37
REMARK                            x       y       z     vdW  Elec       q    Type
REMARK                         _______ _______ _______ _____ _____    ______ ____
ROOT
ATOM      1  C   UNL     1      39.149 -22.144 -34.151  0.00  0.00    -0.035 C 
ATOM      2  C   UNL     1      38.016 -21.859 -33.133  0.00  0.00    -0.049 C 
ATOM      3  C   UNL     1      37.203 -20.701 -33.721  0.00  0.00    -0.045 C 
ATOM      4  C   UNL     1      38.259 -19.821 -34.428  0.00  0.00    -0.000 C 
ATOM      5  C   UNL     1      39.019 -19.040 -33.331  0.00  0.00    -0.057 C 
ATOM      6  C   UNL     1      39.092 -20.941 -35.136  0.00  0.00    -0.027 C 
ATOM      7  C   UNL     1      40.244 -20.290 -35.922  0.00  0.00    -0.031 C 
ATOM      8  C   UNL     1      41.499 -21.084 -36.279  0.00  0.00    -0.049 C 
ATOM      9  C   UNL     1      42.576 -20.173 -36.902  0.00  0.00    -0.049 C 
ATOM     10  C   UNL     1      42.084 -19.315 -38.087  0.00  0.00    -0.029 C 
ATOM     11  C   UNL     1      43.217 -18.480 -38.874  0.00  0.00    -0.025 C 
ATOM     12  C   UNL     1      43.443 -19.257 -40.202  0.00  0.00    -0.059 C 
ATOM     13  C   UNL     1      44.564 -18.435 -38.111  0.00  0.00    -0.045 C 
ATOM     14  C   UNL     1      45.641 -17.582 -38.790  0.00  0.00    -0.023 C 
ATOM     15  C   UNL     1      45.192 -16.136 -39.023  0.00  0.00    +0.095 C 
ATOM     16  C   UNL     1      43.824 -16.019 -39.783  0.00  0.00    -0.003 C 
ATOM     17  C   UNL     1      44.010 -16.201 -41.304  0.00  0.00    -0.057 C 
ATOM     18  C   UNL     1      43.319 -14.553 -39.608  0.00  0.00    -0.057 C 
ATOM     19  C   UNL     1      42.770 -17.001 -39.126  0.00  0.00    -0.028 C 
ATOM     20  C   UNL     1      41.351 -16.916 -39.721  0.00  0.00    -0.049 C 
ATOM     21  C   UNL     1      40.324 -17.890 -39.119  0.00  0.00    -0.047 C 
ATOM     22  C   UNL     1      40.740 -18.546 -37.771  0.00  0.00    -0.023 C 
ATOM     23  C   UNL     1      40.938 -17.433 -36.700  0.00  0.00    -0.059 C 
ATOM     24  C   UNL     1      39.643 -19.604 -37.217  0.00  0.00    -0.021 C 
ATOM     25  C   UNL     1      39.335 -20.690 -38.316  0.00  0.00    -0.059 C 
ATOM     26  C   UNL     1      38.229 -18.955 -36.940  0.00  0.00    -0.018 C 
ATOM     27  C   UNL     1      37.632 -18.845 -35.482  0.00  0.00    +0.096 C 
ENDROOT
BRANCH   1  29
ATOM     28  C   UNL     1      40.213 -23.958 -32.727  0.00  0.00    -0.062 C 
ATOM     29  C   UNL     1      40.461 -22.669 -33.529  0.00  0.00    -0.044 C 
ATOM     30  C   UNL     1      41.222 -21.680 -32.652  0.00  0.00    -0.062 C 
ENDBRANCH   1  29
BRANCH  15  31
ATOM     31  O   UNL     1      46.138 -15.233 -39.590  0.00  0.00    -0.210 OA
BRANCH  31  32
ATOM     32  S   UNL     1      47.061 -14.192 -38.748  0.00  0.00    +0.239 S 
ATOM     33  O   UNL     1      46.419 -14.117 -37.438  0.00  0.00    -0.116 OA
ATOM     34  O   UNL     1      46.966 -12.960 -39.527  0.00  0.00    -0.116 OA
ATOM     35  O   UNL     1      48.392 -14.791 -38.748  0.00  0.00    -0.022 OA
ENDBRANCH  31  32
ENDBRANCH  15  31
BRANCH  27  36
ATOM     36  O   UNL     1      37.487 -17.493 -35.012  0.00  0.00    -0.210 OA
BRANCH  36  37
ATOM     37  S   UNL     1      37.007 -16.734 -35.335  0.00  0.00    +0.239 S 
ATOM     38  O   UNL     1      35.990 -17.129 -34.322  0.00  0.00    -0.116 OA
ATOM     39  O   UNL     1      36.527 -15.976 -35.659  0.00  0.00    -0.116 OA
ATOM     40  O   UNL     1      38.202 -15.977 -34.889  0.00  0.00    -0.022 OA
ENDBRANCH  36  37
ENDBRANCH  27  36
TORSDOF 5
ENDMDL
MODEL 19
REMARK VINA RESULT:    -6.317     17.822     22.952
REMARK INTER + INTRA:          -9.435
REMARK INTER:                  -8.017
REMARK INTRA:                  -1.418
REMARK UNBOUND:                -1.272
REMARK  Name = cpd190.pdb
REMARK  13 active torsions:
REMARK  status: ('A' for Active; 'I' for Inactive)
REMARK    1  A    between atoms: C_1  and  C_2
REMARK    2  A    between atoms: C_2  and  C_3
REMARK    3  A    between atoms: C_2  and  C_4
REMARK    4  A    between atoms: C_7  and  C_8
REMARK    5  A    between atoms: C_14  and  C_15
REMARK    6  A    between atoms: C_18  and  O_19
REMARK    7  A    between atoms: O_19  and  S_20
REMARK    8  A    between atoms: C_24  and  C_25
REMARK    9  A    between atoms: C_24  and  C_26
REMARK   10  A    between atoms: C_30  and  C_31
REMARK   11  A    between atoms: C_32  and  C_33
REMARK   12  A    between atoms: C_35  and  O_36
REMARK   13  A    between atoms: O_36  and  S_37
REMARK                            x       y       z     vdW  Elec       q    Type
REMARK                         _______ _______ _______ _____ _____    ______ ____
ROOT
ATOM      1  C   UNL     1      32.377 -37.351 -33.826  0.00  0.00    -0.035 C 
ATOM      2  C   UNL     1      32.419 -36.114 -34.758  0.00  0.00    -0.049 C 
ATOM      3  C   UNL     1      33.289 -35.077 -34.041  0.00  0.00    -0.045 C 
ATOM      4  C   UNL     1      32.964 -35.284 -32.544  0.00  0.00    -0.000 C 
ATOM      5  C   UNL     1      31.578 -34.651 -32.279  0.00  0.00    -0.057 C 
ATOM      6  C   UNL     1      32.995 -36.848 -32.491  0.00  0.00    -0.027 C 
ATOM      7  C   UNL     1      32.683 -37.308 -31.055  0.00  0.00    -0.031 C 
ATOM      8  C   UNL     1      32.137 -38.709 -30.780  0.00  0.00    -0.049 C 
ATOM      9  C   UNL     1      31.736 -38.868 -29.300  0.00  0.00    -0.049 C 
ATOM     10  C   UNL     1      32.834 -38.472 -28.291  0.00  0.00    -0.029 C 
ATOM     11  C   UNL     1      32.517 -38.787 -26.741  0.00  0.00    -0.025 C 
ATOM     12  C   UNL     1      33.377 -40.037 -26.398  0.00  0.00    -0.059 C 
ATOM     13  C   UNL     1      31.030 -39.148 -26.497  0.00  0.00    -0.045 C 
ATOM     14  C   UNL     1      30.674 -39.375 -25.024  0.00  0.00    -0.023 C 
ATOM     15  C   UNL     1      31.010 -38.169 -24.140  0.00  0.00    +0.095 C 
ATOM     16  C   UNL     1      32.493 -37.676 -24.288  0.00  0.00    -0.003 C 
ATOM     17  C   UNL     1      33.458 -38.547 -23.458  0.00  0.00    -0.057 C 
ATOM     18  C   UNL     1      32.576 -36.255 -23.651  0.00  0.00    -0.057 C 
ATOM     19  C   UNL     1      32.861 -37.566 -25.824  0.00  0.00    -0.028 C 
ATOM     20  C   UNL     1      34.266 -37.001 -26.111  0.00  0.00    -0.049 C 
ATOM     21  C   UNL     1      34.653 -36.922 -27.598  0.00  0.00    -0.047 C 
ATOM     22  C   UNL     1      33.473 -37.060 -28.602  0.00  0.00    -0.023 C 
ATOM     23  C   UNL     1      32.465 -35.896 -28.371  0.00  0.00    -0.059 C 
ATOM     24  C   UNL     1      33.952 -37.027 -30.151  0.00  0.00    -0.021 C 
ATOM     25  C   UNL     1      35.053 -38.125 -30.401  0.00  0.00    -0.059 C 
ATOM     26  C   UNL     1      34.678 -35.683 -30.553  0.00  0.00    -0.018 C 
ATOM     27  C   UNL     1      34.052 -34.674 -31.594  0.00  0.00    +0.096 C 
ENDROOT
BRANCH   1  29
ATOM     28  C   UNL     1      31.183 -39.290 -34.952  0.00  0.00    -0.062 C 
ATOM     29  C   UNL     1      31.072 -38.174 -33.900  0.00  0.00    -0.044 C 
ATOM     30  C   UNL     1      29.798 -37.374 -34.159  0.00  0.00    -0.062 C 
ENDBRANCH   1  29
BRANCH  15  31
ATOM     31  O   UNL     1      30.661 -38.243 -22.760  0.00  0.00    -0.210 OA
BRANCH  31  32
ATOM     32  S   UNL     1      29.301 -37.640 -22.104  0.00  0.00    +0.239 S 
ATOM     33  O   UNL     1      29.767 -36.839 -20.976  0.00  0.00    -0.116 OA
ATOM     34  O   UNL     1      28.561 -38.838 -21.716  0.00  0.00    -0.116 OA
ATOM     35  O   UNL     1      28.673 -36.880 -23.181  0.00  0.00    -0.022 OA
ENDBRANCH  31  32
ENDBRANCH  15  31
BRANCH  27  36
ATOM     36  O   UNL     1      33.686 -33.403 -31.027  0.00  0.00    -0.210 OA
BRANCH  36  37
ATOM     37  S   UNL     1      34.161 -32.751 -30.518  0.00  0.00    +0.239 S 
ATOM     38  O   UNL     1      34.407 -32.112 -31.840  0.00  0.00    -0.116 OA
ATOM     39  O   UNL     1      34.637 -32.100 -30.009  0.00  0.00    -0.116 OA
ATOM     40  O   UNL     1      32.853 -32.536 -29.854  0.00  0.00    -0.022 OA
ENDBRANCH  36  37
ENDBRANCH  27  36
TORSDOF 5
ENDMDL
MODEL 20
REMARK VINA RESULT:    -6.285     18.235     23.030
REMARK INTER + INTRA:          -9.394
REMARK INTER:                  -7.994
REMARK INTRA:                  -1.401
REMARK UNBOUND:                -1.272
REMARK  Name = cpd190.pdb
REMARK  13 active torsions:
REMARK  status: ('A' for Active; 'I' for Inactive)
REMARK    1  A    between atoms: C_1  and  C_2
REMARK    2  A    between atoms: C_2  and  C_3
REMARK    3  A    between atoms: C_2  and  C_4
REMARK    4  A    between atoms: C_7  and  C_8
REMARK    5  A    between atoms: C_14  and  C_15
REMARK    6  A    between atoms: C_18  and  O_19
REMARK    7  A    between atoms: O_19  and  S_20
REMARK    8  A    between atoms: C_24  and  C_25
REMARK    9  A    between atoms: C_24  and  C_26
REMARK   10  A    between atoms: C_30  and  C_31
REMARK   11  A    between atoms: C_32  and  C_33
REMARK   12  A    between atoms: C_35  and  O_36
REMARK   13  A    between atoms: O_36  and  S_37
REMARK                            x       y       z     vdW  Elec       q    Type
REMARK                         _______ _______ _______ _____ _____    ______ ____
ROOT
ATOM      1  C   UNL     1      32.392 -43.473 -29.047  0.00  0.00    -0.035 C 
ATOM      2  C   UNL     1      31.819 -44.555 -29.997  0.00  0.00    -0.049 C 
ATOM      3  C   UNL     1      32.294 -44.175 -31.403  0.00  0.00    -0.045 C 
ATOM      4  C   UNL     1      32.277 -42.630 -31.401  0.00  0.00    -0.000 C 
ATOM      5  C   UNL     1      30.802 -42.183 -31.522  0.00  0.00    -0.057 C 
ATOM      6  C   UNL     1      32.931 -42.370 -30.002  0.00  0.00    -0.027 C 
ATOM      7  C   UNL     1      33.016 -40.852 -29.762  0.00  0.00    -0.031 C 
ATOM      8  C   UNL     1      33.110 -40.284 -28.346  0.00  0.00    -0.049 C 
ATOM      9  C   UNL     1      33.003 -38.746 -28.356  0.00  0.00    -0.049 C 
ATOM     10  C   UNL     1      33.976 -38.040 -29.322  0.00  0.00    -0.029 C 
ATOM     11  C   UNL     1      34.015 -36.430 -29.236  0.00  0.00    -0.025 C 
ATOM     12  C   UNL     1      35.336 -36.097 -28.485  0.00  0.00    -0.059 C 
ATOM     13  C   UNL     1      32.839 -35.847 -28.414  0.00  0.00    -0.045 C 
ATOM     14  C   UNL     1      32.798 -34.316 -28.377  0.00  0.00    -0.023 C 
ATOM     15  C   UNL     1      32.741 -33.691 -29.775  0.00  0.00    +0.095 C 
ATOM     16  C   UNL     1      33.876 -34.198 -30.735  0.00  0.00    -0.003 C 
ATOM     17  C   UNL     1      35.206 -33.465 -30.466  0.00  0.00    -0.057 C 
ATOM     18  C   UNL     1      33.472 -33.790 -32.186  0.00  0.00    -0.057 C 
ATOM     19  C   UNL     1      33.965 -35.776 -30.657  0.00  0.00    -0.028 C 
ATOM     20  C   UNL     1      34.982 -36.413 -31.626  0.00  0.00    -0.049 C 
ATOM     21  C   UNL     1      35.108 -37.943 -31.536  0.00  0.00    -0.047 C 
ATOM     22  C   UNL     1      33.958 -38.663 -30.775  0.00  0.00    -0.023 C 
ATOM     23  C   UNL     1      32.612 -38.397 -31.510  0.00  0.00    -0.059 C 
ATOM     24  C   UNL     1      34.177 -40.265 -30.665  0.00  0.00    -0.021 C 
ATOM     25  C   UNL     1      35.580 -40.578 -30.020  0.00  0.00    -0.059 C 
ATOM     26  C   UNL     1      34.254 -40.985 -32.070  0.00  0.00    -0.018 C 
ATOM     27  C   UNL     1      33.149 -42.009 -32.545  0.00  0.00    +0.096 C 
ENDROOT
BRANCH   1  29
ATOM     28  C   UNL     1      32.276 -43.506 -26.509  0.00  0.00    -0.062 C 
ATOM     29  C   UNL     1      31.521 -43.172 -27.808  0.00  0.00    -0.044 C 
ATOM     30  C   UNL     1      30.156 -43.853 -27.775  0.00  0.00    -0.062 C 
ENDBRANCH   1  29
BRANCH  15  31
ATOM     31  O   UNL     1      32.635 -32.272 -29.861  0.00  0.00    -0.210 OA
BRANCH  31  32
ATOM     32  S   UNL     1      31.239 -31.441 -29.947  0.00  0.00    +0.239 S 
ATOM     33  O   UNL     1      30.801 -31.326 -28.559  0.00  0.00    -0.116 OA
ATOM     34  O   UNL     1      30.390 -32.302 -30.768  0.00  0.00    -0.116 OA
ATOM     35  O   UNL     1      31.595 -30.179 -30.587  0.00  0.00    -0.022 OA
ENDBRANCH  31  32
ENDBRANCH  15  31
BRANCH  27  36
ATOM     36  O   UNL     1      32.388 -41.559 -33.681  0.00  0.00    -0.210 OA
BRANCH  36  37
ATOM     37  S   UNL     1      32.629 -41.262 -34.555  0.00  0.00    +0.239 S 
ATOM     38  O   UNL     1      32.305 -42.658 -34.959  0.00  0.00    -0.116 OA
ATOM     39  O   UNL     1      32.869 -40.965 -35.429  0.00  0.00    -0.116 OA
ATOM     40  O   UNL     1      31.517 -40.298 -34.368  0.00  0.00    -0.022 OA
ENDBRANCH  36  37
ENDBRANCH  27  36
TORSDOF 5
ENDMDL
