REMARK  Name = cpd305.pdb
REMARK  18 active torsions:
REMARK  status: ('A' for Active; 'I' for Inactive)
REMARK    1  A    between atoms: C_1  and  C_2
REMARK    2  A    between atoms: C_2  and  C_3
REMARK    3  A    between atoms: C_2  and  C_20
REMARK    4  A    between atoms: C_3  and  C_4
REMARK    5  A    between atoms: C_4  and  C_5
REMARK    6  A    between atoms: C_6  and  C_7
REMARK    7  A    between atoms: C_7  and  O_8
REMARK    8  A    between atoms: C_12  and  C_13
REMARK    9  A    between atoms: C_12  and  C_14
REMARK   10  A    between atoms: C_18  and  C_19
REMARK   11  A    between atoms: C_20  and  C_21
REMARK   12  A    between atoms: C_21  and  O_23
REMARK   13  A    between atoms: O_23  and  C_24
REMARK   14  A    between atoms: C_24  and  C_25
REMARK   15  A    between atoms: C_25  and  C_26
REMARK   16  A    between atoms: C_26  and  C_27
REMARK   17  A    between atoms: C_27  and  C_28
REMARK   18  A    between atoms: C_28  and  N_29
REMARK                            x       y       z     vdW  Elec       q    Type
REMARK                         _______ _______ _______ _____ _____    ______ ____
ROOT
ATOM      1  C   UNL     1      -6.338   0.385  -0.881  0.00  0.00    -0.062 C 
ATOM      2  C   UNL     1      -5.920  -0.187   0.478  0.00  0.00    -0.034 C 
ENDROOT
BRANCH   2   3
ATOM      3  C   UNL     1      -6.677  -1.486   0.870  0.00  0.00    -0.049 C 
BRANCH   3   4
ATOM      4  C   UNL     1      -8.121  -1.333   1.422  0.00  0.00    -0.046 C 
BRANCH   4   5
ATOM      5  C   UNL     1      -9.279  -1.490   0.326  0.00  0.00    -0.012 C 
ATOM      6  C   UNL     1      -9.861  -2.884   0.545  0.00  0.00    -0.045 C 
ATOM      7  C   UNL     1     -11.144  -2.947   0.879  0.00  0.00    -0.082 C 
ATOM      8  C   UNL     1     -11.915  -1.693   0.845  0.00  0.00    -0.031 C 
ATOM      9  C   UNL     1     -11.258  -0.500   0.000  0.00  0.00    -0.027 C 
ATOM     10  C   UNL     1     -12.603   0.510  -0.376  0.00  0.00    -0.031 C 
ATOM     11  C   UNL     1     -13.902   0.249   0.443  0.00  0.00    -0.060 C 
ATOM     12  C   UNL     1     -12.976   0.330  -1.866  0.00  0.00    -0.060 C 
ATOM     13  C   UNL     1     -12.244   1.997  -0.132  0.00  0.00    -0.048 C 
ATOM     14  C   UNL     1     -11.575   2.123   1.229  0.00  0.00    -0.052 C 
ATOM     15  C   UNL     1     -10.785   0.830   1.535  0.00  0.00    -0.047 C 
ATOM     16  C   UNL     1     -10.392   0.000   0.000  0.00  0.00    -0.022 C 
ATOM     17  C   UNL     1      -9.526   0.500   0.000  0.00  0.00    -0.059 C 
BRANCH   6  18
ATOM     18  C   UNL     1      -8.964  -4.085   0.355  0.00  0.00    +0.066 C 
BRANCH  18  19
ATOM     19  O   UNL     1      -9.635  -5.300   0.662  0.00  0.00    -0.391 OA
ATOM     20  H   UNL     1      -9.913  -5.290   1.591  0.00  0.00    +0.000 HD
ENDBRANCH  18  19
ENDBRANCH   6  18
ENDBRANCH   4   5
ENDBRANCH   3   4
ENDBRANCH   2   3
BRANCH   2  21
ATOM     21  C   UNL     1      -4.399  -0.439   0.445  0.00  0.00    +0.048 C 
BRANCH  21  22
ATOM     22  C   UNL     1      -3.704  -0.067   1.731  0.00  0.00    +0.307 C 
ATOM     23  O   UNL     1      -3.540  -0.890   2.626  0.00  0.00    -0.251 OA
BRANCH  22  24
ATOM     24  O   UNL     1      -3.182   1.180   1.823  0.00  0.00    -0.465 OA
BRANCH  24  25
ATOM     25  C   UNL     1      -3.805   2.361   1.285  0.00  0.00    +0.092 C 
BRANCH  25  26
ATOM     26  C   UNL     1      -3.224   2.835  -0.045  0.00  0.00    -0.018 C 
BRANCH  26  27
ATOM     27  C   UNL     1      -1.737   3.200  -0.026  0.00  0.00    -0.049 C 
BRANCH  27  28
ATOM     28  C   UNL     1      -0.817   1.996   0.181  0.00  0.00    -0.040 C 
BRANCH  28  29
ATOM     29  C   UNL     1       0.624   2.304  -0.249  0.00  0.00    -0.001 C 
BRANCH  29  30
ATOM     30  N   UNL     1       1.587   1.259   0.140  0.00  0.00    -0.302 N 
ATOM     31  C   UNL     1       2.949   1.678  -0.229  0.00  0.00    -0.001 C 
ATOM     32  C   UNL     1       3.996   0.664   0.233  0.00  0.00    -0.040 C 
ATOM     33  C   UNL     1       3.696  -0.726  -0.311  0.00  0.00    -0.051 C 
ATOM     34  C   UNL     1       2.265  -1.124   0.021  0.00  0.00    -0.040 C 
ATOM     35  C   UNL     1       1.268  -0.056  -0.434  0.00  0.00    -0.001 C 
ATOM     36  H   UNL     1       1.526   1.148   1.152  0.00  0.00    +0.000 HD
ENDBRANCH  29  30
ENDBRANCH  28  29
ENDBRANCH  27  28
ENDBRANCH  26  27
ENDBRANCH  25  26
ENDBRANCH  24  25
ENDBRANCH  22  24
ENDBRANCH  21  22
ENDBRANCH   2  21
TORSDOF 14
