REMARK  Name = cpd181.pdb
REMARK  14 active torsions:
REMARK  status: ('A' for Active; 'I' for Inactive)
REMARK    1  A    between atoms: C_1  and  C_2
REMARK    2  A    between atoms: C_6  and  N_7
REMARK    3  A    between atoms: N_7  and  C_8
REMARK    4  A    between atoms: C_13  and  C_14
REMARK    5  A    between atoms: N_16  and  C_17
REMARK    6  A    between atoms: C_17  and  C_18
REMARK    7  A    between atoms: C_18  and  C_19
REMARK    8  A    between atoms: C_19  and  C_20
REMARK    9  A    between atoms: N_22  and  C_23
REMARK   10  A    between atoms: C_23  and  C_24
REMARK   11  A    between atoms: C_24  and  C_25
REMARK   12  A    between atoms: C_25  and  N_26
REMARK   13  A    between atoms: N_26  and  C_27
REMARK   14  A    between atoms: C_41  and  C_42
REMARK                            x       y       z     vdW  Elec       q    Type
REMARK                         _______ _______ _______ _____ _____    ______ ____
ROOT
ATOM      1  C   UNL A   1       5.532   1.902  -0.438  0.00  0.00    +0.025 C 
ENDROOT
BRANCH   1   2
ATOM      2  C   UNL A   1       6.644   2.723   0.186  0.00  0.00    +0.213 C 
ATOM      3  O   UNL A   1       6.491   3.855   0.627  0.00  0.00    -0.276 OA
ATOM      4  N   UNL A   1       7.855   2.063   0.193  0.00  0.00    -0.315 N 
ATOM      5  H   UNL A   1       7.901   1.143  -0.155  0.00  0.00    +0.000 HD
BRANCH   4   6
ATOM      6  C   UNL A   1       9.061   2.686   0.699  0.00  0.00    +0.013 C 
BRANCH   6   7
ATOM      7  C   UNL A   1       9.837   3.380  -0.414  0.00  0.00    -0.022 C 
BRANCH   7   8
ATOM      8  C   UNL A   1      11.064   4.098   0.143  0.00  0.00    +0.011 C 
BRANCH   8   9
ATOM      9  N   UNL A   1      11.888   4.577  -0.977  0.00  0.00    -0.343 N 
ATOM     10  H   UNL A   1      11.649   4.469  -1.926  0.00  0.00    +0.000 HD
BRANCH   9  11
ATOM     11  C   UNL A   1      13.079   5.219  -0.517  0.00  0.00    +0.041 A 
ATOM     12  C   UNL A   1      13.118   6.617  -0.333  0.00  0.00    -0.005 A 
ATOM     13  C   UNL A   1      14.262   7.157   0.263  0.00  0.00    +0.047 A 
ATOM     14  N   UNL A   1      15.330   6.412   0.637  0.00  0.00    -0.251 NA
ATOM     15  C   UNL A   1      15.299   5.087   0.441  0.00  0.00    +0.073 A 
ATOM     16  C   UNL A   1      16.405   4.340   0.829  0.00  0.00    -0.036 A 
ATOM     17  C   UNL A   1      16.460   2.955   0.656  0.00  0.00    -0.060 A 
ATOM     18  C   UNL A   1      15.388   2.295   0.075  0.00  0.00    -0.061 A 
ATOM     19  C   UNL A   1      14.269   3.025  -0.320  0.00  0.00    -0.051 A 
ATOM     20  C   UNL A   1      14.198   4.428  -0.135  0.00  0.00    +0.021 A 
ATOM     21  C   UNL A   1      14.415   8.638   0.495  0.00  0.00    -0.010 C 
ATOM     22  C   UNL A   1      13.088   9.386   0.509  0.00  0.00    -0.047 C 
ATOM     23  C   UNL A   1      12.271   8.997  -0.712  0.00  0.00    -0.049 C 
ATOM     24  C   UNL A   1      11.948   7.504  -0.690  0.00  0.00    -0.024 C 
ENDBRANCH   9  11
ENDBRANCH   8   9
ENDBRANCH   7   8
ENDBRANCH   6   7
ENDBRANCH   4   6
ENDBRANCH   1   2
BRANCH   1  25
ATOM     25  C   UNL A   1       4.157   2.524  -0.209  0.00  0.00    -0.029 C 
BRANCH  25  26
ATOM     26  C   UNL A   1       3.055   1.654  -0.806  0.00  0.00    +0.012 C 
BRANCH  26  29
ATOM     27  C   UNL A   1       1.176   3.195  -1.253  0.00  0.00    +0.246 C 
ATOM     28  O   UNL A   1       1.692   3.674  -2.255  0.00  0.00    -0.270 OA
ATOM     29  N   UNL A   1       1.740   2.178  -0.510  0.00  0.00    -0.311 N 
ATOM     30  H   UNL A   1       1.233   1.798   0.243  0.00  0.00    +0.000 HD
BRANCH  27  36
ATOM     31  C   UNL A   1      -1.115   2.895  -0.179  0.00  0.00    +0.044 A 
ATOM     32  C   UNL A   1      -2.237   3.519   0.393  0.00  0.00    -0.040 A 
ATOM     33  C   UNL A   1      -2.413   4.905   0.322  0.00  0.00    -0.060 A 
ATOM     34  C   UNL A   1      -1.455   5.700  -0.299  0.00  0.00    -0.061 A 
ATOM     35  C   UNL A   1      -0.305   5.113  -0.823  0.00  0.00    -0.048 A 
ATOM     36  C   UNL A   1      -0.116   3.725  -0.735  0.00  0.00    +0.058 A 
BRANCH  31  37
ATOM     37  N   UNL A   1      -0.943   1.485  -0.074  0.00  0.00    -0.314 N 
ATOM     38  H   UNL A   1      -0.014   1.161  -0.029  0.00  0.00    +0.000 HD
BRANCH  37  44
ATOM     39  C   UNL A   1      -2.474  -3.065   1.332  0.00  0.00    -0.039 C 
ATOM     40  C   UNL A   1      -2.673  -1.762   0.605  0.00  0.00    -0.046 A 
ATOM     41  C   UNL A   1      -3.837  -1.590  -0.158  0.00  0.00    -0.058 A 
ATOM     42  C   UNL A   1      -4.054  -0.414  -0.870  0.00  0.00    -0.060 A 
ATOM     43  C   UNL A   1      -3.112   0.609  -0.821  0.00  0.00    -0.040 A 
ATOM     44  C   UNL A   1      -1.961   0.491  -0.027  0.00  0.00    +0.035 A 
ATOM     45  C   UNL A   1      -1.730  -0.709   0.686  0.00  0.00    -0.026 A 
ATOM     46  C   UNL A   1      -0.460  -0.877   1.484  0.00  0.00    -0.038 C 
ENDBRANCH  37  44
ENDBRANCH  31  37
ENDBRANCH  27  36
ENDBRANCH  26  29
ENDBRANCH  25  26
ENDBRANCH   1  25
TORSDOF 12
