MODEL 1
REMARK VINA RESULT:    -7.293      0.000      0.000
REMARK INTER + INTRA:         -17.149
REMARK INTER:                 -12.409
REMARK INTRA:                  -4.740
REMARK UNBOUND:                -4.740
REMARK  Name = cpd181.pdb
REMARK  14 active torsions:
REMARK  status: ('A' for Active; 'I' for Inactive)
REMARK    1  A    between atoms: C_1  and  C_2
REMARK    2  A    between atoms: C_6  and  N_7
REMARK    3  A    between atoms: N_7  and  C_8
REMARK    4  A    between atoms: C_13  and  C_14
REMARK    5  A    between atoms: N_16  and  C_17
REMARK    6  A    between atoms: C_17  and  C_18
REMARK    7  A    between atoms: C_18  and  C_19
REMARK    8  A    between atoms: C_19  and  C_20
REMARK    9  A    between atoms: N_22  and  C_23
REMARK   10  A    between atoms: C_23  and  C_24
REMARK   11  A    between atoms: C_24  and  C_25
REMARK   12  A    between atoms: C_25  and  N_26
REMARK   13  A    between atoms: N_26  and  C_27
REMARK   14  A    between atoms: C_41  and  C_42
REMARK                            x       y       z     vdW  Elec       q    Type
REMARK                         _______ _______ _______ _____ _____    ______ ____
ROOT
ATOM      1  C   UNL A   1      44.957 -16.353 -37.660  0.00  0.00    +0.025 C 
ENDROOT
BRANCH   1   2
ATOM      2  C   UNL A   1      46.214 -17.180 -37.469  0.00  0.00    +0.213 C 
ATOM      3  O   UNL A   1      47.115 -17.252 -38.296  0.00  0.00    -0.276 OA
ATOM      4  N   UNL A   1      46.231 -17.855 -36.267  0.00  0.00    -0.315 N 
ATOM      5  H   UNL A   1      45.484 -17.730 -35.637  0.00  0.00    +0.000 HD
BRANCH   4   6
ATOM      6  C   UNL A   1      47.318 -18.742 -35.905  0.00  0.00    +0.013 C 
BRANCH   6   7
ATOM      7  C   UNL A   1      46.846 -19.842 -34.961  0.00  0.00    -0.022 C 
BRANCH   7   8
ATOM      8  C   UNL A   1      45.333 -20.025 -35.050  0.00  0.00    +0.011 C 
BRANCH   8   9
ATOM      9  N   UNL A   1      44.777 -20.085 -33.690  0.00  0.00    -0.343 N 
ATOM     10  H   UNL A   1      45.134 -20.655 -32.971  0.00  0.00    +0.000 HD
BRANCH   9  11
ATOM     11  C   UNL A   1      43.654 -19.214 -33.542  0.00  0.00    +0.041 A 
ATOM     12  C   UNL A   1      43.821 -17.900 -33.057  0.00  0.00    -0.005 A 
ATOM     13  C   UNL A   1      42.706 -17.057 -33.083  0.00  0.00    +0.047 A 
ATOM     14  N   UNL A   1      41.484 -17.450 -33.516  0.00  0.00    -0.251 NA
ATOM     15  C   UNL A   1      41.323 -18.705 -33.955  0.00  0.00    +0.073 A 
ATOM     16  C   UNL A   1      40.062 -19.090 -34.394  0.00  0.00    -0.036 A 
ATOM     17  C   UNL A   1      39.803 -20.381 -34.862  0.00  0.00    -0.060 A 
ATOM     18  C   UNL A   1      40.826 -21.316 -34.888  0.00  0.00    -0.061 A 
ATOM     19  C   UNL A   1      42.098 -20.950 -34.454  0.00  0.00    -0.051 A 
ATOM     20  C   UNL A   1      42.373 -19.640 -33.992  0.00  0.00    +0.021 A 
ATOM     21  C   UNL A   1      42.769 -15.638 -32.578  0.00  0.00    -0.010 C 
ATOM     22  C   UNL A   1      44.185 -15.077 -32.534  0.00  0.00    -0.047 C 
ATOM     23  C   UNL A   1      45.102 -16.062 -31.829  0.00  0.00    -0.049 C 
ATOM     24  C   UNL A   1      45.164 -17.382 -32.596  0.00  0.00    -0.024 C 
ENDBRANCH   9  11
ENDBRANCH   8   9
ENDBRANCH   7   8
ENDBRANCH   6   7
ENDBRANCH   4   6
ENDBRANCH   1   2
BRANCH   1  25
ATOM     25  C   UNL A   1      43.964 -16.540 -36.516  0.00  0.00    -0.029 C 
BRANCH  25  26
ATOM     26  C   UNL A   1      42.533 -16.617 -37.039  0.00  0.00    +0.012 C 
BRANCH  26  29
ATOM     27  C   UNL A   1      42.051 -18.307 -38.776  0.00  0.00    +0.246 C 
ATOM     28  O   UNL A   1      42.291 -17.548 -39.706  0.00  0.00    -0.270 OA
ATOM     29  N   UNL A   1      42.184 -17.960 -37.447  0.00  0.00    -0.311 N 
ATOM     30  H   UNL A   1      42.038 -18.646 -36.756  0.00  0.00    +0.000 HD
BRANCH  27  36
ATOM     31  C   UNL A   1      42.219 -20.607 -39.861  0.00  0.00    +0.044 A 
ATOM     32  C   UNL A   1      41.715 -21.918 -39.924  0.00  0.00    -0.040 A 
ATOM     33  C   UNL A   1      40.529 -22.273 -39.274  0.00  0.00    -0.060 A 
ATOM     34  C   UNL A   1      39.835 -21.330 -38.522  0.00  0.00    -0.061 A 
ATOM     35  C   UNL A   1      40.343 -20.038 -38.395  0.00  0.00    -0.048 A 
ATOM     36  C   UNL A   1      41.544 -19.685 -39.029  0.00  0.00    +0.058 A 
BRANCH  31  37
ATOM     37  N   UNL A   1      43.442 -20.273 -40.510  0.00  0.00    -0.314 N 
ATOM     38  H   UNL A   1      43.387 -19.592 -41.219  0.00  0.00    +0.000 HD
BRANCH  37  44
ATOM     39  C   UNL A   1      47.225 -23.258 -41.851  0.00  0.00    -0.039 C 
ATOM     40  C   UNL A   1      46.546 -22.327 -40.882  0.00  0.00    -0.046 A 
ATOM     41  C   UNL A   1      47.146 -22.102 -39.634  0.00  0.00    -0.058 A 
ATOM     42  C   UNL A   1      46.544 -21.272 -38.694  0.00  0.00    -0.060 A 
ATOM     43  C   UNL A   1      45.336 -20.649 -38.993  0.00  0.00    -0.040 A 
ATOM     44  C   UNL A   1      44.734 -20.811 -40.250  0.00  0.00    +0.035 A 
ATOM     45  C   UNL A   1      45.336 -21.666 -41.203  0.00  0.00    -0.026 A 
ATOM     46  C   UNL A   1      44.660 -21.908 -42.531  0.00  0.00    -0.038 C 
ENDBRANCH  37  44
ENDBRANCH  31  37
ENDBRANCH  27  36
ENDBRANCH  26  29
ENDBRANCH  25  26
ENDBRANCH   1  25
TORSDOF 12
ENDMDL
MODEL 2
REMARK VINA RESULT:    -6.968     19.295     22.367
REMARK INTER + INTRA:         -16.597
REMARK INTER:                 -11.329
REMARK INTRA:                  -5.268
REMARK UNBOUND:                -4.740
REMARK  Name = cpd181.pdb
REMARK  14 active torsions:
REMARK  status: ('A' for Active; 'I' for Inactive)
REMARK    1  A    between atoms: C_1  and  C_2
REMARK    2  A    between atoms: C_6  and  N_7
REMARK    3  A    between atoms: N_7  and  C_8
REMARK    4  A    between atoms: C_13  and  C_14
REMARK    5  A    between atoms: N_16  and  C_17
REMARK    6  A    between atoms: C_17  and  C_18
REMARK    7  A    between atoms: C_18  and  C_19
REMARK    8  A    between atoms: C_19  and  C_20
REMARK    9  A    between atoms: N_22  and  C_23
REMARK   10  A    between atoms: C_23  and  C_24
REMARK   11  A    between atoms: C_24  and  C_25
REMARK   12  A    between atoms: C_25  and  N_26
REMARK   13  A    between atoms: N_26  and  C_27
REMARK   14  A    between atoms: C_41  and  C_42
REMARK                            x       y       z     vdW  Elec       q    Type
REMARK                         _______ _______ _______ _____ _____    ______ ____
ROOT
ATOM      1  C   UNL A   1      30.052 -35.766 -30.764  0.00  0.00    +0.025 C 
ENDROOT
BRANCH   1   2
ATOM      2  C   UNL A   1      30.790 -34.444 -30.844  0.00  0.00    +0.213 C 
ATOM      3  O   UNL A   1      30.244 -33.370 -31.067  0.00  0.00    -0.276 OA
ATOM      4  N   UNL A   1      32.149 -34.579 -30.651  0.00  0.00    -0.315 N 
ATOM      5  H   UNL A   1      32.518 -35.469 -30.450  0.00  0.00    +0.000 HD
BRANCH   4   6
ATOM      6  C   UNL A   1      33.048 -33.446 -30.735  0.00  0.00    +0.013 C 
BRANCH   6   7
ATOM      7  C   UNL A   1      34.288 -33.780 -31.555  0.00  0.00    -0.022 C 
BRANCH   7   8
ATOM      8  C   UNL A   1      35.390 -34.353 -30.667  0.00  0.00    +0.011 C 
BRANCH   8   9
ATOM      9  N   UNL A   1      35.408 -35.817 -30.810  0.00  0.00    -0.343 N 
ATOM     10  H   UNL A   1      35.092 -36.299 -31.608  0.00  0.00    +0.000 HD
BRANCH   9  11
ATOM     11  C   UNL A   1      35.938 -36.453 -29.645  0.00  0.00    +0.041 A 
ATOM     12  C   UNL A   1      35.100 -36.781 -28.559  0.00  0.00    -0.005 A 
ATOM     13  C   UNL A   1      35.656 -37.537 -27.522  0.00  0.00    +0.047 A 
ATOM     14  N   UNL A   1      36.951 -37.934 -27.500  0.00  0.00    -0.251 NA
ATOM     15  C   UNL A   1      37.750 -37.602 -28.523  0.00  0.00    +0.073 A 
ATOM     16  C   UNL A   1      39.076 -38.017 -28.481  0.00  0.00    -0.036 A 
ATOM     17  C   UNL A   1      39.979 -37.710 -29.501  0.00  0.00    -0.060 A 
ATOM     18  C   UNL A   1      39.555 -36.964 -30.590  0.00  0.00    -0.061 A 
ATOM     19  C   UNL A   1      38.229 -36.539 -30.652  0.00  0.00    -0.051 A 
ATOM     20  C   UNL A   1      37.302 -36.859 -29.629  0.00  0.00    +0.021 A 
ATOM     21  C   UNL A   1      34.855 -37.932 -26.308  0.00  0.00    -0.010 C 
ATOM     22  C   UNL A   1      33.350 -37.894 -26.541  0.00  0.00    -0.047 C 
ATOM     23  C   UNL A   1      32.966 -36.566 -27.173  0.00  0.00    -0.049 C 
ATOM     24  C   UNL A   1      33.637 -36.405 -28.536  0.00  0.00    -0.024 C 
ENDBRANCH   9  11
ENDBRANCH   8   9
ENDBRANCH   7   8
ENDBRANCH   6   7
ENDBRANCH   4   6
ENDBRANCH   1   2
BRANCH   1  25
ATOM     25  C   UNL A   1      29.220 -36.039 -32.015  0.00  0.00    -0.029 C 
BRANCH  25  26
ATOM     26  C   UNL A   1      30.099 -36.071 -33.262  0.00  0.00    +0.012 C 
BRANCH  26  29
ATOM     27  C   UNL A   1      32.055 -37.581 -33.247  0.00  0.00    +0.246 C 
ATOM     28  O   UNL A   1      32.819 -36.729 -32.811  0.00  0.00    -0.270 OA
ATOM     29  N   UNL A   1      30.707 -37.369 -33.455  0.00  0.00    -0.311 N 
ATOM     30  H   UNL A   1      30.143 -38.123 -33.743  0.00  0.00    +0.000 HD
BRANCH  27  36
ATOM     31  C   UNL A   1      33.447 -39.672 -32.821  0.00  0.00    +0.044 A 
ATOM     32  C   UNL A   1      33.751 -40.984 -33.222  0.00  0.00    -0.040 A 
ATOM     33  C   UNL A   1      33.277 -41.504 -34.432  0.00  0.00    -0.060 A 
ATOM     34  C   UNL A   1      32.465 -40.729 -35.253  0.00  0.00    -0.061 A 
ATOM     35  C   UNL A   1      32.100 -39.446 -34.852  0.00  0.00    -0.048 A 
ATOM     36  C   UNL A   1      32.557 -38.930 -33.630  0.00  0.00    +0.058 A 
BRANCH  31  37
ATOM     37  N   UNL A   1      33.919 -39.171 -31.574  0.00  0.00    -0.314 N 
ATOM     38  H   UNL A   1      34.342 -38.282 -31.593  0.00  0.00    +0.000 HD
BRANCH  37  44
ATOM     39  C   UNL A   1      36.101 -41.877 -27.977  0.00  0.00    -0.039 C 
ATOM     40  C   UNL A   1      34.906 -41.192 -28.585  0.00  0.00    -0.046 A 
ATOM     41  C   UNL A   1      33.665 -41.313 -27.943  0.00  0.00    -0.058 A 
ATOM     42  C   UNL A   1      32.526 -40.722 -28.480  0.00  0.00    -0.060 A 
ATOM     43  C   UNL A   1      32.615 -39.994 -29.663  0.00  0.00    -0.040 A 
ATOM     44  C   UNL A   1      33.850 -39.810 -30.304  0.00  0.00    +0.035 A 
ATOM     45  C   UNL A   1      35.007 -40.423 -29.769  0.00  0.00    -0.026 A 
ATOM     46  C   UNL A   1      36.328 -40.295 -30.489  0.00  0.00    -0.038 C 
ENDBRANCH  37  44
ENDBRANCH  31  37
ENDBRANCH  27  36
ENDBRANCH  26  29
ENDBRANCH  25  26
ENDBRANCH   1  25
TORSDOF 12
ENDMDL
MODEL 3
REMARK VINA RESULT:    -6.840      2.356      5.077
REMARK INTER + INTRA:         -16.378
REMARK INTER:                 -12.254
REMARK INTRA:                  -4.123
REMARK UNBOUND:                -4.740
REMARK  Name = cpd181.pdb
REMARK  14 active torsions:
REMARK  status: ('A' for Active; 'I' for Inactive)
REMARK    1  A    between atoms: C_1  and  C_2
REMARK    2  A    between atoms: C_6  and  N_7
REMARK    3  A    between atoms: N_7  and  C_8
REMARK    4  A    between atoms: C_13  and  C_14
REMARK    5  A    between atoms: N_16  and  C_17
REMARK    6  A    between atoms: C_17  and  C_18
REMARK    7  A    between atoms: C_18  and  C_19
REMARK    8  A    between atoms: C_19  and  C_20
REMARK    9  A    between atoms: N_22  and  C_23
REMARK   10  A    between atoms: C_23  and  C_24
REMARK   11  A    between atoms: C_24  and  C_25
REMARK   12  A    between atoms: C_25  and  N_26
REMARK   13  A    between atoms: N_26  and  C_27
REMARK   14  A    between atoms: C_41  and  C_42
REMARK                            x       y       z     vdW  Elec       q    Type
REMARK                         _______ _______ _______ _____ _____    ______ ____
ROOT
ATOM      1  C   UNL A   1      38.453 -22.030 -34.407  0.00  0.00    +0.025 C 
ENDROOT
BRANCH   1   2
ATOM      2  C   UNL A   1      39.317 -21.748 -33.193  0.00  0.00    +0.213 C 
ATOM      3  O   UNL A   1      39.048 -22.129 -32.061  0.00  0.00    -0.276 OA
ATOM      4  N   UNL A   1      40.437 -21.003 -33.497  0.00  0.00    -0.315 N 
ATOM      5  H   UNL A   1      40.605 -20.752 -34.434  0.00  0.00    +0.000 HD
BRANCH   4   6
ATOM      6  C   UNL A   1      41.373 -20.580 -32.475  0.00  0.00    +0.013 C 
BRANCH   6   7
ATOM      7  C   UNL A   1      42.114 -19.314 -32.890  0.00  0.00    -0.022 C 
BRANCH   7   8
ATOM      8  C   UNL A   1      43.491 -19.650 -33.456  0.00  0.00    +0.011 C 
BRANCH   8   9
ATOM      9  N   UNL A   1      44.499 -18.808 -32.795  0.00  0.00    -0.343 N 
ATOM     10  H   UNL A   1      44.840 -18.964 -31.884  0.00  0.00    +0.000 HD
BRANCH   9  11
ATOM     11  C   UNL A   1      44.924 -17.735 -33.638  0.00  0.00    +0.041 A 
ATOM     12  C   UNL A   1      45.896 -17.947 -34.638  0.00  0.00    -0.005 A 
ATOM     13  C   UNL A   1      46.151 -16.894 -35.523  0.00  0.00    +0.047 A 
ATOM     14  N   UNL A   1      45.537 -15.689 -35.444  0.00  0.00    -0.251 NA
ATOM     15  C   UNL A   1      44.629 -15.484 -34.480  0.00  0.00    +0.073 A 
ATOM     16  C   UNL A   1      44.011 -14.241 -34.415  0.00  0.00    -0.036 A 
ATOM     17  C   UNL A   1      43.059 -13.938 -33.439  0.00  0.00    -0.060 A 
ATOM     18  C   UNL A   1      42.715 -14.897 -32.498  0.00  0.00    -0.061 A 
ATOM     19  C   UNL A   1      43.322 -16.150 -32.547  0.00  0.00    -0.051 A 
ATOM     20  C   UNL A   1      44.278 -16.471 -33.542  0.00  0.00    +0.021 A 
ATOM     21  C   UNL A   1      47.178 -17.007 -36.619  0.00  0.00    -0.010 C 
ATOM     22  C   UNL A   1      47.512 -18.448 -36.986  0.00  0.00    -0.047 C 
ATOM     23  C   UNL A   1      47.814 -19.238 -35.724  0.00  0.00    -0.049 C 
ATOM     24  C   UNL A   1      46.592 -19.277 -34.808  0.00  0.00    -0.024 C 
ENDBRANCH   9  11
ENDBRANCH   8   9
ENDBRANCH   7   8
ENDBRANCH   6   7
ENDBRANCH   4   6
ENDBRANCH   1   2
BRANCH   1  25
ATOM     25  C   UNL A   1      38.571 -20.937 -35.466  0.00  0.00    -0.029 C 
BRANCH  25  26
ATOM     26  C   UNL A   1      39.313 -21.446 -36.698  0.00  0.00    +0.012 C 
BRANCH  26  29
ATOM     27  C   UNL A   1      41.587 -20.480 -36.774  0.00  0.00    +0.246 C 
ATOM     28  O   UNL A   1      42.070 -21.336 -36.043  0.00  0.00    -0.270 OA
ATOM     29  N   UNL A   1      40.269 -20.476 -37.186  0.00  0.00    -0.311 N 
ATOM     30  H   UNL A   1      39.971 -19.793 -37.829  0.00  0.00    +0.000 HD
BRANCH  27  36
ATOM     31  C   UNL A   1      43.631 -19.500 -37.937  0.00  0.00    +0.044 A 
ATOM     32  C   UNL A   1      44.255 -18.349 -38.448  0.00  0.00    -0.040 A 
ATOM     33  C   UNL A   1      43.743 -17.071 -38.194  0.00  0.00    -0.060 A 
ATOM     34  C   UNL A   1      42.579 -16.921 -37.447  0.00  0.00    -0.061 A 
ATOM     35  C   UNL A   1      41.909 -18.049 -36.978  0.00  0.00    -0.048 A 
ATOM     36  C   UNL A   1      42.409 -19.332 -37.248  0.00  0.00    +0.058 A 
BRANCH  31  37
ATOM     37  N   UNL A   1      44.154 -20.792 -38.228  0.00  0.00    -0.314 N 
ATOM     38  H   UNL A   1      43.801 -21.537 -37.690  0.00  0.00    +0.000 HD
BRANCH  37  44
ATOM     39  C   UNL A   1      45.280 -22.267 -42.873  0.00  0.00    -0.039 C 
ATOM     40  C   UNL A   1      45.664 -21.918 -41.460  0.00  0.00    -0.046 A 
ATOM     41  C   UNL A   1      47.004 -22.067 -41.073  0.00  0.00    -0.058 A 
ATOM     42  C   UNL A   1      47.404 -21.783 -39.770  0.00  0.00    -0.060 A 
ATOM     43  C   UNL A   1      46.469 -21.338 -38.840  0.00  0.00    -0.040 A 
ATOM     44  C   UNL A   1      45.131 -21.129 -39.208  0.00  0.00    +0.035 A 
ATOM     45  C   UNL A   1      44.718 -21.431 -40.527  0.00  0.00    -0.026 A 
ATOM     46  C   UNL A   1      43.267 -21.282 -40.913  0.00  0.00    -0.038 C 
ENDBRANCH  37  44
ENDBRANCH  31  37
ENDBRANCH  27  36
ENDBRANCH  26  29
ENDBRANCH  25  26
ENDBRANCH   1  25
TORSDOF 12
ENDMDL
MODEL 4
REMARK VINA RESULT:    -6.735      2.156      6.945
REMARK INTER + INTRA:         -16.200
REMARK INTER:                 -11.901
REMARK INTRA:                  -4.299
REMARK UNBOUND:                -4.740
REMARK  Name = cpd181.pdb
REMARK  14 active torsions:
REMARK  status: ('A' for Active; 'I' for Inactive)
REMARK    1  A    between atoms: C_1  and  C_2
REMARK    2  A    between atoms: C_6  and  N_7
REMARK    3  A    between atoms: N_7  and  C_8
REMARK    4  A    between atoms: C_13  and  C_14
REMARK    5  A    between atoms: N_16  and  C_17
REMARK    6  A    between atoms: C_17  and  C_18
REMARK    7  A    between atoms: C_18  and  C_19
REMARK    8  A    between atoms: C_19  and  C_20
REMARK    9  A    between atoms: N_22  and  C_23
REMARK   10  A    between atoms: C_23  and  C_24
REMARK   11  A    between atoms: C_24  and  C_25
REMARK   12  A    between atoms: C_25  and  N_26
REMARK   13  A    between atoms: N_26  and  C_27
REMARK   14  A    between atoms: C_41  and  C_42
REMARK                            x       y       z     vdW  Elec       q    Type
REMARK                         _______ _______ _______ _____ _____    ______ ____
ROOT
ATOM      1  C   UNL A   1      43.946 -15.735 -36.493  0.00  0.00    +0.025 C 
ENDROOT
BRANCH   1   2
ATOM      2  C   UNL A   1      44.490 -16.543 -35.330  0.00  0.00    +0.213 C 
ATOM      3  O   UNL A   1      44.940 -16.045 -34.306  0.00  0.00    -0.276 OA
ATOM      4  N   UNL A   1      44.435 -17.903 -35.553  0.00  0.00    -0.315 N 
ATOM      5  H   UNL A   1      44.036 -18.235 -36.389  0.00  0.00    +0.000 HD
BRANCH   4   6
ATOM      6  C   UNL A   1      44.949 -18.855 -34.590  0.00  0.00    +0.013 C 
BRANCH   6   7
ATOM      7  C   UNL A   1      45.347 -20.164 -35.261  0.00  0.00    -0.022 C 
BRANCH   7   8
ATOM      8  C   UNL A   1      45.303 -20.032 -36.782  0.00  0.00    +0.011 C 
BRANCH   8   9
ATOM      9  N   UNL A   1      46.670 -20.147 -37.312  0.00  0.00    -0.343 N 
ATOM     10  H   UNL A   1      47.424 -20.544 -36.818  0.00  0.00    +0.000 HD
BRANCH   9  11
ATOM     11  C   UNL A   1      46.769 -19.610 -38.632  0.00  0.00    +0.041 A 
ATOM     12  C   UNL A   1      46.580 -20.435 -39.761  0.00  0.00    -0.005 A 
ATOM     13  C   UNL A   1      46.539 -19.814 -41.013  0.00  0.00    +0.047 A 
ATOM     14  N   UNL A   1      46.702 -18.480 -41.190  0.00  0.00    -0.251 NA
ATOM     15  C   UNL A   1      46.902 -17.702 -40.118  0.00  0.00    +0.073 A 
ATOM     16  C   UNL A   1      47.069 -16.337 -40.320  0.00  0.00    -0.036 A 
ATOM     17  C   UNL A   1      47.289 -15.454 -39.260  0.00  0.00    -0.060 A 
ATOM     18  C   UNL A   1      47.352 -15.943 -37.964  0.00  0.00    -0.061 A 
ATOM     19  C   UNL A   1      47.187 -17.308 -37.740  0.00  0.00    -0.051 A 
ATOM     20  C   UNL A   1      46.948 -18.209 -38.807  0.00  0.00    +0.021 A 
ATOM     21  C   UNL A   1      46.356 -20.600 -42.286  0.00  0.00    -0.010 C 
ATOM     22  C   UNL A   1      45.731 -21.971 -42.062  0.00  0.00    -0.047 C 
ATOM     23  C   UNL A   1      46.472 -22.693 -40.949  0.00  0.00    -0.049 C 
ATOM     24  C   UNL A   1      46.353 -21.923 -39.635  0.00  0.00    -0.024 C 
ENDBRANCH   9  11
ENDBRANCH   8   9
ENDBRANCH   7   8
ENDBRANCH   6   7
ENDBRANCH   4   6
ENDBRANCH   1   2
BRANCH   1  25
ATOM     25  C   UNL A   1      43.705 -16.596 -37.730  0.00  0.00    -0.029 C 
BRANCH  25  26
ATOM     26  C   UNL A   1      42.217 -16.688 -38.053  0.00  0.00    +0.012 C 
BRANCH  26  29
ATOM     27  C   UNL A   1      41.763 -19.113 -37.913  0.00  0.00    +0.246 C 
ATOM     28  O   UNL A   1      41.853 -19.149 -36.692  0.00  0.00    -0.270 OA
ATOM     29  N   UNL A   1      41.879 -17.957 -38.658  0.00  0.00    -0.311 N 
ATOM     30  H   UNL A   1      41.727 -17.997 -39.630  0.00  0.00    +0.000 HD
BRANCH  27  36
ATOM     31  C   UNL A   1      40.461 -21.228 -38.482  0.00  0.00    +0.044 A 
ATOM     32  C   UNL A   1      40.300 -22.308 -39.367  0.00  0.00    -0.040 A 
ATOM     33  C   UNL A   1      41.246 -22.581 -40.360  0.00  0.00    -0.060 A 
ATOM     34  C   UNL A   1      42.361 -21.762 -40.508  0.00  0.00    -0.061 A 
ATOM     35  C   UNL A   1      42.515 -20.651 -39.682  0.00  0.00    -0.048 A 
ATOM     36  C   UNL A   1      41.557 -20.362 -38.698  0.00  0.00    +0.058 A 
BRANCH  31  37
ATOM     37  N   UNL A   1      39.473 -20.953 -37.494  0.00  0.00    -0.314 N 
ATOM     38  H   UNL A   1      38.755 -20.331 -37.756  0.00  0.00    +0.000 HD
BRANCH  37  44
ATOM     39  C   UNL A   1      38.074 -20.442 -32.718  0.00  0.00    -0.039 C 
ATOM     40  C   UNL A   1      38.778 -21.181 -33.825  0.00  0.00    -0.046 A 
ATOM     41  C   UNL A   1      39.501 -22.339 -33.505  0.00  0.00    -0.058 A 
ATOM     42  C   UNL A   1      40.191 -23.042 -34.488  0.00  0.00    -0.060 A 
ATOM     43  C   UNL A   1      40.160 -22.599 -35.807  0.00  0.00    -0.040 A 
ATOM     44  C   UNL A   1      39.405 -21.474 -36.171  0.00  0.00    +0.035 A 
ATOM     45  C   UNL A   1      38.715 -20.748 -35.171  0.00  0.00    -0.026 A 
ATOM     46  C   UNL A   1      37.961 -19.493 -35.539  0.00  0.00    -0.038 C 
ENDBRANCH  37  44
ENDBRANCH  31  37
ENDBRANCH  27  36
ENDBRANCH  26  29
ENDBRANCH  25  26
ENDBRANCH   1  25
TORSDOF 12
ENDMDL
MODEL 5
REMARK VINA RESULT:    -6.636      2.241      5.062
REMARK INTER + INTRA:         -16.030
REMARK INTER:                 -11.574
REMARK INTRA:                  -4.456
REMARK UNBOUND:                -4.740
REMARK  Name = cpd181.pdb
REMARK  14 active torsions:
REMARK  status: ('A' for Active; 'I' for Inactive)
REMARK    1  A    between atoms: C_1  and  C_2
REMARK    2  A    between atoms: C_6  and  N_7
REMARK    3  A    between atoms: N_7  and  C_8
REMARK    4  A    between atoms: C_13  and  C_14
REMARK    5  A    between atoms: N_16  and  C_17
REMARK    6  A    between atoms: C_17  and  C_18
REMARK    7  A    between atoms: C_18  and  C_19
REMARK    8  A    between atoms: C_19  and  C_20
REMARK    9  A    between atoms: N_22  and  C_23
REMARK   10  A    between atoms: C_23  and  C_24
REMARK   11  A    between atoms: C_24  and  C_25
REMARK   12  A    between atoms: C_25  and  N_26
REMARK   13  A    between atoms: N_26  and  C_27
REMARK   14  A    between atoms: C_41  and  C_42
REMARK                            x       y       z     vdW  Elec       q    Type
REMARK                         _______ _______ _______ _____ _____    ______ ____
ROOT
ATOM      1  C   UNL A   1      39.309 -23.034 -35.947  0.00  0.00    +0.025 C 
ENDROOT
BRANCH   1   2
ATOM      2  C   UNL A   1      39.504 -22.592 -34.509  0.00  0.00    +0.213 C 
ATOM      3  O   UNL A   1      39.325 -23.321 -33.541  0.00  0.00    -0.276 OA
ATOM      4  N   UNL A   1      39.895 -21.274 -34.404  0.00  0.00    -0.315 N 
ATOM      5  H   UNL A   1      40.046 -20.752 -35.225  0.00  0.00    +0.000 HD
BRANCH   4   6
ATOM      6  C   UNL A   1      40.089 -20.636 -33.118  0.00  0.00    +0.013 C 
BRANCH   6   7
ATOM      7  C   UNL A   1      41.563 -20.356 -32.853  0.00  0.00    -0.022 C 
BRANCH   7   8
ATOM      8  C   UNL A   1      42.244 -19.797 -34.101  0.00  0.00    +0.011 C 
BRANCH   8   9
ATOM      9  N   UNL A   1      43.217 -18.771 -33.696  0.00  0.00    -0.343 N 
ATOM     10  H   UNL A   1      43.442 -18.559 -32.761  0.00  0.00    +0.000 HD
BRANCH   9  11
ATOM     11  C   UNL A   1      43.797 -18.120 -34.828  0.00  0.00    +0.041 A 
ATOM     12  C   UNL A   1      43.152 -17.022 -35.436  0.00  0.00    -0.005 A 
ATOM     13  C   UNL A   1      43.848 -16.341 -36.439  0.00  0.00    +0.047 A 
ATOM     14  N   UNL A   1      45.082 -16.701 -36.868  0.00  0.00    -0.251 NA
ATOM     15  C   UNL A   1      45.683 -17.757 -36.303  0.00  0.00    +0.073 A 
ATOM     16  C   UNL A   1      46.947 -18.113 -36.758  0.00  0.00    -0.036 A 
ATOM     17  C   UNL A   1      47.643 -19.203 -36.231  0.00  0.00    -0.060 A 
ATOM     18  C   UNL A   1      47.063 -19.965 -35.228  0.00  0.00    -0.061 A 
ATOM     19  C   UNL A   1      45.797 -19.625 -34.757  0.00  0.00    -0.051 A 
ATOM     20  C   UNL A   1      45.089 -18.512 -35.275  0.00  0.00    +0.021 A 
ATOM     21  C   UNL A   1      43.249 -15.163 -37.164  0.00  0.00    -0.010 C 
ATOM     22  C   UNL A   1      42.114 -14.497 -36.397  0.00  0.00    -0.047 C 
ATOM     23  C   UNL A   1      41.123 -15.553 -35.935  0.00  0.00    -0.049 C 
ATOM     24  C   UNL A   1      41.794 -16.541 -34.982  0.00  0.00    -0.024 C 
ENDBRANCH   9  11
ENDBRANCH   8   9
ENDBRANCH   7   8
ENDBRANCH   6   7
ENDBRANCH   4   6
ENDBRANCH   1   2
BRANCH   1  25
ATOM     25  C   UNL A   1      39.432 -21.871 -36.929  0.00  0.00    -0.029 C 
BRANCH  25  26
ATOM     26  C   UNL A   1      40.733 -21.957 -37.720  0.00  0.00    +0.012 C 
BRANCH  26  29
ATOM     27  C   UNL A   1      42.167 -20.014 -38.244  0.00  0.00    +0.246 C 
ATOM     28  O   UNL A   1      43.086 -20.387 -37.526  0.00  0.00    -0.270 OA
ATOM     29  N   UNL A   1      41.004 -20.732 -38.439  0.00  0.00    -0.311 N 
ATOM     30  H   UNL A   1      40.341 -20.401 -39.086  0.00  0.00    +0.000 HD
BRANCH  27  36
ATOM     31  C   UNL A   1      43.377 -18.270 -39.654  0.00  0.00    +0.044 A 
ATOM     32  C   UNL A   1      43.279 -17.072 -40.382  0.00  0.00    -0.040 A 
ATOM     33  C   UNL A   1      42.129 -16.277 -40.323  0.00  0.00    -0.060 A 
ATOM     34  C   UNL A   1      41.040 -16.680 -39.556  0.00  0.00    -0.061 A 
ATOM     35  C   UNL A   1      41.089 -17.893 -38.871  0.00  0.00    -0.048 A 
ATOM     36  C   UNL A   1      42.233 -18.702 -38.945  0.00  0.00    +0.058 A 
BRANCH  31  37
ATOM     37  N   UNL A   1      44.547 -19.077 -39.747  0.00  0.00    -0.314 N 
ATOM     38  H   UNL A   1      45.257 -18.893 -39.090  0.00  0.00    +0.000 HD
BRANCH  37  44
ATOM     39  C   UNL A   1      47.020 -23.242 -40.995  0.00  0.00    -0.039 C 
ATOM     40  C   UNL A   1      46.075 -22.114 -41.309  0.00  0.00    -0.046 A 
ATOM     41  C   UNL A   1      45.551 -22.018 -42.607  0.00  0.00    -0.058 A 
ATOM     42  C   UNL A   1      44.694 -20.978 -42.954  0.00  0.00    -0.060 A 
ATOM     43  C   UNL A   1      44.343 -20.024 -42.004  0.00  0.00    -0.040 A 
ATOM     44  C   UNL A   1      44.808 -20.117 -40.683  0.00  0.00    +0.035 A 
ATOM     45  C   UNL A   1      45.691 -21.165 -40.331  0.00  0.00    -0.026 A 
ATOM     46  C   UNL A   1      46.256 -21.234 -38.933  0.00  0.00    -0.038 C 
ENDBRANCH  37  44
ENDBRANCH  31  37
ENDBRANCH  27  36
ENDBRANCH  26  29
ENDBRANCH  25  26
ENDBRANCH   1  25
TORSDOF 12
ENDMDL
MODEL 6
REMARK VINA RESULT:    -6.624      2.530      5.846
REMARK INTER + INTRA:         -16.011
REMARK INTER:                 -12.608
REMARK INTRA:                  -3.404
REMARK UNBOUND:                -4.740
REMARK  Name = cpd181.pdb
REMARK  14 active torsions:
REMARK  status: ('A' for Active; 'I' for Inactive)
REMARK    1  A    between atoms: C_1  and  C_2
REMARK    2  A    between atoms: C_6  and  N_7
REMARK    3  A    between atoms: N_7  and  C_8
REMARK    4  A    between atoms: C_13  and  C_14
REMARK    5  A    between atoms: N_16  and  C_17
REMARK    6  A    between atoms: C_17  and  C_18
REMARK    7  A    between atoms: C_18  and  C_19
REMARK    8  A    between atoms: C_19  and  C_20
REMARK    9  A    between atoms: N_22  and  C_23
REMARK   10  A    between atoms: C_23  and  C_24
REMARK   11  A    between atoms: C_24  and  C_25
REMARK   12  A    between atoms: C_25  and  N_26
REMARK   13  A    between atoms: N_26  and  C_27
REMARK   14  A    between atoms: C_41  and  C_42
REMARK                            x       y       z     vdW  Elec       q    Type
REMARK                         _______ _______ _______ _____ _____    ______ ____
ROOT
ATOM      1  C   UNL A   1      46.343 -17.479 -35.023  0.00  0.00    +0.025 C 
ENDROOT
BRANCH   1   2
ATOM      2  C   UNL A   1      45.270 -17.579 -33.957  0.00  0.00    +0.213 C 
ATOM      3  O   UNL A   1      45.471 -17.999 -32.824  0.00  0.00    -0.276 OA
ATOM      4  N   UNL A   1      44.034 -17.159 -34.402  0.00  0.00    -0.315 N 
ATOM      5  H   UNL A   1      43.949 -16.809 -35.318  0.00  0.00    +0.000 HD
BRANCH   4   6
ATOM      6  C   UNL A   1      42.858 -17.217 -33.558  0.00  0.00    +0.013 C 
BRANCH   6   7
ATOM      7  C   UNL A   1      41.827 -18.196 -34.109  0.00  0.00    -0.022 C 
BRANCH   7   8
ATOM      8  C   UNL A   1      41.677 -18.035 -35.620  0.00  0.00    +0.011 C 
BRANCH   8   9
ATOM      9  N   UNL A   1      40.415 -18.660 -36.044  0.00  0.00    -0.343 N 
ATOM     10  H   UNL A   1      39.569 -18.172 -36.167  0.00  0.00    +0.000 HD
BRANCH   9  11
ATOM     11  C   UNL A   1      40.569 -20.065 -36.256  0.00  0.00    +0.041 A 
ATOM     12  C   UNL A   1      40.031 -20.994 -35.340  0.00  0.00    -0.005 A 
ATOM     13  C   UNL A   1      40.085 -22.347 -35.688  0.00  0.00    +0.047 A 
ATOM     14  N   UNL A   1      40.651 -22.801 -36.833  0.00  0.00    -0.251 NA
ATOM     15  C   UNL A   1      41.181 -21.918 -37.690  0.00  0.00    +0.073 A 
ATOM     16  C   UNL A   1      41.759 -22.402 -38.858  0.00  0.00    -0.036 A 
ATOM     17  C   UNL A   1      42.340 -21.553 -39.803  0.00  0.00    -0.060 A 
ATOM     18  C   UNL A   1      42.352 -20.185 -39.578  0.00  0.00    -0.061 A 
ATOM     19  C   UNL A   1      41.777 -19.679 -38.414  0.00  0.00    -0.051 A 
ATOM     20  C   UNL A   1      41.172 -20.531 -37.457  0.00  0.00    +0.021 A 
ATOM     21  C   UNL A   1      39.552 -23.425 -34.780  0.00  0.00    -0.010 C 
ATOM     22  C   UNL A   1      38.542 -22.910 -33.762  0.00  0.00    -0.047 C 
ATOM     23  C   UNL A   1      39.104 -21.684 -33.062  0.00  0.00    -0.049 C 
ATOM     24  C   UNL A   1      39.350 -20.557 -34.064  0.00  0.00    -0.024 C 
ENDBRANCH   9  11
ENDBRANCH   8   9
ENDBRANCH   7   8
ENDBRANCH   6   7
ENDBRANCH   4   6
ENDBRANCH   1   2
BRANCH   1  25
ATOM     25  C   UNL A   1      47.496 -18.448 -34.775  0.00  0.00    -0.029 C 
BRANCH  25  26
ATOM     26  C   UNL A   1      47.132 -19.861 -35.223  0.00  0.00    +0.012 C 
BRANCH  26  29
ATOM     27  C   UNL A   1      45.893 -20.143 -37.342  0.00  0.00    +0.246 C 
ATOM     28  O   UNL A   1      44.794 -20.138 -36.802  0.00  0.00    -0.270 OA
ATOM     29  N   UNL A   1      47.082 -19.968 -36.665  0.00  0.00    -0.311 N 
ATOM     30  H   UNL A   1      47.921 -19.915 -37.177  0.00  0.00    +0.000 HD
BRANCH  27  36
ATOM     31  C   UNL A   1      45.751 -19.388 -39.772  0.00  0.00    +0.044 A 
ATOM     32  C   UNL A   1      46.027 -19.692 -41.116  0.00  0.00    -0.040 A 
ATOM     33  C   UNL A   1      46.453 -20.968 -41.500  0.00  0.00    -0.060 A 
ATOM     34  C   UNL A   1      46.638 -21.960 -40.543  0.00  0.00    -0.061 A 
ATOM     35  C   UNL A   1      46.427 -21.669 -39.197  0.00  0.00    -0.048 A 
ATOM     36  C   UNL A   1      46.020 -20.384 -38.806  0.00  0.00    +0.058 A 
BRANCH  31  37
ATOM     37  N   UNL A   1      45.342 -18.076 -39.398  0.00  0.00    -0.314 N 
ATOM     38  H   UNL A   1      45.319 -17.884 -38.433  0.00  0.00    +0.000 HD
BRANCH  37  44
ATOM     39  C   UNL A   1      46.389 -13.690 -41.563  0.00  0.00    -0.039 C 
ATOM     40  C   UNL A   1      45.458 -14.832 -41.259  0.00  0.00    -0.046 A 
ATOM     41  C   UNL A   1      44.138 -14.767 -41.730  0.00  0.00    -0.058 A 
ATOM     42  C   UNL A   1      43.232 -15.785 -41.452  0.00  0.00    -0.060 A 
ATOM     43  C   UNL A   1      43.636 -16.888 -40.706  0.00  0.00    -0.040 A 
ATOM     44  C   UNL A   1      44.962 -17.010 -40.263  0.00  0.00    +0.035 A 
ATOM     45  C   UNL A   1      45.882 -15.970 -40.531  0.00  0.00    -0.026 A 
ATOM     46  C   UNL A   1      47.291 -16.055 -39.996  0.00  0.00    -0.038 C 
ENDBRANCH  37  44
ENDBRANCH  31  37
ENDBRANCH  27  36
ENDBRANCH  26  29
ENDBRANCH  25  26
ENDBRANCH   1  25
TORSDOF 12
ENDMDL
MODEL 7
REMARK VINA RESULT:    -6.591      2.220      7.355
REMARK INTER + INTRA:         -15.954
REMARK INTER:                 -10.888
REMARK INTRA:                  -5.066
REMARK UNBOUND:                -4.740
REMARK  Name = cpd181.pdb
REMARK  14 active torsions:
REMARK  status: ('A' for Active; 'I' for Inactive)
REMARK    1  A    between atoms: C_1  and  C_2
REMARK    2  A    between atoms: C_6  and  N_7
REMARK    3  A    between atoms: N_7  and  C_8
REMARK    4  A    between atoms: C_13  and  C_14
REMARK    5  A    between atoms: N_16  and  C_17
REMARK    6  A    between atoms: C_17  and  C_18
REMARK    7  A    between atoms: C_18  and  C_19
REMARK    8  A    between atoms: C_19  and  C_20
REMARK    9  A    between atoms: N_22  and  C_23
REMARK   10  A    between atoms: C_23  and  C_24
REMARK   11  A    between atoms: C_24  and  C_25
REMARK   12  A    between atoms: C_25  and  N_26
REMARK   13  A    between atoms: N_26  and  C_27
REMARK   14  A    between atoms: C_41  and  C_42
REMARK                            x       y       z     vdW  Elec       q    Type
REMARK                         _______ _______ _______ _____ _____    ______ ____
ROOT
ATOM      1  C   UNL A   1      42.759 -16.391 -39.268  0.00  0.00    +0.025 C 
ENDROOT
BRANCH   1   2
ATOM      2  C   UNL A   1      43.729 -16.166 -40.413  0.00  0.00    +0.213 C 
ATOM      3  O   UNL A   1      43.437 -16.313 -41.593  0.00  0.00    -0.276 OA
ATOM      4  N   UNL A   1      44.984 -15.789 -39.982  0.00  0.00    -0.315 N 
ATOM      5  H   UNL A   1      45.142 -15.664 -39.018  0.00  0.00    +0.000 HD
BRANCH   4   6
ATOM      6  C   UNL A   1      46.075 -15.570 -40.909  0.00  0.00    +0.013 C 
BRANCH   6   7
ATOM      7  C   UNL A   1      47.227 -16.533 -40.648  0.00  0.00    -0.022 C 
BRANCH   7   8
ATOM      8  C   UNL A   1      47.135 -17.124 -39.243  0.00  0.00    +0.011 C 
BRANCH   8   9
ATOM      9  N   UNL A   1      47.187 -18.591 -39.337  0.00  0.00    -0.343 N 
ATOM     10  H   UNL A   1      47.987 -19.101 -39.601  0.00  0.00    +0.000 HD
BRANCH   9  11
ATOM     11  C   UNL A   1      45.932 -19.184 -38.997  0.00  0.00    +0.041 A 
ATOM     12  C   UNL A   1      45.049 -19.626 -40.004  0.00  0.00    -0.005 A 
ATOM     13  C   UNL A   1      43.912 -20.333 -39.600  0.00  0.00    +0.047 A 
ATOM     14  N   UNL A   1      43.611 -20.582 -38.302  0.00  0.00    -0.251 NA
ATOM     15  C   UNL A   1      44.441 -20.142 -37.347  0.00  0.00    +0.073 A 
ATOM     16  C   UNL A   1      44.114 -20.405 -36.022  0.00  0.00    -0.036 A 
ATOM     17  C   UNL A   1      44.919 -19.978 -34.963  0.00  0.00    -0.060 A 
ATOM     18  C   UNL A   1      46.078 -19.265 -35.228  0.00  0.00    -0.061 A 
ATOM     19  C   UNL A   1      46.424 -18.992 -36.550  0.00  0.00    -0.051 A 
ATOM     20  C   UNL A   1      45.622 -19.433 -37.631  0.00  0.00    +0.021 A 
ATOM     21  C   UNL A   1      42.895 -20.840 -40.590  0.00  0.00    -0.010 C 
ATOM     22  C   UNL A   1      43.445 -20.968 -42.005  0.00  0.00    -0.047 C 
ATOM     23  C   UNL A   1      44.152 -19.681 -42.396  0.00  0.00    -0.049 C 
ATOM     24  C   UNL A   1      45.341 -19.419 -41.472  0.00  0.00    -0.024 C 
ENDBRANCH   9  11
ENDBRANCH   8   9
ENDBRANCH   7   8
ENDBRANCH   6   7
ENDBRANCH   4   6
ENDBRANCH   1   2
BRANCH   1  25
ATOM     25  C   UNL A   1      41.643 -17.363 -39.640  0.00  0.00    -0.029 C 
BRANCH  25  26
ATOM     26  C   UNL A   1      41.059 -18.029 -38.398  0.00  0.00    +0.012 C 
BRANCH  26  29
ATOM     27  C   UNL A   1      41.422 -17.265 -36.076  0.00  0.00    +0.246 C 
ATOM     28  O   UNL A   1      40.248 -16.963 -35.899  0.00  0.00    -0.270 OA
ATOM     29  N   UNL A   1      41.901 -17.832 -37.239  0.00  0.00    -0.311 N 
ATOM     30  H   UNL A   1      42.844 -18.112 -37.282  0.00  0.00    +0.000 HD
BRANCH  27  36
ATOM     31  C   UNL A   1      42.224 -17.263 -33.658  0.00  0.00    +0.044 A 
ATOM     32  C   UNL A   1      43.305 -17.087 -32.777  0.00  0.00    -0.040 A 
ATOM     33  C   UNL A   1      44.525 -16.564 -33.219  0.00  0.00    -0.060 A 
ATOM     34  C   UNL A   1      44.698 -16.232 -34.559  0.00  0.00    -0.061 A 
ATOM     35  C   UNL A   1      43.662 -16.451 -35.464  0.00  0.00    -0.048 A 
ATOM     36  C   UNL A   1      42.444 -16.995 -35.027  0.00  0.00    +0.058 A 
BRANCH  31  37
ATOM     37  N   UNL A   1      40.998 -17.820 -33.192  0.00  0.00    -0.314 N 
ATOM     38  H   UNL A   1      40.308 -17.178 -32.907  0.00  0.00    +0.000 HD
BRANCH  37  44
ATOM     39  C   UNL A   1      37.553 -21.377 -32.485  0.00  0.00    -0.039 C 
ATOM     40  C   UNL A   1      38.976 -20.925 -32.675  0.00  0.00    -0.046 A 
ATOM     41  C   UNL A   1      39.999 -21.882 -32.611  0.00  0.00    -0.058 A 
ATOM     42  C   UNL A   1      41.332 -21.510 -32.753  0.00  0.00    -0.060 A 
ATOM     43  C   UNL A   1      41.659 -20.175 -32.970  0.00  0.00    -0.040 A 
ATOM     44  C   UNL A   1      40.658 -19.199 -33.092  0.00  0.00    +0.035 A 
ATOM     45  C   UNL A   1      39.302 -19.571 -32.933  0.00  0.00    -0.026 A 
ATOM     46  C   UNL A   1      38.222 -18.519 -32.987  0.00  0.00    -0.038 C 
ENDBRANCH  37  44
ENDBRANCH  31  37
ENDBRANCH  27  36
ENDBRANCH  26  29
ENDBRANCH  25  26
ENDBRANCH   1  25
TORSDOF 12
ENDMDL
MODEL 8
REMARK VINA RESULT:    -6.587      1.906      5.292
REMARK INTER + INTRA:         -15.948
REMARK INTER:                 -10.455
REMARK INTRA:                  -5.494
REMARK UNBOUND:                -4.740
REMARK  Name = cpd181.pdb
REMARK  14 active torsions:
REMARK  status: ('A' for Active; 'I' for Inactive)
REMARK    1  A    between atoms: C_1  and  C_2
REMARK    2  A    between atoms: C_6  and  N_7
REMARK    3  A    between atoms: N_7  and  C_8
REMARK    4  A    between atoms: C_13  and  C_14
REMARK    5  A    between atoms: N_16  and  C_17
REMARK    6  A    between atoms: C_17  and  C_18
REMARK    7  A    between atoms: C_18  and  C_19
REMARK    8  A    between atoms: C_19  and  C_20
REMARK    9  A    between atoms: N_22  and  C_23
REMARK   10  A    between atoms: C_23  and  C_24
REMARK   11  A    between atoms: C_24  and  C_25
REMARK   12  A    between atoms: C_25  and  N_26
REMARK   13  A    between atoms: N_26  and  C_27
REMARK   14  A    between atoms: C_41  and  C_42
REMARK                            x       y       z     vdW  Elec       q    Type
REMARK                         _______ _______ _______ _____ _____    ______ ____
ROOT
ATOM      1  C   UNL A   1      47.145 -19.984 -35.235  0.00  0.00    +0.025 C 
ENDROOT
BRANCH   1   2
ATOM      2  C   UNL A   1      45.709 -19.512 -35.113  0.00  0.00    +0.213 C 
ATOM      3  O   UNL A   1      44.791 -19.936 -35.804  0.00  0.00    -0.276 OA
ATOM      4  N   UNL A   1      45.547 -18.542 -34.146  0.00  0.00    -0.315 N 
ATOM      5  H   UNL A   1      46.325 -18.266 -33.609  0.00  0.00    +0.000 HD
BRANCH   4   6
ATOM      6  C   UNL A   1      44.263 -17.918 -33.899  0.00  0.00    +0.013 C 
BRANCH   6   7
ATOM      7  C   UNL A   1      43.667 -18.379 -32.574  0.00  0.00    -0.022 C 
BRANCH   7   8
ATOM      8  C   UNL A   1      42.469 -19.297 -32.804  0.00  0.00    +0.011 C 
BRANCH   8   9
ATOM      9  N   UNL A   1      42.297 -19.506 -34.250  0.00  0.00    -0.343 N 
ATOM     10  H   UNL A   1      43.040 -19.638 -34.882  0.00  0.00    +0.000 HD
BRANCH   9  11
ATOM     11  C   UNL A   1      40.918 -19.494 -34.623  0.00  0.00    +0.041 A 
ATOM     12  C   UNL A   1      40.092 -20.607 -34.360  0.00  0.00    -0.005 A 
ATOM     13  C   UNL A   1      38.723 -20.467 -34.612  0.00  0.00    +0.047 A 
ATOM     14  N   UNL A   1      38.170 -19.339 -35.118  0.00  0.00    -0.251 NA
ATOM     15  C   UNL A   1      38.960 -18.291 -35.387  0.00  0.00    +0.073 A 
ATOM     16  C   UNL A   1      38.374 -17.144 -35.907  0.00  0.00    -0.036 A 
ATOM     17  C   UNL A   1      39.124 -16.008 -36.222  0.00  0.00    -0.060 A 
ATOM     18  C   UNL A   1      40.495 -16.015 -36.019  0.00  0.00    -0.061 A 
ATOM     19  C   UNL A   1      41.102 -17.155 -35.497  0.00  0.00    -0.051 A 
ATOM     20  C   UNL A   1      40.348 -18.307 -35.161  0.00  0.00    +0.021 A 
ATOM     21  C   UNL A   1      37.752 -21.596 -34.380  0.00  0.00    -0.010 C 
ATOM     22  C   UNL A   1      38.275 -22.652 -33.414  0.00  0.00    -0.047 C 
ATOM     23  C   UNL A   1      39.677 -23.070 -33.827  0.00  0.00    -0.049 C 
ATOM     24  C   UNL A   1      40.635 -21.882 -33.759  0.00  0.00    -0.024 C 
ENDBRANCH   9  11
ENDBRANCH   8   9
ENDBRANCH   7   8
ENDBRANCH   6   7
ENDBRANCH   4   6
ENDBRANCH   1   2
BRANCH   1  25
ATOM     25  C   UNL A   1      48.112 -18.831 -35.491  0.00  0.00    -0.029 C 
BRANCH  25  26
ATOM     26  C   UNL A   1      47.629 -17.955 -36.643  0.00  0.00    +0.012 C 
BRANCH  26  29
ATOM     27  C   UNL A   1      46.160 -18.261 -38.606  0.00  0.00    +0.246 C 
ATOM     28  O   UNL A   1      45.730 -17.115 -38.573  0.00  0.00    -0.270 OA
ATOM     29  N   UNL A   1      47.118 -18.747 -37.740  0.00  0.00    -0.311 N 
ATOM     30  H   UNL A   1      47.464 -19.659 -37.872  0.00  0.00    +0.000 HD
BRANCH  27  36
ATOM     31  C   UNL A   1      44.346 -19.824 -39.477  0.00  0.00    +0.044 A 
ATOM     32  C   UNL A   1      43.903 -20.641 -40.531  0.00  0.00    -0.040 A 
ATOM     33  C   UNL A   1      44.741 -20.958 -41.606  0.00  0.00    -0.060 A 
ATOM     34  C   UNL A   1      46.031 -20.440 -41.662  0.00  0.00    -0.061 A 
ATOM     35  C   UNL A   1      46.475 -19.581 -40.659  0.00  0.00    -0.048 A 
ATOM     36  C   UNL A   1      45.630 -19.245 -39.590  0.00  0.00    +0.058 A 
BRANCH  31  37
ATOM     37  N   UNL A   1      43.469 -19.494 -38.404  0.00  0.00    -0.314 N 
ATOM     38  H   UNL A   1      43.894 -19.286 -37.541  0.00  0.00    +0.000 HD
BRANCH  37  44
ATOM     39  C   UNL A   1      39.031 -21.738 -37.862  0.00  0.00    -0.039 C 
ATOM     40  C   UNL A   1      39.886 -20.557 -38.239  0.00  0.00    -0.046 A 
ATOM     41  C   UNL A   1      39.261 -19.419 -38.768  0.00  0.00    -0.058 A 
ATOM     42  C   UNL A   1      40.011 -18.312 -39.156  0.00  0.00    -0.060 A 
ATOM     43  C   UNL A   1      41.395 -18.328 -39.012  0.00  0.00    -0.040 A 
ATOM     44  C   UNL A   1      42.047 -19.430 -38.439  0.00  0.00    +0.035 A 
ATOM     45  C   UNL A   1      41.290 -20.563 -38.057  0.00  0.00    -0.026 A 
ATOM     46  C   UNL A   1      41.987 -21.783 -37.508  0.00  0.00    -0.038 C 
ENDBRANCH  37  44
ENDBRANCH  31  37
ENDBRANCH  27  36
ENDBRANCH  26  29
ENDBRANCH  25  26
ENDBRANCH   1  25
TORSDOF 12
ENDMDL
MODEL 9
REMARK VINA RESULT:    -6.581      2.737      5.567
REMARK INTER + INTRA:         -15.937
REMARK INTER:                 -11.596
REMARK INTRA:                  -4.341
REMARK UNBOUND:                -4.740
REMARK  Name = cpd181.pdb
REMARK  14 active torsions:
REMARK  status: ('A' for Active; 'I' for Inactive)
REMARK    1  A    between atoms: C_1  and  C_2
REMARK    2  A    between atoms: C_6  and  N_7
REMARK    3  A    between atoms: N_7  and  C_8
REMARK    4  A    between atoms: C_13  and  C_14
REMARK    5  A    between atoms: N_16  and  C_17
REMARK    6  A    between atoms: C_17  and  C_18
REMARK    7  A    between atoms: C_18  and  C_19
REMARK    8  A    between atoms: C_19  and  C_20
REMARK    9  A    between atoms: N_22  and  C_23
REMARK   10  A    between atoms: C_23  and  C_24
REMARK   11  A    between atoms: C_24  and  C_25
REMARK   12  A    between atoms: C_25  and  N_26
REMARK   13  A    between atoms: N_26  and  C_27
REMARK   14  A    between atoms: C_41  and  C_42
REMARK                            x       y       z     vdW  Elec       q    Type
REMARK                         _______ _______ _______ _____ _____    ______ ____
ROOT
ATOM      1  C   UNL A   1      42.114 -15.362 -40.505  0.00  0.00    +0.025 C 
ENDROOT
BRANCH   1   2
ATOM      2  C   UNL A   1      40.902 -15.183 -39.612  0.00  0.00    +0.213 C 
ATOM      3  O   UNL A   1      40.387 -14.099 -39.370  0.00  0.00    -0.276 OA
ATOM      4  N   UNL A   1      40.445 -16.374 -39.087  0.00  0.00    -0.315 N 
ATOM      5  H   UNL A   1      40.891 -17.213 -39.344  0.00  0.00    +0.000 HD
BRANCH   4   6
ATOM      6  C   UNL A   1      39.326 -16.424 -38.168  0.00  0.00    +0.013 C 
BRANCH   6   7
ATOM      7  C   UNL A   1      38.354 -17.538 -38.536  0.00  0.00    -0.022 C 
BRANCH   7   8
ATOM      8  C   UNL A   1      38.137 -18.484 -37.358  0.00  0.00    +0.011 C 
BRANCH   8   9
ATOM      9  N   UNL A   1      39.434 -18.761 -36.721  0.00  0.00    -0.343 N 
ATOM     10  H   UNL A   1      40.020 -18.070 -36.335  0.00  0.00    +0.000 HD
BRANCH   9  11
ATOM     11  C   UNL A   1      39.738 -20.157 -36.732  0.00  0.00    +0.041 A 
ATOM     12  C   UNL A   1      39.228 -21.012 -35.733  0.00  0.00    -0.005 A 
ATOM     13  C   UNL A   1      39.438 -22.386 -35.892  0.00  0.00    +0.047 A 
ATOM     14  N   UNL A   1      40.126 -22.919 -36.930  0.00  0.00    -0.251 NA
ATOM     15  C   UNL A   1      40.628 -22.103 -37.866  0.00  0.00    +0.073 A 
ATOM     16  C   UNL A   1      41.332 -22.669 -38.922  0.00  0.00    -0.036 A 
ATOM     17  C   UNL A   1      41.894 -21.891 -39.938  0.00  0.00    -0.060 A 
ATOM     18  C   UNL A   1      41.757 -20.512 -39.899  0.00  0.00    -0.061 A 
ATOM     19  C   UNL A   1      41.054 -19.925 -38.849  0.00  0.00    -0.051 A 
ATOM     20  C   UNL A   1      40.468 -20.706 -37.823  0.00  0.00    +0.021 A 
ATOM     21  C   UNL A   1      38.949 -23.388 -34.879  0.00  0.00    -0.010 C 
ATOM     22  C   UNL A   1      37.823 -22.857 -34.001  0.00  0.00    -0.047 C 
ATOM     23  C   UNL A   1      38.212 -21.499 -33.441  0.00  0.00    -0.049 C 
ATOM     24  C   UNL A   1      38.418 -20.490 -34.569  0.00  0.00    -0.024 C 
ENDBRANCH   9  11
ENDBRANCH   8   9
ENDBRANCH   7   8
ENDBRANCH   6   7
ENDBRANCH   4   6
ENDBRANCH   1   2
BRANCH   1  25
ATOM     25  C   UNL A   1      43.132 -14.238 -40.330  0.00  0.00    -0.029 C 
BRANCH  25  26
ATOM     26  C   UNL A   1      44.433 -14.765 -39.732  0.00  0.00    +0.012 C 
BRANCH  26  29
ATOM     27  C   UNL A   1      45.053 -17.005 -38.893  0.00  0.00    +0.246 C 
ATOM     28  O   UNL A   1      46.091 -17.056 -39.541  0.00  0.00    -0.270 OA
ATOM     29  N   UNL A   1      44.206 -15.915 -38.885  0.00  0.00    -0.311 N 
ATOM     30  H   UNL A   1      43.425 -15.921 -38.287  0.00  0.00    +0.000 HD
BRANCH  27  36
ATOM     31  C   UNL A   1      45.032 -19.491 -38.336  0.00  0.00    +0.044 A 
ATOM     32  C   UNL A   1      44.646 -20.489 -37.425  0.00  0.00    -0.040 A 
ATOM     33  C   UNL A   1      43.784 -20.208 -36.360  0.00  0.00    -0.060 A 
ATOM     34  C   UNL A   1      43.311 -18.913 -36.167  0.00  0.00    -0.061 A 
ATOM     35  C   UNL A   1      43.724 -17.893 -37.022  0.00  0.00    -0.048 A 
ATOM     36  C   UNL A   1      44.606 -18.169 -38.079  0.00  0.00    +0.058 A 
BRANCH  31  37
ATOM     37  N   UNL A   1      45.930 -19.794 -39.399  0.00  0.00    -0.314 N 
ATOM     38  H   UNL A   1      46.842 -19.431 -39.317  0.00  0.00    +0.000 HD
BRANCH  37  44
ATOM     39  C   UNL A   1      47.072 -23.623 -42.409  0.00  0.00    -0.039 C 
ATOM     40  C   UNL A   1      46.272 -22.395 -42.067  0.00  0.00    -0.046 A 
ATOM     41  C   UNL A   1      45.333 -21.924 -42.997  0.00  0.00    -0.058 A 
ATOM     42  C   UNL A   1      44.589 -20.777 -42.739  0.00  0.00    -0.060 A 
ATOM     43  C   UNL A   1      44.767 -20.091 -41.542  0.00  0.00    -0.040 A 
ATOM     44  C   UNL A   1      45.660 -20.562 -40.567  0.00  0.00    +0.035 A 
ATOM     45  C   UNL A   1      46.430 -21.719 -40.833  0.00  0.00    -0.026 A 
ATOM     46  C   UNL A   1      47.447 -22.194 -39.824  0.00  0.00    -0.038 C 
ENDBRANCH  37  44
ENDBRANCH  31  37
ENDBRANCH  27  36
ENDBRANCH  26  29
ENDBRANCH  25  26
ENDBRANCH   1  25
TORSDOF 12
ENDMDL
MODEL 10
REMARK VINA RESULT:    -6.563      2.475      7.728
REMARK INTER + INTRA:         -15.906
REMARK INTER:                 -10.824
REMARK INTRA:                  -5.082
REMARK UNBOUND:                -4.740
REMARK  Name = cpd181.pdb
REMARK  14 active torsions:
REMARK  status: ('A' for Active; 'I' for Inactive)
REMARK    1  A    between atoms: C_1  and  C_2
REMARK    2  A    between atoms: C_6  and  N_7
REMARK    3  A    between atoms: N_7  and  C_8
REMARK    4  A    between atoms: C_13  and  C_14
REMARK    5  A    between atoms: N_16  and  C_17
REMARK    6  A    between atoms: C_17  and  C_18
REMARK    7  A    between atoms: C_18  and  C_19
REMARK    8  A    between atoms: C_19  and  C_20
REMARK    9  A    between atoms: N_22  and  C_23
REMARK   10  A    between atoms: C_23  and  C_24
REMARK   11  A    between atoms: C_24  and  C_25
REMARK   12  A    between atoms: C_25  and  N_26
REMARK   13  A    between atoms: N_26  and  C_27
REMARK   14  A    between atoms: C_41  and  C_42
REMARK                            x       y       z     vdW  Elec       q    Type
REMARK                         _______ _______ _______ _____ _____    ______ ____
ROOT
ATOM      1  C   UNL A   1      41.152 -21.031 -35.447  0.00  0.00    +0.025 C 
ENDROOT
BRANCH   1   2
ATOM      2  C   UNL A   1      41.047 -21.788 -36.756  0.00  0.00    +0.213 C 
ATOM      3  O   UNL A   1      41.149 -23.005 -36.851  0.00  0.00    -0.276 OA
ATOM      4  N   UNL A   1      40.838 -20.958 -37.838  0.00  0.00    -0.315 N 
ATOM      5  H   UNL A   1      40.740 -19.990 -37.686  0.00  0.00    +0.000 HD
BRANCH   4   6
ATOM      6  C   UNL A   1      40.757 -21.472 -39.190  0.00  0.00    +0.013 C 
BRANCH   6   7
ATOM      7  C   UNL A   1      41.744 -20.765 -40.112  0.00  0.00    -0.022 C 
BRANCH   7   8
ATOM      8  C   UNL A   1      43.036 -21.567 -40.243  0.00  0.00    +0.011 C 
BRANCH   8   9
ATOM      9  N   UNL A   1      44.056 -20.980 -39.361  0.00  0.00    -0.343 N 
ATOM     10  H   UNL A   1      44.014 -20.999 -38.377  0.00  0.00    +0.000 HD
BRANCH   9  11
ATOM     11  C   UNL A   1      45.115 -20.378 -40.108  0.00  0.00    +0.041 A 
ATOM     12  C   UNL A   1      45.201 -18.976 -40.234  0.00  0.00    -0.005 A 
ATOM     13  C   UNL A   1      46.344 -18.453 -40.846  0.00  0.00    +0.047 A 
ATOM     14  N   UNL A   1      47.342 -19.223 -41.344  0.00  0.00    -0.251 NA
ATOM     15  C   UNL A   1      47.247 -20.555 -41.242  0.00  0.00    +0.073 A 
ATOM     16  C   UNL A   1      48.280 -21.328 -41.760  0.00  0.00    -0.036 A 
ATOM     17  C   UNL A   1      48.260 -22.723 -41.703  0.00  0.00    -0.060 A 
ATOM     18  C   UNL A   1      47.180 -23.369 -41.119  0.00  0.00    -0.061 A 
ATOM     19  C   UNL A   1      46.135 -22.613 -40.593  0.00  0.00    -0.051 A 
ATOM     20  C   UNL A   1      46.154 -21.197 -40.633  0.00  0.00    +0.021 A 
ATOM     21  C   UNL A   1      46.533 -16.971 -41.045  0.00  0.00    -0.010 C 
ATOM     22  C   UNL A   1      45.679 -16.124 -40.110  0.00  0.00    -0.047 C 
ATOM     23  C   UNL A   1      44.239 -16.611 -40.155  0.00  0.00    -0.049 C 
ATOM     24  C   UNL A   1      44.145 -18.056 -39.667  0.00  0.00    -0.024 C 
ENDBRANCH   9  11
ENDBRANCH   8   9
ENDBRANCH   7   8
ENDBRANCH   6   7
ENDBRANCH   4   6
ENDBRANCH   1   2
BRANCH   1  25
ATOM     25  C   UNL A   1      40.361 -19.725 -35.470  0.00  0.00    -0.029 C 
BRANCH  25  26
ATOM     26  C   UNL A   1      41.276 -18.526 -35.243  0.00  0.00    +0.012 C 
BRANCH  26  29
ATOM     27  C   UNL A   1      43.743 -18.451 -35.129  0.00  0.00    +0.246 C 
ATOM     28  O   UNL A   1      43.766 -18.088 -33.960  0.00  0.00    -0.270 OA
ATOM     29  N   UNL A   1      42.584 -18.733 -35.823  0.00  0.00    -0.311 N 
ATOM     30  H   UNL A   1      42.650 -19.086 -36.740  0.00  0.00    +0.000 HD
BRANCH  27  36
ATOM     31  C   UNL A   1      45.771 -17.458 -36.310  0.00  0.00    +0.044 A 
ATOM     32  C   UNL A   1      47.006 -17.703 -36.933  0.00  0.00    -0.040 A 
ATOM     33  C   UNL A   1      47.418 -19.004 -37.245  0.00  0.00    -0.060 A 
ATOM     34  C   UNL A   1      46.613 -20.089 -36.914  0.00  0.00    -0.061 A 
ATOM     35  C   UNL A   1      45.410 -19.878 -36.244  0.00  0.00    -0.048 A 
ATOM     36  C   UNL A   1      45.004 -18.576 -35.911  0.00  0.00    +0.058 A 
BRANCH  31  37
ATOM     37  N   UNL A   1      45.382 -16.128 -35.980  0.00  0.00    -0.314 N 
ATOM     38  H   UNL A   1      45.657 -15.801 -35.093  0.00  0.00    +0.000 HD
BRANCH  37  44
ATOM     39  C   UNL A   1      45.182 -11.909 -38.660  0.00  0.00    -0.039 C 
ATOM     40  C   UNL A   1      44.538 -13.118 -38.035  0.00  0.00    -0.046 A 
ATOM     41  C   UNL A   1      43.148 -13.267 -38.139  0.00  0.00    -0.058 A 
ATOM     42  C   UNL A   1      42.503 -14.354 -37.555  0.00  0.00    -0.060 A 
ATOM     43  C   UNL A   1      43.243 -15.310 -36.866  0.00  0.00    -0.040 A 
ATOM     44  C   UNL A   1      44.641 -15.218 -36.786  0.00  0.00    +0.035 A 
ATOM     45  C   UNL A   1      45.298 -14.107 -37.366  0.00  0.00    -0.026 A 
ATOM     46  C   UNL A   1      46.793 -13.959 -37.223  0.00  0.00    -0.038 C 
ENDBRANCH  37  44
ENDBRANCH  31  37
ENDBRANCH  27  36
ENDBRANCH  26  29
ENDBRANCH  25  26
ENDBRANCH   1  25
TORSDOF 12
ENDMDL
MODEL 11
REMARK VINA RESULT:    -6.526      2.261      5.198
REMARK INTER + INTRA:         -15.845
REMARK INTER:                 -11.927
REMARK INTRA:                  -3.917
REMARK UNBOUND:                -4.740
REMARK  Name = cpd181.pdb
REMARK  14 active torsions:
REMARK  status: ('A' for Active; 'I' for Inactive)
REMARK    1  A    between atoms: C_1  and  C_2
REMARK    2  A    between atoms: C_6  and  N_7
REMARK    3  A    between atoms: N_7  and  C_8
REMARK    4  A    between atoms: C_13  and  C_14
REMARK    5  A    between atoms: N_16  and  C_17
REMARK    6  A    between atoms: C_17  and  C_18
REMARK    7  A    between atoms: C_18  and  C_19
REMARK    8  A    between atoms: C_19  and  C_20
REMARK    9  A    between atoms: N_22  and  C_23
REMARK   10  A    between atoms: C_23  and  C_24
REMARK   11  A    between atoms: C_24  and  C_25
REMARK   12  A    between atoms: C_25  and  N_26
REMARK   13  A    between atoms: N_26  and  C_27
REMARK   14  A    between atoms: C_41  and  C_42
REMARK                            x       y       z     vdW  Elec       q    Type
REMARK                         _______ _______ _______ _____ _____    ______ ____
ROOT
ATOM      1  C   UNL A   1      40.320 -22.267 -37.409  0.00  0.00    +0.025 C 
ENDROOT
BRANCH   1   2
ATOM      2  C   UNL A   1      39.950 -22.949 -36.106  0.00  0.00    +0.213 C 
ATOM      3  O   UNL A   1      39.230 -23.936 -36.033  0.00  0.00    -0.276 OA
ATOM      4  N   UNL A   1      40.502 -22.330 -35.004  0.00  0.00    -0.315 N 
ATOM      5  H   UNL A   1      41.094 -21.554 -35.137  0.00  0.00    +0.000 HD
BRANCH   4   6
ATOM      6  C   UNL A   1      40.236 -22.791 -33.656  0.00  0.00    +0.013 C 
BRANCH   6   7
ATOM      7  C   UNL A   1      41.122 -22.079 -32.641  0.00  0.00    -0.022 C 
BRANCH   7   8
ATOM      8  C   UNL A   1      41.914 -20.954 -33.302  0.00  0.00    +0.011 C 
BRANCH   8   9
ATOM      9  N   UNL A   1      41.462 -19.665 -32.757  0.00  0.00    -0.343 N 
ATOM     10  H   UNL A   1      41.619 -19.370 -31.830  0.00  0.00    +0.000 HD
BRANCH   9  11
ATOM     11  C   UNL A   1      40.768 -18.892 -33.738  0.00  0.00    +0.041 A 
ATOM     12  C   UNL A   1      41.478 -18.176 -34.725  0.00  0.00    -0.005 A 
ATOM     13  C   UNL A   1      40.734 -17.570 -35.741  0.00  0.00    +0.047 A 
ATOM     14  N   UNL A   1      39.381 -17.612 -35.802  0.00  0.00    -0.251 NA
ATOM     15  C   UNL A   1      38.708 -18.275 -34.852  0.00  0.00    +0.073 A 
ATOM     16  C   UNL A   1      37.321 -18.305 -34.930  0.00  0.00    -0.036 A 
ATOM     17  C   UNL A   1      36.541 -18.967 -33.978  0.00  0.00    -0.060 A 
ATOM     18  C   UNL A   1      37.157 -19.611 -32.916  0.00  0.00    -0.061 A 
ATOM     19  C   UNL A   1      38.547 -19.593 -32.820  0.00  0.00    -0.051 A 
ATOM     20  C   UNL A   1      39.347 -18.937 -33.788  0.00  0.00    +0.021 A 
ATOM     21  C   UNL A   1      41.388 -16.770 -36.838  0.00  0.00    -0.010 C 
ATOM     22  C   UNL A   1      42.863 -17.101 -37.027  0.00  0.00    -0.047 C 
ATOM     23  C   UNL A   1      43.570 -17.067 -35.683  0.00  0.00    -0.049 C 
ATOM     24  C   UNL A   1      42.988 -18.120 -34.742  0.00  0.00    -0.024 C 
ENDBRANCH   9  11
ENDBRANCH   8   9
ENDBRANCH   7   8
ENDBRANCH   6   7
ENDBRANCH   4   6
ENDBRANCH   1   2
BRANCH   1  25
ATOM     25  C   UNL A   1      40.899 -20.872 -37.186  0.00  0.00    -0.029 C 
BRANCH  25  26
ATOM     26  C   UNL A   1      41.251 -20.205 -38.512  0.00  0.00    +0.012 C 
BRANCH  26  29
ATOM     27  C   UNL A   1      43.318 -20.000 -39.849  0.00  0.00    +0.246 C 
ATOM     28  O   UNL A   1      43.187 -18.796 -40.029  0.00  0.00    -0.270 OA
ATOM     29  N   UNL A   1      42.455 -20.761 -39.088  0.00  0.00    -0.311 N 
ATOM     30  H   UNL A   1      42.664 -21.710 -38.933  0.00  0.00    +0.000 HD
BRANCH  27  36
ATOM     31  C   UNL A   1      45.618 -21.095 -39.809  0.00  0.00    +0.044 A 
ATOM     32  C   UNL A   1      46.545 -21.911 -40.480  0.00  0.00    -0.040 A 
ATOM     33  C   UNL A   1      46.354 -22.282 -41.816  0.00  0.00    -0.060 A 
ATOM     34  C   UNL A   1      45.216 -21.866 -42.500  0.00  0.00    -0.061 A 
ATOM     35  C   UNL A   1      44.253 -21.104 -41.840  0.00  0.00    -0.048 A 
ATOM     36  C   UNL A   1      44.433 -20.749 -40.494  0.00  0.00    +0.058 A 
BRANCH  31  37
ATOM     37  N   UNL A   1      45.820 -20.750 -38.441  0.00  0.00    -0.314 N 
ATOM     38  H   UNL A   1      45.533 -21.417 -37.776  0.00  0.00    +0.000 HD
BRANCH  37  44
ATOM     39  C   UNL A   1      47.024 -17.872 -34.531  0.00  0.00    -0.039 C 
ATOM     40  C   UNL A   1      46.909 -18.123 -36.011  0.00  0.00    -0.046 A 
ATOM     41  C   UNL A   1      47.245 -17.087 -36.895  0.00  0.00    -0.058 A 
ATOM     42  C   UNL A   1      47.130 -17.261 -38.271  0.00  0.00    -0.060 A 
ATOM     43  C   UNL A   1      46.685 -18.477 -38.781  0.00  0.00    -0.040 A 
ATOM     44  C   UNL A   1      46.390 -19.551 -37.927  0.00  0.00    +0.035 A 
ATOM     45  C   UNL A   1      46.491 -19.373 -36.527  0.00  0.00    -0.026 A 
ATOM     46  C   UNL A   1      46.105 -20.496 -35.596  0.00  0.00    -0.038 C 
ENDBRANCH  37  44
ENDBRANCH  31  37
ENDBRANCH  27  36
ENDBRANCH  26  29
ENDBRANCH  25  26
ENDBRANCH   1  25
TORSDOF 12
ENDMDL
MODEL 12
REMARK VINA RESULT:    -6.523      2.158      6.271
REMARK INTER + INTRA:         -15.839
REMARK INTER:                 -11.576
REMARK INTRA:                  -4.263
REMARK UNBOUND:                -4.740
REMARK  Name = cpd181.pdb
REMARK  14 active torsions:
REMARK  status: ('A' for Active; 'I' for Inactive)
REMARK    1  A    between atoms: C_1  and  C_2
REMARK    2  A    between atoms: C_6  and  N_7
REMARK    3  A    between atoms: N_7  and  C_8
REMARK    4  A    between atoms: C_13  and  C_14
REMARK    5  A    between atoms: N_16  and  C_17
REMARK    6  A    between atoms: C_17  and  C_18
REMARK    7  A    between atoms: C_18  and  C_19
REMARK    8  A    between atoms: C_19  and  C_20
REMARK    9  A    between atoms: N_22  and  C_23
REMARK   10  A    between atoms: C_23  and  C_24
REMARK   11  A    between atoms: C_24  and  C_25
REMARK   12  A    between atoms: C_25  and  N_26
REMARK   13  A    between atoms: N_26  and  C_27
REMARK   14  A    between atoms: C_41  and  C_42
REMARK                            x       y       z     vdW  Elec       q    Type
REMARK                         _______ _______ _______ _____ _____    ______ ____
ROOT
ATOM      1  C   UNL A   1      43.685 -14.884 -36.295  0.00  0.00    +0.025 C 
ENDROOT
BRANCH   1   2
ATOM      2  C   UNL A   1      43.894 -15.723 -35.049  0.00  0.00    +0.213 C 
ATOM      3  O   UNL A   1      43.820 -15.282 -33.910  0.00  0.00    -0.276 OA
ATOM      4  N   UNL A   1      44.189 -17.040 -35.336  0.00  0.00    -0.315 N 
ATOM      5  H   UNL A   1      44.206 -17.333 -36.276  0.00  0.00    +0.000 HD
BRANCH   4   6
ATOM      6  C   UNL A   1      44.473 -18.003 -34.293  0.00  0.00    +0.013 C 
BRANCH   6   7
ATOM      7  C   UNL A   1      45.694 -18.848 -34.634  0.00  0.00    -0.022 C 
BRANCH   7   8
ATOM      8  C   UNL A   1      45.590 -19.409 -36.050  0.00  0.00    +0.011 C 
BRANCH   8   9
ATOM      9  N   UNL A   1      46.926 -19.407 -36.665  0.00  0.00    -0.343 N 
ATOM     10  H   UNL A   1      47.745 -19.712 -36.212  0.00  0.00    +0.000 HD
BRANCH   9  11
ATOM     11  C   UNL A   1      46.888 -18.907 -38.004  0.00  0.00    +0.041 A 
ATOM     12  C   UNL A   1      47.113 -17.539 -38.268  0.00  0.00    -0.005 A 
ATOM     13  C   UNL A   1      47.213 -17.150 -39.607  0.00  0.00    +0.047 A 
ATOM     14  N   UNL A   1      47.075 -18.009 -40.646  0.00  0.00    -0.251 NA
ATOM     15  C   UNL A   1      46.839 -19.303 -40.392  0.00  0.00    +0.073 A 
ATOM     16  C   UNL A   1      46.697 -20.168 -41.470  0.00  0.00    -0.036 A 
ATOM     17  C   UNL A   1      46.444 -21.531 -41.297  0.00  0.00    -0.060 A 
ATOM     18  C   UNL A   1      46.322 -22.047 -40.016  0.00  0.00    -0.061 A 
ATOM     19  C   UNL A   1      46.462 -21.197 -38.921  0.00  0.00    -0.051 A 
ATOM     20  C   UNL A   1      46.734 -19.816 -39.087  0.00  0.00    +0.021 A 
ATOM     21  C   UNL A   1      47.440 -15.714 -40.003  0.00  0.00    -0.010 C 
ATOM     22  C   UNL A   1      48.038 -14.867 -38.887  0.00  0.00    -0.047 C 
ATOM     23  C   UNL A   1      47.243 -15.075 -37.608  0.00  0.00    -0.049 C 
ATOM     24  C   UNL A   1      47.317 -16.533 -37.159  0.00  0.00    -0.024 C 
ENDBRANCH   9  11
ENDBRANCH   8   9
ENDBRANCH   7   8
ENDBRANCH   6   7
ENDBRANCH   4   6
ENDBRANCH   1   2
BRANCH   1  25
ATOM     25  C   UNL A   1      43.611 -15.736 -37.560  0.00  0.00    -0.029 C 
BRANCH  25  26
ATOM     26  C   UNL A   1      42.163 -15.970 -37.978  0.00  0.00    +0.012 C 
BRANCH  26  29
ATOM     27  C   UNL A   1      41.854 -18.420 -37.892  0.00  0.00    +0.246 C 
ATOM     28  O   UNL A   1      41.782 -18.456 -36.670  0.00  0.00    -0.270 OA
ATOM     29  N   UNL A   1      41.992 -17.256 -38.619  0.00  0.00    -0.311 N 
ATOM     30  H   UNL A   1      41.974 -17.300 -39.602  0.00  0.00    +0.000 HD
BRANCH  27  36
ATOM     31  C   UNL A   1      40.844 -20.669 -38.536  0.00  0.00    +0.044 A 
ATOM     32  C   UNL A   1      40.856 -21.750 -39.433  0.00  0.00    -0.040 A 
ATOM     33  C   UNL A   1      41.875 -21.898 -40.380  0.00  0.00    -0.060 A 
ATOM     34  C   UNL A   1      42.889 -20.949 -40.468  0.00  0.00    -0.061 A 
ATOM     35  C   UNL A   1      42.869 -19.837 -39.629  0.00  0.00    -0.048 A 
ATOM     36  C   UNL A   1      41.837 -19.676 -38.692  0.00  0.00    +0.058 A 
BRANCH  31  37
ATOM     37  N   UNL A   1      39.783 -20.525 -37.596  0.00  0.00    -0.314 N 
ATOM     38  H   UNL A   1      39.115 -19.829 -37.795  0.00  0.00    +0.000 HD
BRANCH  37  44
ATOM     39  C   UNL A   1      37.329 -21.197 -33.289  0.00  0.00    -0.039 C 
ATOM     40  C   UNL A   1      38.420 -21.548 -34.265  0.00  0.00    -0.046 A 
ATOM     41  C   UNL A   1      39.340 -22.546 -33.914  0.00  0.00    -0.058 A 
ATOM     42  C   UNL A   1      40.382 -22.886 -34.771  0.00  0.00    -0.060 A 
ATOM     43  C   UNL A   1      40.513 -22.238 -35.995  0.00  0.00    -0.040 A 
ATOM     44  C   UNL A   1      39.580 -21.271 -36.401  0.00  0.00    +0.035 A 
ATOM     45  C   UNL A   1      38.528 -20.912 -35.526  0.00  0.00    -0.026 A 
ATOM     46  C   UNL A   1      37.562 -19.820 -35.919  0.00  0.00    -0.038 C 
ENDBRANCH  37  44
ENDBRANCH  31  37
ENDBRANCH  27  36
ENDBRANCH  26  29
ENDBRANCH  25  26
ENDBRANCH   1  25
TORSDOF 12
ENDMDL
MODEL 13
REMARK VINA RESULT:    -6.505      2.231      7.577
REMARK INTER + INTRA:         -15.808
REMARK INTER:                 -11.192
REMARK INTRA:                  -4.616
REMARK UNBOUND:                -4.740
REMARK  Name = cpd181.pdb
REMARK  14 active torsions:
REMARK  status: ('A' for Active; 'I' for Inactive)
REMARK    1  A    between atoms: C_1  and  C_2
REMARK    2  A    between atoms: C_6  and  N_7
REMARK    3  A    between atoms: N_7  and  C_8
REMARK    4  A    between atoms: C_13  and  C_14
REMARK    5  A    between atoms: N_16  and  C_17
REMARK    6  A    between atoms: C_17  and  C_18
REMARK    7  A    between atoms: C_18  and  C_19
REMARK    8  A    between atoms: C_19  and  C_20
REMARK    9  A    between atoms: N_22  and  C_23
REMARK   10  A    between atoms: C_23  and  C_24
REMARK   11  A    between atoms: C_24  and  C_25
REMARK   12  A    between atoms: C_25  and  N_26
REMARK   13  A    between atoms: N_26  and  C_27
REMARK   14  A    between atoms: C_41  and  C_42
REMARK                            x       y       z     vdW  Elec       q    Type
REMARK                         _______ _______ _______ _____ _____    ______ ____
ROOT
ATOM      1  C   UNL A   1      40.720 -21.217 -34.731  0.00  0.00    +0.025 C 
ENDROOT
BRANCH   1   2
ATOM      2  C   UNL A   1      40.685 -22.005 -36.027  0.00  0.00    +0.213 C 
ATOM      3  O   UNL A   1      41.218 -23.097 -36.176  0.00  0.00    -0.276 OA
ATOM      4  N   UNL A   1      39.997 -21.353 -37.029  0.00  0.00    -0.315 N 
ATOM      5  H   UNL A   1      39.570 -20.488 -36.832  0.00  0.00    +0.000 HD
BRANCH   4   6
ATOM      6  C   UNL A   1      39.884 -21.907 -38.362  0.00  0.00    +0.013 C 
BRANCH   6   7
ATOM      7  C   UNL A   1      40.652 -21.071 -39.378  0.00  0.00    -0.022 C 
BRANCH   7   8
ATOM      8  C   UNL A   1      42.059 -21.626 -39.590  0.00  0.00    +0.011 C 
BRANCH   8   9
ATOM      9  N   UNL A   1      43.006 -20.859 -38.767  0.00  0.00    -0.343 N 
ATOM     10  H   UNL A   1      43.036 -20.890 -37.783  0.00  0.00    +0.000 HD
BRANCH   9  11
ATOM     11  C   UNL A   1      43.877 -20.063 -39.572  0.00  0.00    +0.041 A 
ATOM     12  C   UNL A   1      44.995 -20.640 -40.210  0.00  0.00    -0.005 A 
ATOM     13  C   UNL A   1      45.714 -19.838 -41.102  0.00  0.00    +0.047 A 
ATOM     14  N   UNL A   1      45.407 -18.542 -41.353  0.00  0.00    -0.251 NA
ATOM     15  C   UNL A   1      44.358 -17.990 -40.728  0.00  0.00    +0.073 A 
ATOM     16  C   UNL A   1      44.060 -16.659 -40.996  0.00  0.00    -0.036 A 
ATOM     17  C   UNL A   1      42.989 -16.003 -40.385  0.00  0.00    -0.060 A 
ATOM     18  C   UNL A   1      42.195 -16.687 -39.478  0.00  0.00    -0.061 A 
ATOM     19  C   UNL A   1      42.476 -18.023 -39.196  0.00  0.00    -0.051 A 
ATOM     20  C   UNL A   1      43.551 -18.701 -39.822  0.00  0.00    +0.021 A 
ATOM     21  C   UNL A   1      46.931 -20.348 -41.829  0.00  0.00    -0.010 C 
ATOM     22  C   UNL A   1      46.993 -21.868 -41.906  0.00  0.00    -0.047 C 
ATOM     23  C   UNL A   1      46.761 -22.459 -40.525  0.00  0.00    -0.049 C 
ATOM     24  C   UNL A   1      45.372 -22.089 -40.009  0.00  0.00    -0.024 C 
ENDBRANCH   9  11
ENDBRANCH   8   9
ENDBRANCH   7   8
ENDBRANCH   6   7
ENDBRANCH   4   6
ENDBRANCH   1   2
BRANCH   1  25
ATOM     25  C   UNL A   1      41.402 -19.862 -34.898  0.00  0.00    -0.029 C 
BRANCH  25  26
ATOM     26  C   UNL A   1      41.646 -19.201 -33.545  0.00  0.00    +0.012 C 
BRANCH  26  29
ATOM     27  C   UNL A   1      43.455 -17.533 -33.307  0.00  0.00    +0.246 C 
ATOM     28  O   UNL A   1      44.272 -18.348 -32.897  0.00  0.00    -0.270 OA
ATOM     29  N   UNL A   1      42.170 -17.861 -33.691  0.00  0.00    -0.311 N 
ATOM     30  H   UNL A   1      41.593 -17.162 -34.075  0.00  0.00    +0.000 HD
BRANCH  27  36
ATOM     31  C   UNL A   1      43.998 -15.410 -34.607  0.00  0.00    +0.044 A 
ATOM     32  C   UNL A   1      44.188 -14.019 -34.560  0.00  0.00    -0.040 A 
ATOM     33  C   UNL A   1      44.282 -13.338 -33.341  0.00  0.00    -0.060 A 
ATOM     34  C   UNL A   1      44.158 -14.033 -32.142  0.00  0.00    -0.061 A 
ATOM     35  C   UNL A   1      43.911 -15.404 -32.161  0.00  0.00    -0.048 A 
ATOM     36  C   UNL A   1      43.796 -16.086 -33.382  0.00  0.00    +0.058 A 
BRANCH  31  37
ATOM     37  N   UNL A   1      43.880 -16.080 -35.859  0.00  0.00    -0.314 N 
ATOM     38  H   UNL A   1      42.989 -16.433 -36.083  0.00  0.00    +0.000 HD
BRANCH  37  44
ATOM     39  C   UNL A   1      47.255 -19.112 -37.967  0.00  0.00    -0.039 C 
ATOM     40  C   UNL A   1      46.599 -17.768 -37.797  0.00  0.00    -0.046 A 
ATOM     41  C   UNL A   1      47.113 -16.675 -38.511  0.00  0.00    -0.058 A 
ATOM     42  C   UNL A   1      46.558 -15.407 -38.367  0.00  0.00    -0.060 A 
ATOM     43  C   UNL A   1      45.477 -15.217 -37.513  0.00  0.00    -0.040 A 
ATOM     44  C   UNL A   1      44.905 -16.297 -36.822  0.00  0.00    +0.035 A 
ATOM     45  C   UNL A   1      45.476 -17.584 -36.955  0.00  0.00    -0.026 A 
ATOM     46  C   UNL A   1      44.917 -18.740 -36.160  0.00  0.00    -0.038 C 
ENDBRANCH  37  44
ENDBRANCH  31  37
ENDBRANCH  27  36
ENDBRANCH  26  29
ENDBRANCH  25  26
ENDBRANCH   1  25
TORSDOF 12
ENDMDL
MODEL 14
REMARK VINA RESULT:    -6.420      2.481      6.532
REMARK INTER + INTRA:         -15.664
REMARK INTER:                  -9.926
REMARK INTRA:                  -5.738
REMARK UNBOUND:                -4.740
REMARK  Name = cpd181.pdb
REMARK  14 active torsions:
REMARK  status: ('A' for Active; 'I' for Inactive)
REMARK    1  A    between atoms: C_1  and  C_2
REMARK    2  A    between atoms: C_6  and  N_7
REMARK    3  A    between atoms: N_7  and  C_8
REMARK    4  A    between atoms: C_13  and  C_14
REMARK    5  A    between atoms: N_16  and  C_17
REMARK    6  A    between atoms: C_17  and  C_18
REMARK    7  A    between atoms: C_18  and  C_19
REMARK    8  A    between atoms: C_19  and  C_20
REMARK    9  A    between atoms: N_22  and  C_23
REMARK   10  A    between atoms: C_23  and  C_24
REMARK   11  A    between atoms: C_24  and  C_25
REMARK   12  A    between atoms: C_25  and  N_26
REMARK   13  A    between atoms: N_26  and  C_27
REMARK   14  A    between atoms: C_41  and  C_42
REMARK                            x       y       z     vdW  Elec       q    Type
REMARK                         _______ _______ _______ _____ _____    ______ ____
ROOT
ATOM      1  C   UNL A   1      40.590 -14.193 -40.101  0.00  0.00    +0.025 C 
ENDROOT
BRANCH   1   2
ATOM      2  C   UNL A   1      41.818 -14.793 -40.757  0.00  0.00    +0.213 C 
ATOM      3  O   UNL A   1      42.032 -15.997 -40.832  0.00  0.00    -0.276 OA
ATOM      4  N   UNL A   1      42.680 -13.837 -41.252  0.00  0.00    -0.315 N 
ATOM      5  H   UNL A   1      42.432 -12.886 -41.180  0.00  0.00    +0.000 HD
BRANCH   4   6
ATOM      6  C   UNL A   1      43.938 -14.192 -41.875  0.00  0.00    +0.013 C 
BRANCH   6   7
ATOM      7  C   UNL A   1      45.043 -14.362 -40.839  0.00  0.00    -0.022 C 
BRANCH   7   8
ATOM      8  C   UNL A   1      45.617 -15.776 -40.880  0.00  0.00    +0.011 C 
BRANCH   8   9
ATOM      9  N   UNL A   1      44.710 -16.682 -40.159  0.00  0.00    -0.343 N 
ATOM     10  H   UNL A   1      43.808 -16.434 -39.852  0.00  0.00    +0.000 HD
BRANCH   9  11
ATOM     11  C   UNL A   1      45.301 -17.968 -39.959  0.00  0.00    +0.041 A 
ATOM     12  C   UNL A   1      46.021 -18.254 -38.781  0.00  0.00    -0.005 A 
ATOM     13  C   UNL A   1      46.439 -19.574 -38.585  0.00  0.00    +0.047 A 
ATOM     14  N   UNL A   1      46.212 -20.568 -39.477  0.00  0.00    -0.251 NA
ATOM     15  C   UNL A   1      45.547 -20.288 -40.606  0.00  0.00    +0.073 A 
ATOM     16  C   UNL A   1      45.326 -21.320 -41.511  0.00  0.00    -0.036 A 
ATOM     17  C   UNL A   1      44.647 -21.117 -42.714  0.00  0.00    -0.060 A 
ATOM     18  C   UNL A   1      44.180 -19.850 -43.030  0.00  0.00    -0.061 A 
ATOM     19  C   UNL A   1      44.389 -18.802 -42.137  0.00  0.00    -0.051 A 
ATOM     20  C   UNL A   1      45.064 -19.002 -40.907  0.00  0.00    +0.021 A 
ATOM     21  C   UNL A   1      47.226 -19.987 -37.368  0.00  0.00    -0.010 C 
ATOM     22  C   UNL A   1      47.078 -19.023 -36.198  0.00  0.00    -0.047 C 
ATOM     23  C   UNL A   1      47.316 -17.600 -36.678  0.00  0.00    -0.049 C 
ATOM     24  C   UNL A   1      46.275 -17.204 -37.724  0.00  0.00    -0.024 C 
ENDBRANCH   9  11
ENDBRANCH   8   9
ENDBRANCH   7   8
ENDBRANCH   6   7
ENDBRANCH   4   6
ENDBRANCH   1   2
BRANCH   1  25
ATOM     25  C   UNL A   1      40.210 -14.920 -38.814  0.00  0.00    -0.029 C 
BRANCH  25  26
ATOM     26  C   UNL A   1      39.333 -16.134 -39.107  0.00  0.00    +0.012 C 
BRANCH  26  29
ATOM     27  C   UNL A   1      40.016 -18.383 -38.347  0.00  0.00    +0.246 C 
ATOM     28  O   UNL A   1      39.211 -18.412 -37.424  0.00  0.00    -0.270 OA
ATOM     29  N   UNL A   1      40.118 -17.340 -39.245  0.00  0.00    -0.311 N 
ATOM     30  H   UNL A   1      40.743 -17.420 -40.001  0.00  0.00    +0.000 HD
BRANCH  27  36
ATOM     31  C   UNL A   1      41.936 -19.858 -37.552  0.00  0.00    +0.044 A 
ATOM     32  C   UNL A   1      42.721 -20.999 -37.793  0.00  0.00    -0.040 A 
ATOM     33  C   UNL A   1      42.650 -21.686 -39.009  0.00  0.00    -0.060 A 
ATOM     34  C   UNL A   1      41.771 -21.262 -40.001  0.00  0.00    -0.061 A 
ATOM     35  C   UNL A   1      40.940 -20.169 -39.766  0.00  0.00    -0.048 A 
ATOM     36  C   UNL A   1      40.994 -19.491 -38.538  0.00  0.00    +0.058 A 
BRANCH  31  37
ATOM     37  N   UNL A   1      42.005 -19.188 -36.297  0.00  0.00    -0.314 N 
ATOM     38  H   UNL A   1      41.411 -19.527 -35.588  0.00  0.00    +0.000 HD
BRANCH  37  44
ATOM     39  C   UNL A   1      45.456 -17.152 -33.302  0.00  0.00    -0.039 C 
ATOM     40  C   UNL A   1      44.471 -17.076 -34.438  0.00  0.00    -0.046 A 
ATOM     41  C   UNL A   1      44.273 -15.842 -35.073  0.00  0.00    -0.058 A 
ATOM     42  C   UNL A   1      43.353 -15.714 -36.110  0.00  0.00    -0.060 A 
ATOM     43  C   UNL A   1      42.625 -16.824 -36.530  0.00  0.00    -0.040 A 
ATOM     44  C   UNL A   1      42.835 -18.084 -35.951  0.00  0.00    +0.035 A 
ATOM     45  C   UNL A   1      43.758 -18.214 -34.886  0.00  0.00    -0.026 A 
ATOM     46  C   UNL A   1      43.938 -19.549 -34.206  0.00  0.00    -0.038 C 
ENDBRANCH  37  44
ENDBRANCH  31  37
ENDBRANCH  27  36
ENDBRANCH  26  29
ENDBRANCH  25  26
ENDBRANCH   1  25
TORSDOF 12
ENDMDL
MODEL 15
REMARK VINA RESULT:    -6.366      2.075      7.155
REMARK INTER + INTRA:         -15.572
REMARK INTER:                 -11.144
REMARK INTRA:                  -4.428
REMARK UNBOUND:                -4.740
REMARK  Name = cpd181.pdb
REMARK  14 active torsions:
REMARK  status: ('A' for Active; 'I' for Inactive)
REMARK    1  A    between atoms: C_1  and  C_2
REMARK    2  A    between atoms: C_6  and  N_7
REMARK    3  A    between atoms: N_7  and  C_8
REMARK    4  A    between atoms: C_13  and  C_14
REMARK    5  A    between atoms: N_16  and  C_17
REMARK    6  A    between atoms: C_17  and  C_18
REMARK    7  A    between atoms: C_18  and  C_19
REMARK    8  A    between atoms: C_19  and  C_20
REMARK    9  A    between atoms: N_22  and  C_23
REMARK   10  A    between atoms: C_23  and  C_24
REMARK   11  A    between atoms: C_24  and  C_25
REMARK   12  A    between atoms: C_25  and  N_26
REMARK   13  A    between atoms: N_26  and  C_27
REMARK   14  A    between atoms: C_41  and  C_42
REMARK                            x       y       z     vdW  Elec       q    Type
REMARK                         _______ _______ _______ _____ _____    ______ ____
ROOT
ATOM      1  C   UNL A   1      42.417 -16.268 -36.737  0.00  0.00    +0.025 C 
ENDROOT
BRANCH   1   2
ATOM      2  C   UNL A   1      42.276 -15.364 -37.947  0.00  0.00    +0.213 C 
ATOM      3  O   UNL A   1      41.200 -15.044 -38.437  0.00  0.00    -0.276 OA
ATOM      4  N   UNL A   1      43.492 -14.949 -38.447  0.00  0.00    -0.315 N 
ATOM      5  H   UNL A   1      44.318 -15.224 -37.987  0.00  0.00    +0.000 HD
BRANCH   4   6
ATOM      6  C   UNL A   1      43.587 -14.120 -39.631  0.00  0.00    +0.013 C 
BRANCH   6   7
ATOM      7  C   UNL A   1      44.618 -14.666 -40.611  0.00  0.00    -0.022 C 
BRANCH   7   8
ATOM      8  C   UNL A   1      44.461 -16.175 -40.783  0.00  0.00    +0.011 C 
BRANCH   8   9
ATOM      9  N   UNL A   1      45.794 -16.788 -40.877  0.00  0.00    -0.343 N 
ATOM     10  H   UNL A   1      46.520 -16.449 -41.450  0.00  0.00    +0.000 HD
BRANCH   9  11
ATOM     11  C   UNL A   1      45.906 -17.937 -40.034  0.00  0.00    +0.041 A 
ATOM     12  C   UNL A   1      45.593 -19.222 -40.524  0.00  0.00    -0.005 A 
ATOM     13  C   UNL A   1      45.871 -20.313 -39.694  0.00  0.00    +0.047 A 
ATOM     14  N   UNL A   1      46.390 -20.189 -38.449  0.00  0.00    -0.251 NA
ATOM     15  C   UNL A   1      46.666 -18.966 -37.978  0.00  0.00    +0.073 A 
ATOM     16  C   UNL A   1      47.196 -18.859 -36.698  0.00  0.00    -0.036 A 
ATOM     17  C   UNL A   1      47.507 -17.623 -36.127  0.00  0.00    -0.060 A 
ATOM     18  C   UNL A   1      47.279 -16.460 -36.846  0.00  0.00    -0.061 A 
ATOM     19  C   UNL A   1      46.749 -16.545 -38.132  0.00  0.00    -0.051 A 
ATOM     20  C   UNL A   1      46.444 -17.795 -38.725  0.00  0.00    +0.021 A 
ATOM     21  C   UNL A   1      45.565 -21.728 -40.111  0.00  0.00    -0.010 C 
ATOM     22  C   UNL A   1      45.428 -21.896 -41.619  0.00  0.00    -0.047 C 
ATOM     23  C   UNL A   1      44.487 -20.836 -42.167  0.00  0.00    -0.049 C 
ATOM     24  C   UNL A   1      45.049 -19.437 -41.917  0.00  0.00    -0.024 C 
ENDBRANCH   9  11
ENDBRANCH   8   9
ENDBRANCH   7   8
ENDBRANCH   6   7
ENDBRANCH   4   6
ENDBRANCH   1   2
BRANCH   1  25
ATOM     25  C   UNL A   1      43.250 -17.510 -37.038  0.00  0.00    -0.029 C 
BRANCH  25  26
ATOM     26  C   UNL A   1      42.458 -18.514 -37.870  0.00  0.00    +0.012 C 
BRANCH  26  29
ATOM     27  C   UNL A   1      42.200 -20.648 -36.650  0.00  0.00    +0.246 C 
ATOM     28  O   UNL A   1      43.334 -21.033 -36.906  0.00  0.00    -0.270 OA
ATOM     29  N   UNL A   1      41.700 -19.420 -37.035  0.00  0.00    -0.311 N 
ATOM     30  H   UNL A   1      40.802 -19.154 -36.733  0.00  0.00    +0.000 HD
BRANCH  27  36
ATOM     31  C   UNL A   1      41.303 -21.718 -34.519  0.00  0.00    +0.044 A 
ATOM     32  C   UNL A   1      40.274 -22.466 -33.921  0.00  0.00    -0.040 A 
ATOM     33  C   UNL A   1      39.286 -23.089 -34.691  0.00  0.00    -0.060 A 
ATOM     34  C   UNL A   1      39.290 -22.953 -36.076  0.00  0.00    -0.061 A 
ATOM     35  C   UNL A   1      40.265 -22.169 -36.689  0.00  0.00    -0.048 A 
ATOM     36  C   UNL A   1      41.246 -21.526 -35.918  0.00  0.00    +0.058 A 
BRANCH  31  37
ATOM     37  N   UNL A   1      42.285 -21.072 -33.715  0.00  0.00    -0.314 N 
ATOM     38  H   UNL A   1      42.912 -21.661 -33.235  0.00  0.00    +0.000 HD
BRANCH  37  44
ATOM     39  C   UNL A   1      45.325 -17.116 -33.363  0.00  0.00    -0.039 C 
ATOM     40  C   UNL A   1      43.966 -17.758 -33.286  0.00  0.00    -0.046 A 
ATOM     41  C   UNL A   1      42.876 -16.974 -32.881  0.00  0.00    -0.058 A 
ATOM     42  C   UNL A   1      41.604 -17.529 -32.768  0.00  0.00    -0.060 A 
ATOM     43  C   UNL A   1      41.405 -18.873 -33.068  0.00  0.00    -0.040 A 
ATOM     44  C   UNL A   1      42.463 -19.673 -33.526  0.00  0.00    +0.035 A 
ATOM     45  C   UNL A   1      43.760 -19.116 -33.627  0.00  0.00    -0.026 A 
ATOM     46  C   UNL A   1      44.921 -19.985 -34.047  0.00  0.00    -0.038 C 
ENDBRANCH  37  44
ENDBRANCH  31  37
ENDBRANCH  27  36
ENDBRANCH  26  29
ENDBRANCH  25  26
ENDBRANCH   1  25
TORSDOF 12
ENDMDL
MODEL 16
REMARK VINA RESULT:    -6.356      2.556      6.252
REMARK INTER + INTRA:         -15.554
REMARK INTER:                 -10.774
REMARK INTRA:                  -4.781
REMARK UNBOUND:                -4.740
REMARK  Name = cpd181.pdb
REMARK  14 active torsions:
REMARK  status: ('A' for Active; 'I' for Inactive)
REMARK    1  A    between atoms: C_1  and  C_2
REMARK    2  A    between atoms: C_6  and  N_7
REMARK    3  A    between atoms: N_7  and  C_8
REMARK    4  A    between atoms: C_13  and  C_14
REMARK    5  A    between atoms: N_16  and  C_17
REMARK    6  A    between atoms: C_17  and  C_18
REMARK    7  A    between atoms: C_18  and  C_19
REMARK    8  A    between atoms: C_19  and  C_20
REMARK    9  A    between atoms: N_22  and  C_23
REMARK   10  A    between atoms: C_23  and  C_24
REMARK   11  A    between atoms: C_24  and  C_25
REMARK   12  A    between atoms: C_25  and  N_26
REMARK   13  A    between atoms: N_26  and  C_27
REMARK   14  A    between atoms: C_41  and  C_42
REMARK                            x       y       z     vdW  Elec       q    Type
REMARK                         _______ _______ _______ _____ _____    ______ ____
ROOT
ATOM      1  C   UNL A   1      41.861 -16.086 -39.703  0.00  0.00    +0.025 C 
ENDROOT
BRANCH   1   2
ATOM      2  C   UNL A   1      40.409 -15.662 -39.809  0.00  0.00    +0.213 C 
ATOM      3  O   UNL A   1      40.036 -14.496 -39.790  0.00  0.00    -0.276 OA
ATOM      4  N   UNL A   1      39.547 -16.733 -39.915  0.00  0.00    -0.315 N 
ATOM      5  H   UNL A   1      39.917 -17.644 -39.950  0.00  0.00    +0.000 HD
BRANCH   4   6
ATOM      6  C   UNL A   1      38.110 -16.554 -39.977  0.00  0.00    +0.013 C 
BRANCH   6   7
ATOM      7  C   UNL A   1      37.384 -17.584 -39.121  0.00  0.00    -0.022 C 
BRANCH   7   8
ATOM      8  C   UNL A   1      38.321 -18.179 -38.072  0.00  0.00    +0.011 C 
BRANCH   8   9
ATOM      9  N   UNL A   1      37.974 -19.594 -37.868  0.00  0.00    -0.343 N 
ATOM     10  H   UNL A   1      37.117 -19.998 -38.135  0.00  0.00    +0.000 HD
BRANCH   9  11
ATOM     11  C   UNL A   1      39.036 -20.309 -37.234  0.00  0.00    +0.041 A 
ATOM     12  C   UNL A   1      38.948 -20.673 -35.874  0.00  0.00    -0.005 A 
ATOM     13  C   UNL A   1      39.951 -21.501 -35.362  0.00  0.00    +0.047 A 
ATOM     14  N   UNL A   1      41.004 -21.938 -36.095  0.00  0.00    -0.251 NA
ATOM     15  C   UNL A   1      41.097 -21.573 -37.380  0.00  0.00    +0.073 A 
ATOM     16  C   UNL A   1      42.185 -22.028 -38.115  0.00  0.00    -0.036 A 
ATOM     17  C   UNL A   1      42.364 -21.691 -39.459  0.00  0.00    -0.060 A 
ATOM     18  C   UNL A   1      41.438 -20.873 -40.088  0.00  0.00    -0.061 A 
ATOM     19  C   UNL A   1      40.339 -20.407 -39.370  0.00  0.00    -0.051 A 
ATOM     20  C   UNL A   1      40.142 -20.755 -38.011  0.00  0.00    +0.021 A 
ATOM     21  C   UNL A   1      39.962 -21.940 -33.920  0.00  0.00    -0.010 C 
ATOM     22  C   UNL A   1      38.597 -21.845 -33.251  0.00  0.00    -0.047 C 
ATOM     23  C   UNL A   1      37.997 -20.473 -33.512  0.00  0.00    -0.049 C 
ATOM     24  C   UNL A   1      37.782 -20.255 -35.009  0.00  0.00    -0.024 C 
ENDBRANCH   9  11
ENDBRANCH   8   9
ENDBRANCH   7   8
ENDBRANCH   6   7
ENDBRANCH   4   6
ENDBRANCH   1   2
BRANCH   1  25
ATOM     25  C   UNL A   1      42.789 -15.169 -40.496  0.00  0.00    -0.029 C 
BRANCH  25  26
ATOM     26  C   UNL A   1      43.323 -15.872 -41.740  0.00  0.00    +0.012 C 
BRANCH  26  29
ATOM     27  C   UNL A   1      45.008 -17.532 -41.026  0.00  0.00    +0.246 C 
ATOM     28  O   UNL A   1      45.861 -16.689 -40.777  0.00  0.00    -0.270 OA
ATOM     29  N   UNL A   1      43.732 -17.229 -41.454  0.00  0.00    -0.311 N 
ATOM     30  H   UNL A   1      43.080 -17.958 -41.568  0.00  0.00    +0.000 HD
BRANCH  27  36
ATOM     31  C   UNL A   1      45.658 -19.604 -39.693  0.00  0.00    +0.044 A 
ATOM     32  C   UNL A   1      45.806 -21.001 -39.689  0.00  0.00    -0.040 A 
ATOM     33  C   UNL A   1      45.725 -21.745 -40.872  0.00  0.00    -0.060 A 
ATOM     34  C   UNL A   1      45.467 -21.107 -42.081  0.00  0.00    -0.061 A 
ATOM     35  C   UNL A   1      45.259 -19.730 -42.105  0.00  0.00    -0.048 A 
ATOM     36  C   UNL A   1      45.319 -18.984 -40.917  0.00  0.00    +0.058 A 
BRANCH  31  37
ATOM     37  N   UNL A   1      45.720 -18.869 -38.475  0.00  0.00    -0.314 N 
ATOM     38  H   UNL A   1      46.544 -18.354 -38.317  0.00  0.00    +0.000 HD
BRANCH  37  44
ATOM     39  C   UNL A   1      43.985 -20.323 -34.014  0.00  0.00    -0.039 C 
ATOM     40  C   UNL A   1      43.853 -19.566 -35.309  0.00  0.00    -0.046 A 
ATOM     41  C   UNL A   1      42.654 -18.886 -35.570  0.00  0.00    -0.058 A 
ATOM     42  C   UNL A   1      42.474 -18.195 -36.764  0.00  0.00    -0.060 A 
ATOM     43  C   UNL A   1      43.494 -18.168 -37.710  0.00  0.00    -0.040 A 
ATOM     44  C   UNL A   1      44.725 -18.794 -37.459  0.00  0.00    +0.035 A 
ATOM     45  C   UNL A   1      44.906 -19.511 -36.253  0.00  0.00    -0.026 A 
ATOM     46  C   UNL A   1      46.198 -20.250 -36.005  0.00  0.00    -0.038 C 
ENDBRANCH  37  44
ENDBRANCH  31  37
ENDBRANCH  27  36
ENDBRANCH  26  29
ENDBRANCH  25  26
ENDBRANCH   1  25
TORSDOF 12
ENDMDL
MODEL 17
REMARK VINA RESULT:    -6.341      2.374      5.139
REMARK INTER + INTRA:         -15.529
REMARK INTER:                  -9.910
REMARK INTRA:                  -5.619
REMARK UNBOUND:                -4.740
REMARK  Name = cpd181.pdb
REMARK  14 active torsions:
REMARK  status: ('A' for Active; 'I' for Inactive)
REMARK    1  A    between atoms: C_1  and  C_2
REMARK    2  A    between atoms: C_6  and  N_7
REMARK    3  A    between atoms: N_7  and  C_8
REMARK    4  A    between atoms: C_13  and  C_14
REMARK    5  A    between atoms: N_16  and  C_17
REMARK    6  A    between atoms: C_17  and  C_18
REMARK    7  A    between atoms: C_18  and  C_19
REMARK    8  A    between atoms: C_19  and  C_20
REMARK    9  A    between atoms: N_22  and  C_23
REMARK   10  A    between atoms: C_23  and  C_24
REMARK   11  A    between atoms: C_24  and  C_25
REMARK   12  A    between atoms: C_25  and  N_26
REMARK   13  A    between atoms: N_26  and  C_27
REMARK   14  A    between atoms: C_41  and  C_42
REMARK                            x       y       z     vdW  Elec       q    Type
REMARK                         _______ _______ _______ _____ _____    ______ ____
ROOT
ATOM      1  C   UNL A   1      39.526 -17.128 -36.321  0.00  0.00    +0.025 C 
ENDROOT
BRANCH   1   2
ATOM      2  C   UNL A   1      39.844 -17.212 -34.841  0.00  0.00    +0.213 C 
ATOM      3  O   UNL A   1      39.150 -16.710 -33.965  0.00  0.00    -0.276 OA
ATOM      4  N   UNL A   1      41.008 -17.904 -34.583  0.00  0.00    -0.315 N 
ATOM      5  H   UNL A   1      41.504 -18.304 -35.334  0.00  0.00    +0.000 HD
BRANCH   4   6
ATOM      6  C   UNL A   1      41.522 -18.060 -33.237  0.00  0.00    +0.013 C 
BRANCH   6   7
ATOM      7  C   UNL A   1      41.705 -19.530 -32.879  0.00  0.00    -0.022 C 
BRANCH   7   8
ATOM      8  C   UNL A   1      41.549 -20.415 -34.113  0.00  0.00    +0.011 C 
BRANCH   8   9
ATOM      9  N   UNL A   1      42.853 -21.007 -34.446  0.00  0.00    -0.343 N 
ATOM     10  H   UNL A   1      43.277 -21.735 -33.937  0.00  0.00    +0.000 HD
BRANCH   9  11
ATOM     11  C   UNL A   1      43.430 -20.395 -35.602  0.00  0.00    +0.041 A 
ATOM     12  C   UNL A   1      44.503 -19.488 -35.476  0.00  0.00    -0.005 A 
ATOM     13  C   UNL A   1      45.115 -19.047 -36.653  0.00  0.00    +0.047 A 
ATOM     14  N   UNL A   1      44.709 -19.422 -37.890  0.00  0.00    -0.251 NA
ATOM     15  C   UNL A   1      43.676 -20.266 -38.007  0.00  0.00    +0.073 A 
ATOM     16  C   UNL A   1      43.273 -20.637 -39.284  0.00  0.00    -0.036 A 
ATOM     17  C   UNL A   1      42.201 -21.507 -39.498  0.00  0.00    -0.060 A 
ATOM     18  C   UNL A   1      41.507 -22.018 -38.412  0.00  0.00    -0.061 A 
ATOM     19  C   UNL A   1      41.895 -21.659 -37.123  0.00  0.00    -0.051 A 
ATOM     20  C   UNL A   1      42.990 -20.789 -36.896  0.00  0.00    +0.021 A 
ATOM     21  C   UNL A   1      46.261 -18.068 -36.636  0.00  0.00    -0.010 C 
ATOM     22  C   UNL A   1      46.988 -18.016 -35.299  0.00  0.00    -0.047 C 
ATOM     23  C   UNL A   1      45.978 -17.858 -34.175  0.00  0.00    -0.049 C 
ATOM     24  C   UNL A   1      45.033 -19.058 -34.128  0.00  0.00    -0.024 C 
ENDBRANCH   9  11
ENDBRANCH   8   9
ENDBRANCH   7   8
ENDBRANCH   6   7
ENDBRANCH   4   6
ENDBRANCH   1   2
BRANCH   1  25
ATOM     25  C   UNL A   1      40.189 -18.249 -37.118  0.00  0.00    -0.029 C 
BRANCH  25  26
ATOM     26  C   UNL A   1      41.029 -17.688 -38.261  0.00  0.00    +0.012 C 
BRANCH  26  29
ATOM     27  C   UNL A   1      42.703 -15.872 -38.345  0.00  0.00    +0.246 C 
ATOM     28  O   UNL A   1      42.125 -15.262 -39.237  0.00  0.00    -0.270 OA
ATOM     29  N   UNL A   1      42.224 -17.034 -37.775  0.00  0.00    -0.311 N 
ATOM     30  H   UNL A   1      42.710 -17.429 -37.016  0.00  0.00    +0.000 HD
BRANCH  27  36
ATOM     31  C   UNL A   1      45.173 -15.326 -38.645  0.00  0.00    +0.044 A 
ATOM     32  C   UNL A   1      46.327 -14.749 -38.086  0.00  0.00    -0.040 A 
ATOM     33  C   UNL A   1      46.368 -14.360 -36.743  0.00  0.00    -0.060 A 
ATOM     34  C   UNL A   1      45.245 -14.516 -35.936  0.00  0.00    -0.061 A 
ATOM     35  C   UNL A   1      44.070 -15.032 -36.480  0.00  0.00    -0.048 A 
ATOM     36  C   UNL A   1      44.020 -15.403 -37.832  0.00  0.00    +0.058 A 
BRANCH  31  37
ATOM     37  N   UNL A   1      45.145 -15.692 -40.021  0.00  0.00    -0.314 N 
ATOM     38  H   UNL A   1      44.817 -15.006 -40.648  0.00  0.00    +0.000 HD
BRANCH  37  44
ATOM     39  C   UNL A   1      44.084 -19.646 -42.895  0.00  0.00    -0.039 C 
ATOM     40  C   UNL A   1      44.979 -18.896 -41.944  0.00  0.00    -0.046 A 
ATOM     41  C   UNL A   1      46.162 -19.511 -41.509  0.00  0.00    -0.058 A 
ATOM     42  C   UNL A   1      47.008 -18.869 -40.610  0.00  0.00    -0.060 A 
ATOM     43  C   UNL A   1      46.685 -17.600 -40.140  0.00  0.00    -0.040 A 
ATOM     44  C   UNL A   1      45.536 -16.935 -40.593  0.00  0.00    +0.035 A 
ATOM     45  C   UNL A   1      44.666 -17.590 -41.496  0.00  0.00    -0.026 A 
ATOM     46  C   UNL A   1      43.389 -16.915 -41.933  0.00  0.00    -0.038 C 
ENDBRANCH  37  44
ENDBRANCH  31  37
ENDBRANCH  27  36
ENDBRANCH  26  29
ENDBRANCH  25  26
ENDBRANCH   1  25
TORSDOF 12
ENDMDL
MODEL 18
REMARK VINA RESULT:    -6.248      2.206      5.170
REMARK INTER + INTRA:         -15.371
REMARK INTER:                 -11.271
REMARK INTRA:                  -4.100
REMARK UNBOUND:                -4.740
REMARK  Name = cpd181.pdb
REMARK  14 active torsions:
REMARK  status: ('A' for Active; 'I' for Inactive)
REMARK    1  A    between atoms: C_1  and  C_2
REMARK    2  A    between atoms: C_6  and  N_7
REMARK    3  A    between atoms: N_7  and  C_8
REMARK    4  A    between atoms: C_13  and  C_14
REMARK    5  A    between atoms: N_16  and  C_17
REMARK    6  A    between atoms: C_17  and  C_18
REMARK    7  A    between atoms: C_18  and  C_19
REMARK    8  A    between atoms: C_19  and  C_20
REMARK    9  A    between atoms: N_22  and  C_23
REMARK   10  A    between atoms: C_23  and  C_24
REMARK   11  A    between atoms: C_24  and  C_25
REMARK   12  A    between atoms: C_25  and  N_26
REMARK   13  A    between atoms: N_26  and  C_27
REMARK   14  A    between atoms: C_41  and  C_42
REMARK                            x       y       z     vdW  Elec       q    Type
REMARK                         _______ _______ _______ _____ _____    ______ ____
ROOT
ATOM      1  C   UNL A   1      41.596 -14.281 -38.458  0.00  0.00    +0.025 C 
ENDROOT
BRANCH   1   2
ATOM      2  C   UNL A   1      41.435 -14.357 -36.952  0.00  0.00    +0.213 C 
ATOM      3  O   UNL A   1      41.837 -13.498 -36.178  0.00  0.00    -0.276 OA
ATOM      4  N   UNL A   1      40.796 -15.509 -36.542  0.00  0.00    -0.315 N 
ATOM      5  H   UNL A   1      40.476 -16.147 -37.220  0.00  0.00    +0.000 HD
BRANCH   4   6
ATOM      6  C   UNL A   1      40.584 -15.806 -35.140  0.00  0.00    +0.013 C 
BRANCH   6   7
ATOM      7  C   UNL A   1      41.496 -16.931 -34.665  0.00  0.00    -0.022 C 
BRANCH   7   8
ATOM      8  C   UNL A   1      41.689 -17.975 -35.762  0.00  0.00    +0.011 C 
BRANCH   8   9
ATOM      9  N   UNL A   1      42.089 -19.249 -35.145  0.00  0.00    -0.343 N 
ATOM     10  H   UNL A   1      42.716 -19.325 -34.390  0.00  0.00    +0.000 HD
BRANCH   9  11
ATOM     11  C   UNL A   1      41.455 -20.362 -35.778  0.00  0.00    +0.041 A 
ATOM     12  C   UNL A   1      41.798 -20.733 -37.095  0.00  0.00    -0.005 A 
ATOM     13  C   UNL A   1      41.252 -21.919 -37.594  0.00  0.00    +0.047 A 
ATOM     14  N   UNL A   1      40.396 -22.700 -36.891  0.00  0.00    -0.251 NA
ATOM     15  C   UNL A   1      40.055 -22.333 -35.648  0.00  0.00    +0.073 A 
ATOM     16  C   UNL A   1      39.174 -23.146 -34.943  0.00  0.00    -0.036 A 
ATOM     17  C   UNL A   1      38.760 -22.836 -33.645  0.00  0.00    -0.060 A 
ATOM     18  C   UNL A   1      39.230 -21.684 -33.034  0.00  0.00    -0.061 A 
ATOM     19  C   UNL A   1      40.114 -20.857 -33.723  0.00  0.00    -0.051 A 
ATOM     20  C   UNL A   1      40.551 -21.170 -35.033  0.00  0.00    +0.021 A 
ATOM     21  C   UNL A   1      41.541 -22.403 -38.992  0.00  0.00    -0.010 C 
ATOM     22  C   UNL A   1      42.811 -21.806 -39.585  0.00  0.00    -0.047 C 
ATOM     23  C   UNL A   1      42.797 -20.297 -39.406  0.00  0.00    -0.049 C 
ATOM     24  C   UNL A   1      42.776 -19.932 -37.923  0.00  0.00    -0.024 C 
ENDBRANCH   9  11
ENDBRANCH   8   9
ENDBRANCH   7   8
ENDBRANCH   6   7
ENDBRANCH   4   6
ENDBRANCH   1   2
BRANCH   1  25
ATOM     25  C   UNL A   1      42.489 -15.393 -39.000  0.00  0.00    -0.029 C 
BRANCH  25  26
ATOM     26  C   UNL A   1      43.923 -15.238 -38.501  0.00  0.00    +0.012 C 
BRANCH  26  29
ATOM     27  C   UNL A   1      45.655 -16.843 -37.775  0.00  0.00    +0.246 C 
ATOM     28  O   UNL A   1      46.559 -16.274 -38.374  0.00  0.00    -0.270 OA
ATOM     29  N   UNL A   1      44.352 -16.390 -37.740  0.00  0.00    -0.311 N 
ATOM     30  H   UNL A   1      43.696 -16.864 -37.181  0.00  0.00    +0.000 HD
BRANCH  27  36
ATOM     31  C   UNL A   1      46.538 -19.231 -37.666  0.00  0.00    +0.044 A 
ATOM     32  C   UNL A   1      46.837 -20.338 -36.855  0.00  0.00    -0.040 A 
ATOM     33  C   UNL A   1      46.431 -20.391 -35.517  0.00  0.00    -0.060 A 
ATOM     34  C   UNL A   1      45.741 -19.322 -34.954  0.00  0.00    -0.061 A 
ATOM     35  C   UNL A   1      45.482 -18.187 -35.720  0.00  0.00    -0.048 A 
ATOM     36  C   UNL A   1      45.907 -18.123 -37.057  0.00  0.00    +0.058 A 
BRANCH  31  37
ATOM     37  N   UNL A   1      46.983 -19.187 -39.019  0.00  0.00    -0.314 N 
ATOM     38  H   UNL A   1      47.647 -18.493 -39.238  0.00  0.00    +0.000 HD
BRANCH  37  44
ATOM     39  C   UNL A   1      44.276 -19.908 -43.163  0.00  0.00    -0.039 C 
ATOM     40  C   UNL A   1      45.195 -20.395 -42.075  0.00  0.00    -0.046 A 
ATOM     41  C   UNL A   1      45.541 -21.754 -42.047  0.00  0.00    -0.058 A 
ATOM     42  C   UNL A   1      46.366 -22.258 -41.045  0.00  0.00    -0.060 A 
ATOM     43  C   UNL A   1      46.861 -21.407 -40.063  0.00  0.00    -0.040 A 
ATOM     44  C   UNL A   1      46.577 -20.033 -40.090  0.00  0.00    +0.035 A 
ATOM     45  C   UNL A   1      45.727 -19.520 -41.098  0.00  0.00    -0.026 A 
ATOM     46  C   UNL A   1      45.353 -18.057 -41.094  0.00  0.00    -0.038 C 
ENDBRANCH  37  44
ENDBRANCH  31  37
ENDBRANCH  27  36
ENDBRANCH  26  29
ENDBRANCH  25  26
ENDBRANCH   1  25
TORSDOF 12
ENDMDL
MODEL 19
REMARK VINA RESULT:    -6.211      2.352      6.032
REMARK INTER + INTRA:         -15.309
REMARK INTER:                 -10.157
REMARK INTRA:                  -5.152
REMARK UNBOUND:                -4.740
REMARK  Name = cpd181.pdb
REMARK  14 active torsions:
REMARK  status: ('A' for Active; 'I' for Inactive)
REMARK    1  A    between atoms: C_1  and  C_2
REMARK    2  A    between atoms: C_6  and  N_7
REMARK    3  A    between atoms: N_7  and  C_8
REMARK    4  A    between atoms: C_13  and  C_14
REMARK    5  A    between atoms: N_16  and  C_17
REMARK    6  A    between atoms: C_17  and  C_18
REMARK    7  A    between atoms: C_18  and  C_19
REMARK    8  A    between atoms: C_19  and  C_20
REMARK    9  A    between atoms: N_22  and  C_23
REMARK   10  A    between atoms: C_23  and  C_24
REMARK   11  A    between atoms: C_24  and  C_25
REMARK   12  A    between atoms: C_25  and  N_26
REMARK   13  A    between atoms: N_26  and  C_27
REMARK   14  A    between atoms: C_41  and  C_42
REMARK                            x       y       z     vdW  Elec       q    Type
REMARK                         _______ _______ _______ _____ _____    ______ ____
ROOT
ATOM      1  C   UNL A   1      45.233 -17.013 -33.711  0.00  0.00    +0.025 C 
ENDROOT
BRANCH   1   2
ATOM      2  C   UNL A   1      45.705 -18.360 -34.225  0.00  0.00    +0.213 C 
ATOM      3  O   UNL A   1      45.288 -19.433 -33.808  0.00  0.00    -0.276 OA
ATOM      4  N   UNL A   1      46.666 -18.248 -35.207  0.00  0.00    -0.315 N 
ATOM      5  H   UNL A   1      46.937 -17.352 -35.513  0.00  0.00    +0.000 HD
BRANCH   4   6
ATOM      6  C   UNL A   1      47.289 -19.413 -35.801  0.00  0.00    +0.013 C 
BRANCH   6   7
ATOM      7  C   UNL A   1      46.467 -19.949 -36.967  0.00  0.00    -0.022 C 
BRANCH   7   8
ATOM      8  C   UNL A   1      47.359 -20.256 -38.168  0.00  0.00    +0.011 C 
BRANCH   8   9
ATOM      9  N   UNL A   1      47.324 -19.115 -39.095  0.00  0.00    -0.343 N 
ATOM     10  H   UNL A   1      48.038 -18.441 -39.171  0.00  0.00    +0.000 HD
BRANCH   9  11
ATOM     11  C   UNL A   1      46.124 -19.105 -39.871  0.00  0.00    +0.041 A 
ATOM     12  C   UNL A   1      45.241 -18.006 -39.817  0.00  0.00    -0.005 A 
ATOM     13  C   UNL A   1      44.169 -17.996 -40.715  0.00  0.00    +0.047 A 
ATOM     14  N   UNL A   1      43.928 -18.993 -41.600  0.00  0.00    -0.251 NA
ATOM     15  C   UNL A   1      44.756 -20.046 -41.634  0.00  0.00    +0.073 A 
ATOM     16  C   UNL A   1      44.491 -21.060 -42.546  0.00  0.00    -0.036 A 
ATOM     17  C   UNL A   1      45.299 -22.196 -42.645  0.00  0.00    -0.060 A 
ATOM     18  C   UNL A   1      46.397 -22.330 -41.809  0.00  0.00    -0.061 A 
ATOM     19  C   UNL A   1      46.681 -21.324 -40.888  0.00  0.00    -0.051 A 
ATOM     20  C   UNL A   1      45.876 -20.161 -40.791  0.00  0.00    +0.021 A 
ATOM     21  C   UNL A   1      43.158 -16.879 -40.735  0.00  0.00    -0.010 C 
ATOM     22  C   UNL A   1      43.669 -15.592 -40.099  0.00  0.00    -0.047 C 
ATOM     23  C   UNL A   1      44.274 -15.902 -38.739  0.00  0.00    -0.049 C 
ATOM     24  C   UNL A   1      45.471 -16.840 -38.884  0.00  0.00    -0.024 C 
ENDBRANCH   9  11
ENDBRANCH   8   9
ENDBRANCH   7   8
ENDBRANCH   6   7
ENDBRANCH   4   6
ENDBRANCH   1   2
BRANCH   1  25
ATOM     25  C   UNL A   1      44.792 -16.086 -34.840  0.00  0.00    -0.029 C 
BRANCH  25  26
ATOM     26  C   UNL A   1      43.420 -15.484 -34.551  0.00  0.00    +0.012 C 
BRANCH  26  29
ATOM     27  C   UNL A   1      41.485 -15.787 -36.058  0.00  0.00    +0.246 C 
ATOM     28  O   UNL A   1      40.891 -16.531 -35.289  0.00  0.00    -0.270 OA
ATOM     29  N   UNL A   1      42.697 -15.192 -35.769  0.00  0.00    -0.311 N 
ATOM     30  H   UNL A   1      43.080 -14.551 -36.410  0.00  0.00    +0.000 HD
BRANCH  27  36
ATOM     31  C   UNL A   1      40.395 -16.501 -38.247  0.00  0.00    +0.044 A 
ATOM     32  C   UNL A   1      39.793 -16.092 -39.450  0.00  0.00    -0.040 A 
ATOM     33  C   UNL A   1      39.822 -14.755 -39.860  0.00  0.00    -0.060 A 
ATOM     34  C   UNL A   1      40.431 -13.793 -39.061  0.00  0.00    -0.061 A 
ATOM     35  C   UNL A   1      40.984 -14.161 -37.836  0.00  0.00    -0.048 A 
ATOM     36  C   UNL A   1      40.938 -15.498 -37.413  0.00  0.00    +0.058 A 
BRANCH  31  37
ATOM     37  N   UNL A   1      40.333 -17.863 -37.837  0.00  0.00    -0.314 N 
ATOM     38  H   UNL A   1      39.576 -18.110 -37.257  0.00  0.00    +0.000 HD
BRANCH  37  44
ATOM     39  C   UNL A   1      41.260 -22.210 -40.133  0.00  0.00    -0.039 C 
ATOM     40  C   UNL A   1      41.661 -21.068 -39.237  0.00  0.00    -0.046 A 
ATOM     41  C   UNL A   1      42.913 -21.117 -38.607  0.00  0.00    -0.058 A 
ATOM     42  C   UNL A   1      43.317 -20.100 -37.748  0.00  0.00    -0.060 A 
ATOM     43  C   UNL A   1      42.477 -19.015 -37.515  0.00  0.00    -0.040 A 
ATOM     44  C   UNL A   1      41.240 -18.909 -38.168  0.00  0.00    +0.035 A 
ATOM     45  C   UNL A   1      40.819 -19.949 -39.030  0.00  0.00    -0.026 A 
ATOM     46  C   UNL A   1      39.459 -19.882 -39.681  0.00  0.00    -0.038 C 
ENDBRANCH  37  44
ENDBRANCH  31  37
ENDBRANCH  27  36
ENDBRANCH  26  29
ENDBRANCH  25  26
ENDBRANCH   1  25
TORSDOF 12
ENDMDL
MODEL 20
REMARK VINA RESULT:    -6.132      2.387      6.291
REMARK INTER + INTRA:         -15.174
REMARK INTER:                  -9.021
REMARK INTRA:                  -6.152
REMARK UNBOUND:                -4.740
REMARK  Name = cpd181.pdb
REMARK  14 active torsions:
REMARK  status: ('A' for Active; 'I' for Inactive)
REMARK    1  A    between atoms: C_1  and  C_2
REMARK    2  A    between atoms: C_6  and  N_7
REMARK    3  A    between atoms: N_7  and  C_8
REMARK    4  A    between atoms: C_13  and  C_14
REMARK    5  A    between atoms: N_16  and  C_17
REMARK    6  A    between atoms: C_17  and  C_18
REMARK    7  A    between atoms: C_18  and  C_19
REMARK    8  A    between atoms: C_19  and  C_20
REMARK    9  A    between atoms: N_22  and  C_23
REMARK   10  A    between atoms: C_23  and  C_24
REMARK   11  A    between atoms: C_24  and  C_25
REMARK   12  A    between atoms: C_25  and  N_26
REMARK   13  A    between atoms: N_26  and  C_27
REMARK   14  A    between atoms: C_41  and  C_42
REMARK                            x       y       z     vdW  Elec       q    Type
REMARK                         _______ _______ _______ _____ _____    ______ ____
ROOT
ATOM      1  C   UNL A   1      40.465 -14.104 -34.911  0.00  0.00    +0.025 C 
ENDROOT
BRANCH   1   2
ATOM      2  C   UNL A   1      40.971 -14.841 -36.136  0.00  0.00    +0.213 C 
ATOM      3  O   UNL A   1      41.035 -16.061 -36.220  0.00  0.00    -0.276 OA
ATOM      4  N   UNL A   1      41.364 -13.989 -37.146  0.00  0.00    -0.315 N 
ATOM      5  H   UNL A   1      41.261 -13.018 -37.021  0.00  0.00    +0.000 HD
BRANCH   4   6
ATOM      6  C   UNL A   1      41.925 -14.484 -38.387  0.00  0.00    +0.013 C 
BRANCH   6   7
ATOM      7  C   UNL A   1      40.840 -15.017 -39.314  0.00  0.00    -0.022 C 
BRANCH   7   8
ATOM      8  C   UNL A   1      41.145 -16.451 -39.742  0.00  0.00    +0.011 C 
BRANCH   8   9
ATOM      9  N   UNL A   1      41.924 -17.111 -38.684  0.00  0.00    -0.343 N 
ATOM     10  H   UNL A   1      41.952 -16.809 -37.747  0.00  0.00    +0.000 HD
BRANCH   9  11
ATOM     11  C   UNL A   1      42.633 -18.247 -39.183  0.00  0.00    +0.041 A 
ATOM     12  C   UNL A   1      43.944 -18.113 -39.685  0.00  0.00    -0.005 A 
ATOM     13  C   UNL A   1      44.632 -19.285 -40.013  0.00  0.00    +0.047 A 
ATOM     14  N   UNL A   1      44.092 -20.522 -39.902  0.00  0.00    -0.251 NA
ATOM     15  C   UNL A   1      42.838 -20.645 -39.445  0.00  0.00    +0.073 A 
ATOM     16  C   UNL A   1      42.300 -21.923 -39.340  0.00  0.00    -0.036 A 
ATOM     17  C   UNL A   1      41.000 -22.142 -38.880  0.00  0.00    -0.060 A 
ATOM     18  C   UNL A   1      40.210 -21.061 -38.520  0.00  0.00    -0.061 A 
ATOM     19  C   UNL A   1      40.730 -19.772 -38.617  0.00  0.00    -0.051 A 
ATOM     20  C   UNL A   1      42.053 -19.541 -39.069  0.00  0.00    +0.021 A 
ATOM     21  C   UNL A   1      46.032 -19.257 -40.570  0.00  0.00    -0.010 C 
ATOM     22  C   UNL A   1      46.776 -17.963 -40.266  0.00  0.00    -0.047 C 
ATOM     23  C   UNL A   1      45.903 -16.775 -40.634  0.00  0.00    -0.049 C 
ATOM     24  C   UNL A   1      44.624 -16.768 -39.799  0.00  0.00    -0.024 C 
ENDBRANCH   9  11
ENDBRANCH   8   9
ENDBRANCH   7   8
ENDBRANCH   6   7
ENDBRANCH   4   6
ENDBRANCH   1   2
BRANCH   1  25
ATOM     25  C   UNL A   1      41.394 -14.274 -33.711  0.00  0.00    -0.029 C 
BRANCH  25  26
ATOM     26  C   UNL A   1      40.717 -15.075 -32.602  0.00  0.00    +0.012 C 
BRANCH  26  29
ATOM     27  C   UNL A   1      41.634 -17.337 -32.986  0.00  0.00    +0.246 C 
ATOM     28  O   UNL A   1      42.766 -17.035 -32.628  0.00  0.00    -0.270 OA
ATOM     29  N   UNL A   1      40.563 -16.466 -32.965  0.00  0.00    -0.311 N 
ATOM     30  H   UNL A   1      39.669 -16.802 -33.202  0.00  0.00    +0.000 HD
BRANCH  27  36
ATOM     31  C   UNL A   1      41.867 -19.164 -34.746  0.00  0.00    +0.044 A 
ATOM     32  C   UNL A   1      41.629 -20.506 -35.087  0.00  0.00    -0.040 A 
ATOM     33  C   UNL A   1      40.813 -21.323 -34.297  0.00  0.00    -0.060 A 
ATOM     34  C   UNL A   1      40.241 -20.822 -33.133  0.00  0.00    -0.061 A 
ATOM     35  C   UNL A   1      40.508 -19.511 -32.741  0.00  0.00    -0.048 A 
ATOM     36  C   UNL A   1      41.343 -18.696 -33.521  0.00  0.00    +0.058 A 
BRANCH  31  37
ATOM     37  N   UNL A   1      42.721 -18.357 -35.552  0.00  0.00    -0.314 N 
ATOM     38  H   UNL A   1      42.322 -17.537 -35.924  0.00  0.00    +0.000 HD
BRANCH  37  44
ATOM     39  C   UNL A   1      47.253 -16.609 -36.747  0.00  0.00    -0.039 C 
ATOM     40  C   UNL A   1      46.278 -17.735 -36.531  0.00  0.00    -0.046 A 
ATOM     41  C   UNL A   1      46.697 -19.047 -36.799  0.00  0.00    -0.058 A 
ATOM     42  C   UNL A   1      45.823 -20.119 -36.641  0.00  0.00    -0.060 A 
ATOM     43  C   UNL A   1      44.521 -19.893 -36.205  0.00  0.00    -0.040 A 
ATOM     44  C   UNL A   1      44.085 -18.600 -35.879  0.00  0.00    +0.035 A 
ATOM     45  C   UNL A   1      44.965 -17.506 -36.053  0.00  0.00    -0.026 A 
ATOM     46  C   UNL A   1      44.483 -16.102 -35.778  0.00  0.00    -0.038 C 
ENDBRANCH  37  44
ENDBRANCH  31  37
ENDBRANCH  27  36
ENDBRANCH  26  29
ENDBRANCH  25  26
ENDBRANCH   1  25
TORSDOF 12
ENDMDL
