REMARK  Name = cpd155.pdb
REMARK  13 active torsions:
REMARK  status: ('A' for Active; 'I' for Inactive)
REMARK    1  A    between atoms: C_2  and  C_3
REMARK    2  A    between atoms: C_3  and  S_4
REMARK    3  A    between atoms: S_4  and  C_5
REMARK    4  A    between atoms: C_5  and  C_6
REMARK    5  A    between atoms: C_6  and  N_7
REMARK    6  A    between atoms: C_6  and  C_31
REMARK    7  A    between atoms: C_8  and  C_10
REMARK    8  A    between atoms: C_10  and  C_11
REMARK    9  A    between atoms: C_11  and  C_12
REMARK   10  A    between atoms: C_12  and  C_13
REMARK   11  A    between atoms: C_13  and  C_14
REMARK   12  A    between atoms: C_14  and  N_15
REMARK   13  A    between atoms: N_15  and  C_16
REMARK                            x       y       z     vdW  Elec       q    Type
REMARK                         _______ _______ _______ _____ _____    ______ ____
ROOT
ATOM      1  N   UNL A   1      -3.026  -2.313   0.572  0.00  0.00    -0.303 N 
ATOM      2  C   UNL A   1      -3.733  -1.679  -0.429  0.00  0.00    +0.214 C 
ATOM      3  O   UNL A   1      -3.294  -1.504  -1.561  0.00  0.00    -0.276 OA
ATOM      4  H   UNL A   1      -3.459  -2.471   1.442  0.00  0.00    +0.000 HD
ENDROOT
BRANCH   1   5
ATOM      5  C   UNL A   1      -1.643  -2.757   0.367  0.00  0.00    +0.109 C 
BRANCH   5   6
ATOM      6  C   UNL A   1      -0.713  -1.512   0.449  0.00  0.00    +0.240 C 
ATOM      7  O   UNL A   1      -1.130  -0.469   0.953  0.00  0.00    -0.273 OA
ATOM      8  N   UNL A   1       0.594  -1.750   0.084  0.00  0.00    -0.263 N 
ATOM      9  C   UNL A   1       1.627  -0.844   0.077  0.00  0.00    +0.165 A 
ATOM     10  N   UNL A   1       2.850  -1.243  -0.173  0.00  0.00    -0.225 NA
ATOM     11  C   UNL A   1       3.710  -0.156  -0.127  0.00  0.00    +0.080 A 
ATOM     12  C   UNL A   1       5.105  -0.194  -0.327  0.00  0.00    -0.035 A 
ATOM     13  C   UNL A   1       5.850   0.988  -0.252  0.00  0.00    -0.060 A 
ATOM     14  C   UNL A   1       5.223   2.202   0.015  0.00  0.00    -0.061 A 
ATOM     15  C   UNL A   1       3.841   2.266   0.217  0.00  0.00    -0.046 A 
ATOM     16  C   UNL A   1       3.104   1.072   0.143  0.00  0.00    +0.041 A 
ATOM     17  S   UNL A   1       1.415   0.821   0.345  0.00  0.00    -0.052 S 
ATOM     18  H   UNL A   1       0.811  -2.667  -0.202  0.00  0.00    +0.000 HD
ENDBRANCH   5   6
BRANCH   5  19
ATOM     19  C   UNL A   1      -1.425  -3.652  -0.870  0.00  0.00    +0.022 C 
BRANCH  19  20
ATOM     20  S   UNL A   1      -2.642  -5.008  -1.131  0.00  0.00    -0.146 S 
BRANCH  20  21
ATOM     21  C   UNL A   1      -2.584  -5.825   0.491  0.00  0.00    +0.055 C 
BRANCH  21  23
ATOM     22  C   UNL A   1      -4.086  -8.031   0.507  0.00  0.00    -0.118 C 
ATOM     23  C   UNL A   1      -3.407  -7.041   0.498  0.00  0.00    -0.095 C 
ENDBRANCH  21  23
ENDBRANCH  20  21
ENDBRANCH  19  20
ENDBRANCH   5  19
ENDBRANCH   1   5
BRANCH   2  24
ATOM     24  C   UNL A   1      -5.097  -1.172  -0.002  0.00  0.00    +0.024 C 
BRANCH  24  25
ATOM     25  C   UNL A   1      -5.966  -2.283   0.588  0.00  0.00    -0.045 C 
BRANCH  25  26
ATOM     26  C   UNL A   1      -7.364  -1.810   0.992  0.00  0.00    -0.051 C 
BRANCH  26  27
ATOM     27  C   UNL A   1      -8.264  -1.499  -0.205  0.00  0.00    -0.037 C 
BRANCH  27  28
ATOM     28  C   UNL A   1      -9.681  -1.144   0.249  0.00  0.00    +0.009 C 
BRANCH  28  29
ATOM     29  N   UNL A   1     -10.510  -0.884  -0.936  0.00  0.00    -0.343 N 
ATOM     30  H   UNL A   1     -10.207  -1.020  -1.863  0.00  0.00    +0.000 HD
BRANCH  29  31
ATOM     31  C   UNL A   1     -11.806  -0.411  -0.579  0.00  0.00    +0.041 A 
ATOM     32  C   UNL A   1     -12.010   0.981  -0.486  0.00  0.00    -0.005 A 
ATOM     33  C   UNL A   1     -13.275   1.427  -0.105  0.00  0.00    +0.047 A 
ATOM     34  N   UNL A   1     -14.286   0.590   0.225  0.00  0.00    -0.251 NA
ATOM     35  C   UNL A   1     -14.088  -0.732   0.157  0.00  0.00    +0.074 A 
ATOM     36  C   UNL A   1     -15.148  -1.557   0.499  0.00  0.00    -0.017 A 
ATOM     37  C   UNL A   1     -15.030  -2.943   0.460  0.00  0.00    +0.043 A 
ATOM     38 CL   UNL A   1     -16.369  -3.932   0.895  0.00  0.00    -0.083 Cl
ATOM     39  C   UNL A   1     -13.836  -3.532   0.074  0.00  0.00    -0.043 A 
ATOM     40  C   UNL A   1     -12.758  -2.719  -0.274  0.00  0.00    -0.049 A 
ATOM     41  C   UNL A   1     -12.861  -1.305  -0.239  0.00  0.00    +0.022 A 
ATOM     42  C   UNL A   1     -13.591   2.896   0.021  0.00  0.00    -0.010 C 
ATOM     43  C   UNL A   1     -12.639   3.786  -0.769  0.00  0.00    -0.047 C 
ATOM     44  C   UNL A   1     -11.200   3.397  -0.469  0.00  0.00    -0.049 C 
ATOM     45  C   UNL A   1     -10.933   1.956  -0.903  0.00  0.00    -0.024 C 
ENDBRANCH  29  31
ENDBRANCH  28  29
ENDBRANCH  27  28
ENDBRANCH  26  27
ENDBRANCH  25  26
ENDBRANCH  24  25
ENDBRANCH   2  24
TORSDOF 13
