MODEL 1
REMARK VINA RESULT:    -8.375      0.000      0.000
REMARK INTER + INTRA:         -11.252
REMARK INTER:                 -10.823
REMARK INTRA:                  -0.429
REMARK UNBOUND:                -0.429
REMARK  Name = cpd187.pdb
REMARK  14 active torsions:
REMARK  status: ('A' for Active; 'I' for Inactive)
REMARK    1  A    between atoms: C_1  and  C_2
REMARK    2  A    between atoms: C_2  and  C_32
REMARK    3  A    between atoms: C_3  and  C_4
REMARK    4  A    between atoms: N_6  and  C_7
REMARK    5  A    between atoms: N_6  and  C_8
REMARK    6  A    between atoms: C_11  and  C_12
REMARK    7  A    between atoms: C_20  and  C_21
REMARK    8  A    between atoms: C_22  and  C_23
REMARK    9  A    between atoms: C_23  and  C_24
REMARK   10  A    between atoms: C_23  and  N_25
REMARK   11  A    between atoms: N_25  and  C_26
REMARK   12  A    between atoms: N_25  and  C_27
REMARK   13  A    between atoms: C_32  and  C_33
REMARK   14  A    between atoms: C_32  and  C_34
REMARK                            x       y       z     vdW  Elec       q    Type
REMARK                         _______ _______ _______ _____ _____    ______ ____
ROOT
ATOM      1  C   UNL     1      36.569 -36.343 -30.664  0.00  0.00    +0.026 C 
ATOM      2  C   UNL     1      35.264 -37.136 -30.896  0.00  0.00    -0.034 C 
ATOM      3  C   UNL     1      34.186 -36.331 -31.628  0.00  0.00    -0.045 C 
ATOM      4  C   UNL     1      33.861 -34.973 -30.940  0.00  0.00    -0.026 C 
ATOM      5  C   UNL     1      33.292 -35.261 -29.535  0.00  0.00    -0.059 C 
ATOM      6  C   UNL     1      35.211 -34.196 -30.845  0.00  0.00    -0.034 C 
ATOM      7  C   UNL     1      35.008 -32.779 -30.309  0.00  0.00    -0.049 C 
ATOM      8  C   UNL     1      34.115 -31.985 -31.256  0.00  0.00    -0.049 C 
ATOM      9  C   UNL     1      32.742 -32.641 -31.527  0.00  0.00    -0.034 C 
ATOM     10  C   UNL     1      32.865 -34.144 -31.845  0.00  0.00    -0.032 C 
ATOM     11  C   UNL     1      31.452 -34.703 -32.075  0.00  0.00    -0.049 C 
ATOM     12  C   UNL     1      30.483 -34.513 -30.918  0.00  0.00    -0.047 C 
ATOM     13  C   UNL     1      30.381 -33.094 -30.320  0.00  0.00    -0.025 C 
ATOM     14  C   UNL     1      30.059 -33.285 -28.807  0.00  0.00    -0.059 C 
ATOM     15  C   UNL     1      29.231 -32.159 -30.880  0.00  0.00    -0.020 C 
ATOM     16  C   UNL     1      29.964 -31.084 -31.672  0.00  0.00    -0.048 C 
ATOM     17  C   UNL     1      31.175 -30.820 -30.786  0.00  0.00    -0.049 C 
ATOM     18  C   UNL     1      31.697 -32.237 -30.448  0.00  0.00    -0.032 C 
ATOM     19  C   UNL     1      36.299 -34.954 -30.057  0.00  0.00    -0.031 C 
ENDROOT
BRANCH   1  22
ATOM     20  C   UNL     1      38.948 -37.172 -30.149  0.00  0.00    +0.239 C 
ATOM     21  O   UNL     1      39.690 -37.955 -29.559  0.00  0.00    -0.271 OA
ATOM     22  N   UNL     1      37.582 -37.095 -29.876  0.00  0.00    -0.298 N 
ATOM     23  C   UNL     1      37.133 -37.784 -28.670  0.00  0.00    +0.004 C 
BRANCH  20  26
ATOM     24  C   UNL     1      41.211 -35.229 -32.646  0.00  0.00    -0.043 C 
ATOM     25  C   UNL     1      40.813 -36.174 -31.538  0.00  0.00    -0.065 C 
ATOM     26  C   UNL     1      39.510 -36.253 -31.183  0.00  0.00    -0.000 C 
BRANCH  25  27
ATOM     27  C   UNL     1      41.941 -36.991 -30.904  0.00  0.00    -0.025 C 
ATOM     28  C   UNL     1      43.211 -36.176 -30.633  0.00  0.00    -0.059 C 
ATOM     29  C   UNL     1      42.273 -38.213 -31.767  0.00  0.00    -0.059 C 
ENDBRANCH  25  27
ENDBRANCH  20  26
ENDBRANCH   1  22
BRANCH  15  30
ATOM     30  C   UNL     1      27.940 -32.774 -31.501  0.00  0.00    +0.010 C 
ATOM     31  C   UNL     1      26.688 -32.185 -30.818  0.00  0.00    -0.049 C 
BRANCH  30  32
ATOM     32  N   UNL     1      27.879 -32.754 -32.981  0.00  0.00    -0.305 N 
ATOM     33  C   UNL     1      26.779 -31.975 -33.550  0.00  0.00    -0.013 C 
ATOM     34  C   UNL     1      27.813 -34.120 -33.520  0.00  0.00    -0.013 C 
ATOM     35  H   UNL     1      28.741 -32.285 -33.258  0.00  0.00    +0.000 HD
ENDBRANCH  30  32
ENDBRANCH  15  30
TORSDOF 5
ENDMDL
MODEL 2
REMARK VINA RESULT:    -7.951      3.554      9.532
REMARK INTER + INTRA:         -10.705
REMARK INTER:                  -9.413
REMARK INTRA:                  -1.292
REMARK UNBOUND:                -0.429
REMARK  Name = cpd187.pdb
REMARK  14 active torsions:
REMARK  status: ('A' for Active; 'I' for Inactive)
REMARK    1  A    between atoms: C_1  and  C_2
REMARK    2  A    between atoms: C_2  and  C_32
REMARK    3  A    between atoms: C_3  and  C_4
REMARK    4  A    between atoms: N_6  and  C_7
REMARK    5  A    between atoms: N_6  and  C_8
REMARK    6  A    between atoms: C_11  and  C_12
REMARK    7  A    between atoms: C_20  and  C_21
REMARK    8  A    between atoms: C_22  and  C_23
REMARK    9  A    between atoms: C_23  and  C_24
REMARK   10  A    between atoms: C_23  and  N_25
REMARK   11  A    between atoms: N_25  and  C_26
REMARK   12  A    between atoms: N_25  and  C_27
REMARK   13  A    between atoms: C_32  and  C_33
REMARK   14  A    between atoms: C_32  and  C_34
REMARK                            x       y       z     vdW  Elec       q    Type
REMARK                         _______ _______ _______ _____ _____    ______ ____
ROOT
ATOM      1  C   UNL     1      30.729 -30.890 -29.352  0.00  0.00    +0.026 C 
ATOM      2  C   UNL     1      30.275 -32.285 -28.873  0.00  0.00    -0.034 C 
ATOM      3  C   UNL     1      31.440 -33.223 -28.541  0.00  0.00    -0.045 C 
ATOM      4  C   UNL     1      32.457 -33.374 -29.709  0.00  0.00    -0.026 C 
ATOM      5  C   UNL     1      31.731 -34.012 -30.911  0.00  0.00    -0.059 C 
ATOM      6  C   UNL     1      32.944 -31.932 -30.056  0.00  0.00    -0.034 C 
ATOM      7  C   UNL     1      34.058 -31.950 -31.103  0.00  0.00    -0.049 C 
ATOM      8  C   UNL     1      35.270 -32.701 -30.563  0.00  0.00    -0.049 C 
ATOM      9  C   UNL     1      34.965 -34.144 -30.102  0.00  0.00    -0.034 C 
ATOM     10  C   UNL     1      33.700 -34.223 -29.225  0.00  0.00    -0.032 C 
ATOM     11  C   UNL     1      33.473 -35.694 -28.841  0.00  0.00    -0.049 C 
ATOM     12  C   UNL     1      33.332 -36.655 -30.011  0.00  0.00    -0.047 C 
ATOM     13  C   UNL     1      34.410 -36.574 -31.113  0.00  0.00    -0.025 C 
ATOM     14  C   UNL     1      33.696 -36.957 -32.444  0.00  0.00    -0.059 C 
ATOM     15  C   UNL     1      35.637 -37.570 -30.993  0.00  0.00    -0.020 C 
ATOM     16  C   UNL     1      36.822 -36.676 -30.655  0.00  0.00    -0.048 C 
ATOM     17  C   UNL     1      36.554 -35.462 -31.537  0.00  0.00    -0.049 C 
ATOM     18  C   UNL     1      35.060 -35.150 -31.285  0.00  0.00    -0.032 C 
ATOM     19  C   UNL     1      31.799 -30.980 -30.456  0.00  0.00    -0.031 C 
ENDROOT
BRANCH   1  22
ATOM     20  C   UNL     1      28.926 -30.044 -30.979  0.00  0.00    +0.239 C 
ATOM     21  O   UNL     1      28.126 -29.171 -31.309  0.00  0.00    -0.271 OA
ATOM     22  N   UNL     1      29.600 -30.011 -29.758  0.00  0.00    -0.298 N 
ATOM     23  C   UNL     1      29.101 -29.048 -28.780  0.00  0.00    +0.004 C 
BRANCH  20  26
ATOM     24  C   UNL     1      28.829 -33.387 -32.968  0.00  0.00    -0.043 C 
ATOM     25  C   UNL     1      28.467 -32.339 -31.942  0.00  0.00    -0.065 C 
ATOM     26  C   UNL     1      29.188 -31.195 -31.893  0.00  0.00    -0.000 C 
BRANCH  25  27
ATOM     27  C   UNL     1      27.278 -32.660 -31.033  0.00  0.00    -0.025 C 
ATOM     28  C   UNL     1      27.265 -34.109 -30.531  0.00  0.00    -0.059 C 
ATOM     29  C   UNL     1      25.957 -32.335 -31.737  0.00  0.00    -0.059 C 
ENDBRANCH  25  27
ENDBRANCH  20  26
ENDBRANCH   1  22
BRANCH  15  30
ATOM     30  C   UNL     1      35.493 -38.918 -30.222  0.00  0.00    +0.010 C 
ATOM     31  C   UNL     1      35.716 -40.106 -31.181  0.00  0.00    -0.049 C 
BRANCH  30  32
ATOM     32  N   UNL     1      36.267 -39.012 -28.964  0.00  0.00    -0.305 N 
ATOM     33  C   UNL     1      36.979 -40.275 -28.760  0.00  0.00    -0.013 C 
ATOM     34  C   UNL     1      35.404 -38.769 -27.799  0.00  0.00    -0.013 C 
ATOM     35  H   UNL     1      36.980 -38.289 -29.056  0.00  0.00    +0.000 HD
ENDBRANCH  30  32
ENDBRANCH  15  30
TORSDOF 5
ENDMDL
MODEL 3
REMARK VINA RESULT:    -7.933     16.638     20.402
REMARK INTER + INTRA:         -10.681
REMARK INTER:                  -9.482
REMARK INTRA:                  -1.199
REMARK UNBOUND:                -0.429
REMARK  Name = cpd187.pdb
REMARK  14 active torsions:
REMARK  status: ('A' for Active; 'I' for Inactive)
REMARK    1  A    between atoms: C_1  and  C_2
REMARK    2  A    between atoms: C_2  and  C_32
REMARK    3  A    between atoms: C_3  and  C_4
REMARK    4  A    between atoms: N_6  and  C_7
REMARK    5  A    between atoms: N_6  and  C_8
REMARK    6  A    between atoms: C_11  and  C_12
REMARK    7  A    between atoms: C_20  and  C_21
REMARK    8  A    between atoms: C_22  and  C_23
REMARK    9  A    between atoms: C_23  and  C_24
REMARK   10  A    between atoms: C_23  and  N_25
REMARK   11  A    between atoms: N_25  and  C_26
REMARK   12  A    between atoms: N_25  and  C_27
REMARK   13  A    between atoms: C_32  and  C_33
REMARK   14  A    between atoms: C_32  and  C_34
REMARK                            x       y       z     vdW  Elec       q    Type
REMARK                         _______ _______ _______ _____ _____    ______ ____
ROOT
ATOM      1  C   UNL     1      39.399 -18.229 -36.582  0.00  0.00    +0.026 C 
ATOM      2  C   UNL     1      39.988 -19.641 -36.371  0.00  0.00    -0.034 C 
ATOM      3  C   UNL     1      41.459 -19.754 -36.783  0.00  0.00    -0.045 C 
ATOM      4  C   UNL     1      41.724 -19.286 -38.244  0.00  0.00    -0.026 C 
ATOM      5  C   UNL     1      40.945 -20.210 -39.203  0.00  0.00    -0.059 C 
ATOM      6  C   UNL     1      41.199 -17.820 -38.337  0.00  0.00    -0.034 C 
ATOM      7  C   UNL     1      41.525 -17.189 -39.691  0.00  0.00    -0.049 C 
ATOM      8  C   UNL     1      43.036 -17.124 -39.887  0.00  0.00    -0.049 C 
ATOM      9  C   UNL     1      43.748 -18.489 -39.762  0.00  0.00    -0.034 C 
ATOM     10  C   UNL     1      43.280 -19.283 -38.527  0.00  0.00    -0.032 C 
ATOM     11  C   UNL     1      44.026 -20.627 -38.508  0.00  0.00    -0.049 C 
ATOM     12  C   UNL     1      43.850 -21.484 -39.751  0.00  0.00    -0.047 C 
ATOM     13  C   UNL     1      44.075 -20.793 -41.113  0.00  0.00    -0.025 C 
ATOM     14  C   UNL     1      43.118 -21.499 -42.119  0.00  0.00    -0.059 C 
ATOM     15  C   UNL     1      45.520 -20.916 -41.751  0.00  0.00    -0.020 C 
ATOM     16  C   UNL     1      46.099 -19.510 -41.659  0.00  0.00    -0.048 C 
ATOM     17  C   UNL     1      44.885 -18.654 -41.999  0.00  0.00    -0.049 C 
ATOM     18  C   UNL     1      43.759 -19.250 -41.120  0.00  0.00    -0.032 C 
ATOM     19  C   UNL     1      39.703 -17.682 -37.989  0.00  0.00    -0.031 C 
ENDROOT
BRANCH   1  22
ATOM     20  C   UNL     1      37.382 -18.151 -34.991  0.00  0.00    +0.239 C 
ATOM     21  O   UNL     1      36.169 -18.258 -34.815  0.00  0.00    -0.271 OA
ATOM     22  N   UNL     1      37.949 -18.143 -36.265  0.00  0.00    -0.298 N 
ATOM     23  C   UNL     1      37.016 -17.984 -37.377  0.00  0.00    +0.004 C 
BRANCH  20  26
ATOM     24  C   UNL     1      39.706 -18.716 -31.923  0.00  0.00    -0.043 C 
ATOM     25  C   UNL     1      38.741 -19.023 -33.043  0.00  0.00    -0.065 C 
ATOM     26  C   UNL     1      38.292 -18.008 -33.816  0.00  0.00    -0.000 C 
BRANCH  25  27
ATOM     27  C   UNL     1      38.354 -20.493 -33.221  0.00  0.00    -0.025 C 
ATOM     28  C   UNL     1      36.992 -20.847 -32.612  0.00  0.00    -0.059 C 
ATOM     29  C   UNL     1      39.440 -21.410 -32.650  0.00  0.00    -0.059 C 
ENDBRANCH  25  27
ENDBRANCH  20  26
ENDBRANCH   1  22
BRANCH  15  30
ATOM     30  C   UNL     1      46.449 -22.115 -41.389  0.00  0.00    +0.010 C 
ATOM     31  C   UNL     1      46.573 -23.074 -42.591  0.00  0.00    -0.049 C 
BRANCH  30  32
ATOM     32  N   UNL     1      47.748 -21.747 -40.781  0.00  0.00    -0.305 N 
ATOM     33  C   UNL     1      48.885 -22.575 -41.187  0.00  0.00    -0.013 C 
ATOM     34  C   UNL     1      47.660 -21.761 -39.313  0.00  0.00    -0.013 C 
ATOM     35  H   UNL     1      47.931 -20.809 -41.135  0.00  0.00    +0.000 HD
ENDBRANCH  30  32
ENDBRANCH  15  30
TORSDOF 5
ENDMDL
MODEL 4
REMARK VINA RESULT:    -7.902     19.264     21.600
REMARK INTER + INTRA:         -10.641
REMARK INTER:                  -9.329
REMARK INTRA:                  -1.312
REMARK UNBOUND:                -0.429
REMARK  Name = cpd187.pdb
REMARK  14 active torsions:
REMARK  status: ('A' for Active; 'I' for Inactive)
REMARK    1  A    between atoms: C_1  and  C_2
REMARK    2  A    between atoms: C_2  and  C_32
REMARK    3  A    between atoms: C_3  and  C_4
REMARK    4  A    between atoms: N_6  and  C_7
REMARK    5  A    between atoms: N_6  and  C_8
REMARK    6  A    between atoms: C_11  and  C_12
REMARK    7  A    between atoms: C_20  and  C_21
REMARK    8  A    between atoms: C_22  and  C_23
REMARK    9  A    between atoms: C_23  and  C_24
REMARK   10  A    between atoms: C_23  and  N_25
REMARK   11  A    between atoms: N_25  and  C_26
REMARK   12  A    between atoms: N_25  and  C_27
REMARK   13  A    between atoms: C_32  and  C_33
REMARK   14  A    between atoms: C_32  and  C_34
REMARK                            x       y       z     vdW  Elec       q    Type
REMARK                         _______ _______ _______ _____ _____    ______ ____
ROOT
ATOM      1  C   UNL     1      44.510 -19.244 -39.319  0.00  0.00    +0.026 C 
ATOM      2  C   UNL     1      43.974 -17.796 -39.335  0.00  0.00    -0.034 C 
ATOM      3  C   UNL     1      44.550 -16.922 -38.217  0.00  0.00    -0.045 C 
ATOM      4  C   UNL     1      44.362 -17.537 -36.799  0.00  0.00    -0.026 C 
ATOM      5  C   UNL     1      42.850 -17.648 -36.511  0.00  0.00    -0.059 C 
ATOM      6  C   UNL     1      45.024 -18.949 -36.842  0.00  0.00    -0.034 C 
ATOM      7  C   UNL     1      45.031 -19.610 -35.464  0.00  0.00    -0.049 C 
ATOM      8  C   UNL     1      45.850 -18.774 -34.487  0.00  0.00    -0.049 C 
ATOM      9  C   UNL     1      45.377 -17.309 -34.359  0.00  0.00    -0.034 C 
ATOM     10  C   UNL     1      45.124 -16.655 -35.731  0.00  0.00    -0.032 C 
ATOM     11  C   UNL     1      44.638 -15.215 -35.495  0.00  0.00    -0.049 C 
ATOM     12  C   UNL     1      43.388 -15.085 -34.639  0.00  0.00    -0.047 C 
ATOM     13  C   UNL     1      43.375 -15.856 -33.303  0.00  0.00    -0.025 C 
ATOM     14  C   UNL     1      41.889 -16.251 -33.046  0.00  0.00    -0.059 C 
ATOM     15  C   UNL     1      43.827 -15.060 -32.009  0.00  0.00    -0.020 C 
ATOM     16  C   UNL     1      45.163 -15.683 -31.625  0.00  0.00    -0.048 C 
ATOM     17  C   UNL     1      44.902 -17.161 -31.895  0.00  0.00    -0.049 C 
ATOM     18  C   UNL     1      44.249 -17.167 -33.298  0.00  0.00    -0.032 C 
ATOM     19  C   UNL     1      44.422 -19.876 -37.917  0.00  0.00    -0.031 C 
ENDROOT
BRANCH   1  22
ATOM     20  C   UNL     1      44.371 -20.352 -41.635  0.00  0.00    +0.239 C 
ATOM     21  O   UNL     1      43.707 -20.938 -42.489  0.00  0.00    -0.271 OA
ATOM     22  N   UNL     1      43.883 -20.114 -40.350  0.00  0.00    -0.298 N 
ATOM     23  C   UNL     1      42.669 -20.838 -39.984  0.00  0.00    +0.004 C 
BRANCH  20  26
ATOM     24  C   UNL     1      48.202 -20.006 -42.214  0.00  0.00    -0.043 C 
ATOM     25  C   UNL     1      46.885 -20.603 -41.781  0.00  0.00    -0.065 C 
ATOM     26  C   UNL     1      45.752 -19.885 -41.959  0.00  0.00    -0.000 C 
BRANCH  25  27
ATOM     27  C   UNL     1      46.942 -22.007 -41.175  0.00  0.00    -0.025 C 
ATOM     28  C   UNL     1      47.131 -22.011 -39.653  0.00  0.00    -0.059 C 
ATOM     29  C   UNL     1      48.040 -22.839 -41.844  0.00  0.00    -0.059 C 
ENDBRANCH  25  27
ENDBRANCH  20  26
ENDBRANCH   1  22
BRANCH  15  30
ATOM     30  C   UNL     1      43.700 -13.507 -31.948  0.00  0.00    +0.010 C 
ATOM     31  C   UNL     1      42.663 -13.100 -30.880  0.00  0.00    -0.049 C 
BRANCH  30  32
ATOM     32  N   UNL     1      44.981 -12.771 -31.849  0.00  0.00    -0.305 N 
ATOM     33  C   UNL     1      45.228 -12.118 -30.563  0.00  0.00    -0.013 C 
ATOM     34  C   UNL     1      45.088 -11.763 -32.913  0.00  0.00    -0.013 C 
ATOM     35  H   UNL     1      45.691 -13.495 -31.948  0.00  0.00    +0.000 HD
ENDBRANCH  30  32
ENDBRANCH  15  30
TORSDOF 5
ENDMDL
MODEL 5
REMARK VINA RESULT:    -7.729      3.325     10.166
REMARK INTER + INTRA:         -10.417
REMARK INTER:                  -9.082
REMARK INTRA:                  -1.335
REMARK UNBOUND:                -0.429
REMARK  Name = cpd187.pdb
REMARK  14 active torsions:
REMARK  status: ('A' for Active; 'I' for Inactive)
REMARK    1  A    between atoms: C_1  and  C_2
REMARK    2  A    between atoms: C_2  and  C_32
REMARK    3  A    between atoms: C_3  and  C_4
REMARK    4  A    between atoms: N_6  and  C_7
REMARK    5  A    between atoms: N_6  and  C_8
REMARK    6  A    between atoms: C_11  and  C_12
REMARK    7  A    between atoms: C_20  and  C_21
REMARK    8  A    between atoms: C_22  and  C_23
REMARK    9  A    between atoms: C_23  and  C_24
REMARK   10  A    between atoms: C_23  and  N_25
REMARK   11  A    between atoms: N_25  and  C_26
REMARK   12  A    between atoms: N_25  and  C_27
REMARK   13  A    between atoms: C_32  and  C_33
REMARK   14  A    between atoms: C_32  and  C_34
REMARK                            x       y       z     vdW  Elec       q    Type
REMARK                         _______ _______ _______ _____ _____    ______ ____
ROOT
ATOM      1  C   UNL     1      29.705 -30.463 -30.980  0.00  0.00    +0.026 C 
ATOM      2  C   UNL     1      31.002 -30.179 -30.191  0.00  0.00    -0.034 C 
ATOM      3  C   UNL     1      32.198 -31.005 -30.671  0.00  0.00    -0.045 C 
ATOM      4  C   UNL     1      31.919 -32.537 -30.687  0.00  0.00    -0.026 C 
ATOM      5  C   UNL     1      31.638 -32.999 -29.243  0.00  0.00    -0.059 C 
ATOM      6  C   UNL     1      30.663 -32.743 -31.590  0.00  0.00    -0.034 C 
ATOM      7  C   UNL     1      30.361 -34.226 -31.804  0.00  0.00    -0.049 C 
ATOM      8  C   UNL     1      31.527 -34.899 -32.520  0.00  0.00    -0.049 C 
ATOM      9  C   UNL     1      32.884 -34.743 -31.799  0.00  0.00    -0.034 C 
ATOM     10  C   UNL     1      33.142 -33.293 -31.345  0.00  0.00    -0.032 C 
ATOM     11  C   UNL     1      34.498 -33.249 -30.623  0.00  0.00    -0.049 C 
ATOM     12  C   UNL     1      34.627 -34.180 -29.427  0.00  0.00    -0.047 C 
ATOM     13  C   UNL     1      34.207 -35.650 -29.639  0.00  0.00    -0.025 C 
ATOM     14  C   UNL     1      33.651 -36.142 -28.269  0.00  0.00    -0.059 C 
ATOM     15  C   UNL     1      35.351 -36.677 -30.022  0.00  0.00    -0.020 C 
ATOM     16  C   UNL     1      35.061 -37.049 -31.470  0.00  0.00    -0.048 C 
ATOM     17  C   UNL     1      33.540 -37.147 -31.464  0.00  0.00    -0.049 C 
ATOM     18  C   UNL     1      33.093 -35.858 -30.734  0.00  0.00    -0.032 C 
ATOM     19  C   UNL     1      29.422 -31.972 -31.097  0.00  0.00    -0.031 C 
ENDROOT
BRANCH   1  22
ATOM     20  C   UNL     1      27.898 -28.636 -31.062  0.00  0.00    +0.239 C 
ATOM     21  O   UNL     1      27.042 -27.969 -30.483  0.00  0.00    -0.271 OA
ATOM     22  N   UNL     1      28.524 -29.726 -30.456  0.00  0.00    -0.298 N 
ATOM     23  C   UNL     1      27.917 -30.203 -29.217  0.00  0.00    +0.004 C 
BRANCH  20  26
ATOM     24  C   UNL     1      28.316 -28.457 -34.925  0.00  0.00    -0.043 C 
ATOM     25  C   UNL     1      27.883 -28.965 -33.571  0.00  0.00    -0.065 C 
ATOM     26  C   UNL     1      28.282 -28.296 -32.464  0.00  0.00    -0.000 C 
BRANCH  25  27
ATOM     27  C   UNL     1      26.998 -30.214 -33.565  0.00  0.00    -0.025 C 
ATOM     28  C   UNL     1      27.605 -31.398 -34.326  0.00  0.00    -0.059 C 
ATOM     29  C   UNL     1      25.606 -29.891 -34.116  0.00  0.00    -0.059 C 
ENDBRANCH  25  27
ENDBRANCH  20  26
ENDBRANCH   1  22
BRANCH  15  30
ATOM     30  C   UNL     1      36.832 -36.401 -29.620  0.00  0.00    +0.010 C 
ATOM     31  C   UNL     1      37.252 -37.331 -28.463  0.00  0.00    -0.049 C 
BRANCH  30  32
ATOM     32  N   UNL     1      37.797 -36.372 -30.743  0.00  0.00    -0.305 N 
ATOM     33  C   UNL     1      39.118 -36.928 -30.447  0.00  0.00    -0.013 C 
ATOM     34  C   UNL     1      37.969 -35.002 -31.249  0.00  0.00    -0.013 C 
ATOM     35  H   UNL     1      37.377 -36.979 -31.447  0.00  0.00    +0.000 HD
ENDBRANCH  30  32
ENDBRANCH  15  30
TORSDOF 5
ENDMDL
MODEL 6
REMARK VINA RESULT:    -7.728      3.929     10.180
REMARK INTER + INTRA:         -10.416
REMARK INTER:                  -9.004
REMARK INTRA:                  -1.412
REMARK UNBOUND:                -0.429
REMARK  Name = cpd187.pdb
REMARK  14 active torsions:
REMARK  status: ('A' for Active; 'I' for Inactive)
REMARK    1  A    between atoms: C_1  and  C_2
REMARK    2  A    between atoms: C_2  and  C_32
REMARK    3  A    between atoms: C_3  and  C_4
REMARK    4  A    between atoms: N_6  and  C_7
REMARK    5  A    between atoms: N_6  and  C_8
REMARK    6  A    between atoms: C_11  and  C_12
REMARK    7  A    between atoms: C_20  and  C_21
REMARK    8  A    between atoms: C_22  and  C_23
REMARK    9  A    between atoms: C_23  and  C_24
REMARK   10  A    between atoms: C_23  and  N_25
REMARK   11  A    between atoms: N_25  and  C_26
REMARK   12  A    between atoms: N_25  and  C_27
REMARK   13  A    between atoms: C_32  and  C_33
REMARK   14  A    between atoms: C_32  and  C_34
REMARK                            x       y       z     vdW  Elec       q    Type
REMARK                         _______ _______ _______ _____ _____    ______ ____
ROOT
ATOM      1  C   UNL     1      29.933 -30.748 -29.860  0.00  0.00    +0.026 C 
ATOM      2  C   UNL     1      29.458 -32.205 -29.669  0.00  0.00    -0.034 C 
ATOM      3  C   UNL     1      30.547 -33.133 -29.125  0.00  0.00    -0.045 C 
ATOM      4  C   UNL     1      31.851 -33.113 -29.975  0.00  0.00    -0.026 C 
ATOM      5  C   UNL     1      31.522 -33.632 -31.389  0.00  0.00    -0.059 C 
ATOM      6  C   UNL     1      32.318 -31.624 -30.025  0.00  0.00    -0.034 C 
ATOM      7  C   UNL     1      33.673 -31.483 -30.719  0.00  0.00    -0.049 C 
ATOM      8  C   UNL     1      34.740 -32.248 -29.944  0.00  0.00    -0.049 C 
ATOM      9  C   UNL     1      34.416 -33.744 -29.734  0.00  0.00    -0.034 C 
ATOM     10  C   UNL     1      32.969 -33.968 -29.254  0.00  0.00    -0.032 C 
ATOM     11  C   UNL     1      32.742 -35.480 -29.100  0.00  0.00    -0.049 C 
ATOM     12  C   UNL     1      32.988 -36.305 -30.354  0.00  0.00    -0.047 C 
ATOM     13  C   UNL     1      34.316 -36.059 -31.100  0.00  0.00    -0.025 C 
ATOM     14  C   UNL     1      34.016 -36.311 -32.609  0.00  0.00    -0.059 C 
ATOM     15  C   UNL     1      35.527 -37.019 -30.747  0.00  0.00    -0.020 C 
ATOM     16  C   UNL     1      36.515 -36.129 -30.005  0.00  0.00    -0.048 C 
ATOM     17  C   UNL     1      36.418 -34.832 -30.798  0.00  0.00    -0.049 C 
ATOM     18  C   UNL     1      34.894 -34.603 -30.941  0.00  0.00    -0.032 C 
ATOM     19  C   UNL     1      31.266 -30.672 -30.628  0.00  0.00    -0.031 C 
ENDROOT
BRANCH   1  22
ATOM     20  C   UNL     1      27.898 -29.178 -29.790  0.00  0.00    +0.239 C 
ATOM     21  O   UNL     1      26.976 -28.616 -30.378  0.00  0.00    -0.271 OA
ATOM     22  N   UNL     1      28.901 -29.868 -30.471  0.00  0.00    -0.298 N 
ATOM     23  C   UNL     1      28.957 -29.651 -31.914  0.00  0.00    +0.004 C 
BRANCH  20  26
ATOM     24  C   UNL     1      27.561 -29.792 -25.963  0.00  0.00    -0.043 C 
ATOM     25  C   UNL     1      27.333 -29.950 -27.448  0.00  0.00    -0.065 C 
ATOM     26  C   UNL     1      27.974 -29.118 -28.300  0.00  0.00    -0.000 C 
BRANCH  25  27
ATOM     27  C   UNL     1      26.384 -31.074 -27.873  0.00  0.00    -0.025 C 
ATOM     28  C   UNL     1      24.901 -30.703 -27.751  0.00  0.00    -0.059 C 
ATOM     29  C   UNL     1      26.674 -32.354 -27.083  0.00  0.00    -0.059 C 
ENDBRANCH  25  27
ENDBRANCH  20  26
ENDBRANCH   1  22
BRANCH  15  30
ATOM     30  C   UNL     1      35.267 -38.451 -30.187  0.00  0.00    +0.010 C 
ATOM     31  C   UNL     1      35.634 -39.511 -31.247  0.00  0.00    -0.049 C 
BRANCH  30  32
ATOM     32  N   UNL     1      35.841 -38.720 -28.849  0.00  0.00    -0.305 N 
ATOM     33  C   UNL     1      36.736 -39.876 -28.774  0.00  0.00    -0.013 C 
ATOM     34  C   UNL     1      34.778 -38.886 -27.848  0.00  0.00    -0.013 C 
ATOM     35  H   UNL     1      36.412 -37.898 -28.654  0.00  0.00    +0.000 HD
ENDBRANCH  30  32
ENDBRANCH  15  30
TORSDOF 5
ENDMDL
MODEL 7
REMARK VINA RESULT:    -7.666      5.014      7.816
REMARK INTER + INTRA:         -10.335
REMARK INTER:                  -9.279
REMARK INTRA:                  -1.056
REMARK UNBOUND:                -0.429
REMARK  Name = cpd187.pdb
REMARK  14 active torsions:
REMARK  status: ('A' for Active; 'I' for Inactive)
REMARK    1  A    between atoms: C_1  and  C_2
REMARK    2  A    between atoms: C_2  and  C_32
REMARK    3  A    between atoms: C_3  and  C_4
REMARK    4  A    between atoms: N_6  and  C_7
REMARK    5  A    between atoms: N_6  and  C_8
REMARK    6  A    between atoms: C_11  and  C_12
REMARK    7  A    between atoms: C_20  and  C_21
REMARK    8  A    between atoms: C_22  and  C_23
REMARK    9  A    between atoms: C_23  and  C_24
REMARK   10  A    between atoms: C_23  and  N_25
REMARK   11  A    between atoms: N_25  and  C_26
REMARK   12  A    between atoms: N_25  and  C_27
REMARK   13  A    between atoms: C_32  and  C_33
REMARK   14  A    between atoms: C_32  and  C_34
REMARK                            x       y       z     vdW  Elec       q    Type
REMARK                         _______ _______ _______ _____ _____    ______ ____
ROOT
ATOM      1  C   UNL     1      37.221 -36.534 -31.234  0.00  0.00    +0.026 C 
ATOM      2  C   UNL     1      37.571 -37.083 -29.834  0.00  0.00    -0.034 C 
ATOM      3  C   UNL     1      37.104 -38.524 -29.612  0.00  0.00    -0.045 C 
ATOM      4  C   UNL     1      35.586 -38.727 -29.891  0.00  0.00    -0.026 C 
ATOM      5  C   UNL     1      34.786 -37.865 -28.893  0.00  0.00    -0.059 C 
ATOM      6  C   UNL     1      35.342 -38.250 -31.356  0.00  0.00    -0.034 C 
ATOM      7  C   UNL     1      33.908 -38.526 -31.807  0.00  0.00    -0.049 C 
ATOM      8  C   UNL     1      33.632 -40.025 -31.785  0.00  0.00    -0.049 C 
ATOM      9  C   UNL     1      33.885 -40.694 -30.416  0.00  0.00    -0.034 C 
ATOM     10  C   UNL     1      35.229 -40.264 -29.795  0.00  0.00    -0.032 C 
ATOM     11  C   UNL     1      35.373 -40.962 -28.433  0.00  0.00    -0.049 C 
ATOM     12  C   UNL     1      34.253 -40.689 -27.442  0.00  0.00    -0.047 C 
ATOM     13  C   UNL     1      32.809 -40.865 -27.956  0.00  0.00    -0.025 C 
ATOM     14  C   UNL     1      31.943 -39.830 -27.177  0.00  0.00    -0.059 C 
ATOM     15  C   UNL     1      32.119 -42.268 -27.698  0.00  0.00    -0.020 C 
ATOM     16  C   UNL     1      32.012 -42.901 -29.079  0.00  0.00    -0.048 C 
ATOM     17  C   UNL     1      31.632 -41.702 -29.939  0.00  0.00    -0.049 C 
ATOM     18  C   UNL     1      32.631 -40.604 -29.500  0.00  0.00    -0.032 C 
ATOM     19  C   UNL     1      35.744 -36.781 -31.597  0.00  0.00    -0.031 C 
ENDROOT
BRANCH   1  22
ATOM     20  C   UNL     1      38.763 -34.632 -32.015  0.00  0.00    +0.239 C 
ATOM     21  O   UNL     1      39.086 -33.446 -31.969  0.00  0.00    -0.271 OA
ATOM     22  N   UNL     1      37.596 -35.107 -31.418  0.00  0.00    -0.298 N 
ATOM     23  C   UNL     1      36.642 -34.090 -30.984  0.00  0.00    +0.004 C 
BRANCH  20  26
ATOM     24  C   UNL     1      41.457 -37.228 -33.083  0.00  0.00    -0.043 C 
ATOM     25  C   UNL     1      40.722 -36.218 -32.233  0.00  0.00    -0.065 C 
ATOM     26  C   UNL     1      39.628 -35.609 -32.742  0.00  0.00    -0.000 C 
BRANCH  25  27
ATOM     27  C   UNL     1      41.284 -35.976 -30.830  0.00  0.00    -0.025 C 
ATOM     28  C   UNL     1      42.803 -35.769 -30.804  0.00  0.00    -0.059 C 
ATOM     29  C   UNL     1      40.891 -37.117 -29.886  0.00  0.00    -0.059 C 
ENDBRANCH  25  27
ENDBRANCH  20  26
ENDBRANCH   1  22
BRANCH  15  30
ATOM     30  C   UNL     1      32.578 -43.171 -26.513  0.00  0.00    +0.010 C 
ATOM     31  C   UNL     1      31.918 -42.701 -25.199  0.00  0.00    -0.049 C 
BRANCH  30  32
ATOM     32  N   UNL     1      32.466 -44.629 -26.749  0.00  0.00    -0.305 N 
ATOM     33  C   UNL     1      31.527 -45.334 -25.875  0.00  0.00    -0.013 C 
ATOM     34  C   UNL     1      33.781 -45.278 -26.641  0.00  0.00    -0.013 C 
ATOM     35  H   UNL     1      32.092 -44.699 -27.695  0.00  0.00    +0.000 HD
ENDBRANCH  30  32
ENDBRANCH  15  30
TORSDOF 5
ENDMDL
MODEL 8
REMARK VINA RESULT:    -7.520      1.445      3.337
REMARK INTER + INTRA:         -10.148
REMARK INTER:                  -9.416
REMARK INTRA:                  -0.731
REMARK UNBOUND:                -0.429
REMARK  Name = cpd187.pdb
REMARK  14 active torsions:
REMARK  status: ('A' for Active; 'I' for Inactive)
REMARK    1  A    between atoms: C_1  and  C_2
REMARK    2  A    between atoms: C_2  and  C_32
REMARK    3  A    between atoms: C_3  and  C_4
REMARK    4  A    between atoms: N_6  and  C_7
REMARK    5  A    between atoms: N_6  and  C_8
REMARK    6  A    between atoms: C_11  and  C_12
REMARK    7  A    between atoms: C_20  and  C_21
REMARK    8  A    between atoms: C_22  and  C_23
REMARK    9  A    between atoms: C_23  and  C_24
REMARK   10  A    between atoms: C_23  and  N_25
REMARK   11  A    between atoms: N_25  and  C_26
REMARK   12  A    between atoms: N_25  and  C_27
REMARK   13  A    between atoms: C_32  and  C_33
REMARK   14  A    between atoms: C_32  and  C_34
REMARK                            x       y       z     vdW  Elec       q    Type
REMARK                         _______ _______ _______ _____ _____    ______ ____
ROOT
ATOM      1  C   UNL     1      36.582 -36.150 -30.791  0.00  0.00    +0.026 C 
ATOM      2  C   UNL     1      35.361 -36.962 -31.275  0.00  0.00    -0.034 C 
ATOM      3  C   UNL     1      34.309 -36.109 -31.989  0.00  0.00    -0.045 C 
ATOM      4  C   UNL     1      33.829 -34.892 -31.145  0.00  0.00    -0.026 C 
ATOM      5  C   UNL     1      33.147 -35.422 -29.867  0.00  0.00    -0.059 C 
ATOM      6  C   UNL     1      35.109 -34.072 -30.793  0.00  0.00    -0.034 C 
ATOM      7  C   UNL     1      34.762 -32.767 -30.077  0.00  0.00    -0.049 C 
ATOM      8  C   UNL     1      33.914 -31.882 -30.984  0.00  0.00    -0.049 C 
ATOM      9  C   UNL     1      32.621 -32.556 -31.494  0.00  0.00    -0.034 C 
ATOM     10  C   UNL     1      32.873 -33.984 -32.018  0.00  0.00    -0.032 C 
ATOM     11  C   UNL     1      31.529 -34.572 -32.477  0.00  0.00    -0.049 C 
ATOM     12  C   UNL     1      30.442 -34.612 -31.413  0.00  0.00    -0.047 C 
ATOM     13  C   UNL     1      30.189 -33.309 -30.625  0.00  0.00    -0.025 C 
ATOM     14  C   UNL     1      29.735 -33.748 -29.200  0.00  0.00    -0.059 C 
ATOM     15  C   UNL     1      29.039 -32.358 -31.158  0.00  0.00    -0.020 C 
ATOM     16  C   UNL     1      29.773 -31.138 -31.699  0.00  0.00    -0.048 C 
ATOM     17  C   UNL     1      30.873 -30.954 -30.660  0.00  0.00    -0.049 C 
ATOM     18  C   UNL     1      31.452 -32.378 -30.484  0.00  0.00    -0.032 C 
ATOM     19  C   UNL     1      36.163 -34.887 -30.016  0.00  0.00    -0.031 C 
ENDROOT
BRANCH   1  22
ATOM     20  C   UNL     1      37.271 -37.800 -28.943  0.00  0.00    +0.239 C 
ATOM     21  O   UNL     1      38.152 -38.298 -28.245  0.00  0.00    -0.271 OA
ATOM     22  N   UNL     1      37.561 -36.963 -30.021  0.00  0.00    -0.298 N 
ATOM     23  C   UNL     1      38.956 -36.935 -30.449  0.00  0.00    +0.004 C 
BRANCH  20  26
ATOM     24  C   UNL     1      33.777 -39.447 -28.475  0.00  0.00    -0.043 C 
ATOM     25  C   UNL     1      35.224 -39.287 -28.876  0.00  0.00    -0.065 C 
ATOM     26  C   UNL     1      35.837 -38.101 -28.655  0.00  0.00    -0.000 C 
BRANCH  25  27
ATOM     27  C   UNL     1      35.894 -40.513 -29.501  0.00  0.00    -0.025 C 
ATOM     28  C   UNL     1      35.651 -40.642 -31.009  0.00  0.00    -0.059 C 
ATOM     29  C   UNL     1      35.454 -41.793 -28.784  0.00  0.00    -0.059 C 
ENDBRANCH  25  27
ENDBRANCH  20  26
ENDBRANCH   1  22
BRANCH  15  30
ATOM     30  C   UNL     1      27.858 -32.934 -31.998  0.00  0.00    +0.010 C 
ATOM     31  C   UNL     1      26.516 -32.374 -31.482  0.00  0.00    -0.049 C 
BRANCH  30  32
ATOM     32  N   UNL     1      28.021 -32.838 -33.466  0.00  0.00    -0.305 N 
ATOM     33  C   UNL     1      27.082 -31.942 -34.142  0.00  0.00    -0.013 C 
ATOM     34  C   UNL     1      27.930 -34.166 -34.090  0.00  0.00    -0.013 C 
ATOM     35  H   UNL     1      28.948 -32.432 -33.587  0.00  0.00    +0.000 HD
ENDBRANCH  30  32
ENDBRANCH  15  30
TORSDOF 5
ENDMDL
MODEL 9
REMARK VINA RESULT:    -7.322     16.109     19.474
REMARK INTER + INTRA:          -9.891
REMARK INTER:                  -8.832
REMARK INTRA:                  -1.059
REMARK UNBOUND:                -0.429
REMARK  Name = cpd187.pdb
REMARK  14 active torsions:
REMARK  status: ('A' for Active; 'I' for Inactive)
REMARK    1  A    between atoms: C_1  and  C_2
REMARK    2  A    between atoms: C_2  and  C_32
REMARK    3  A    between atoms: C_3  and  C_4
REMARK    4  A    between atoms: N_6  and  C_7
REMARK    5  A    between atoms: N_6  and  C_8
REMARK    6  A    between atoms: C_11  and  C_12
REMARK    7  A    between atoms: C_20  and  C_21
REMARK    8  A    between atoms: C_22  and  C_23
REMARK    9  A    between atoms: C_23  and  C_24
REMARK   10  A    between atoms: C_23  and  N_25
REMARK   11  A    between atoms: N_25  and  C_26
REMARK   12  A    between atoms: N_25  and  C_27
REMARK   13  A    between atoms: C_32  and  C_33
REMARK   14  A    between atoms: C_32  and  C_34
REMARK                            x       y       z     vdW  Elec       q    Type
REMARK                         _______ _______ _______ _____ _____    ______ ____
ROOT
ATOM      1  C   UNL     1      40.159 -22.398 -34.402  0.00  0.00    +0.026 C 
ATOM      2  C   UNL     1      39.931 -22.187 -35.915  0.00  0.00    -0.034 C 
ATOM      3  C   UNL     1      41.228 -21.969 -36.700  0.00  0.00    -0.045 C 
ATOM      4  C   UNL     1      42.100 -20.811 -36.134  0.00  0.00    -0.026 C 
ATOM      5  C   UNL     1      41.306 -19.494 -36.256  0.00  0.00    -0.059 C 
ATOM      6  C   UNL     1      42.371 -21.159 -34.636  0.00  0.00    -0.034 C 
ATOM      7  C   UNL     1      43.339 -20.165 -33.994  0.00  0.00    -0.049 C 
ATOM      8  C   UNL     1      44.688 -20.215 -34.704  0.00  0.00    -0.049 C 
ATOM      9  C   UNL     1      44.610 -19.957 -36.225  0.00  0.00    -0.034 C 
ATOM     10  C   UNL     1      43.483 -20.765 -36.899  0.00  0.00    -0.032 C 
ATOM     11  C   UNL     1      43.476 -20.422 -38.397  0.00  0.00    -0.049 C 
ATOM     12  C   UNL     1      43.300 -18.947 -38.724  0.00  0.00    -0.047 C 
ATOM     13  C   UNL     1      44.214 -17.953 -37.975  0.00  0.00    -0.025 C 
ATOM     14  C   UNL     1      43.386 -16.643 -37.814  0.00  0.00    -0.059 C 
ATOM     15  C   UNL     1      45.552 -17.518 -38.704  0.00  0.00    -0.020 C 
ATOM     16  C   UNL     1      46.660 -18.169 -37.888  0.00  0.00    -0.048 C 
ATOM     17  C   UNL     1      46.146 -17.981 -36.465  0.00  0.00    -0.049 C 
ATOM     18  C   UNL     1      44.669 -18.436 -36.547  0.00  0.00    -0.032 C 
ATOM     19  C   UNL     1      41.084 -21.322 -33.803  0.00  0.00    -0.031 C 
ENDROOT
BRANCH   1  22
ATOM     20  C   UNL     1      38.241 -21.494 -32.947  0.00  0.00    +0.239 C 
ATOM     21  O   UNL     1      37.301 -21.709 -32.184  0.00  0.00    -0.271 OA
ATOM     22  N   UNL     1      38.894 -22.521 -33.629  0.00  0.00    -0.298 N 
ATOM     23  C   UNL     1      38.230 -23.821 -33.611  0.00  0.00    +0.004 C 
BRANCH  20  26
ATOM     24  C   UNL     1      38.780 -17.853 -34.208  0.00  0.00    -0.043 C 
ATOM     25  C   UNL     1      38.247 -19.264 -34.144  0.00  0.00    -0.065 C 
ATOM     26  C   UNL     1      38.704 -20.093 -33.178  0.00  0.00    -0.000 C 
BRANCH  25  27
ATOM     27  C   UNL     1      37.199 -19.642 -35.194  0.00  0.00    -0.025 C 
ATOM     28  C   UNL     1      37.610 -19.285 -36.627  0.00  0.00    -0.059 C 
ATOM     29  C   UNL     1      35.846 -19.006 -34.861  0.00  0.00    -0.059 C 
ENDBRANCH  25  27
ENDBRANCH  20  26
ENDBRANCH   1  22
BRANCH  15  30
ATOM     30  C   UNL     1      45.661 -17.568 -40.259  0.00  0.00    +0.010 C 
ATOM     31  C   UNL     1      46.600 -16.452 -40.762  0.00  0.00    -0.049 C 
BRANCH  30  32
ATOM     32  N   UNL     1      45.959 -18.902 -40.829  0.00  0.00    -0.305 N 
ATOM     33  C   UNL     1      47.306 -19.061 -41.377  0.00  0.00    -0.013 C 
ATOM     34  C   UNL     1      44.985 -19.254 -41.872  0.00  0.00    -0.013 C 
ATOM     35  H   UNL     1      45.894 -19.533 -40.030  0.00  0.00    +0.000 HD
ENDBRANCH  30  32
ENDBRANCH  15  30
TORSDOF 5
ENDMDL
MODEL 10
REMARK VINA RESULT:    -7.280      3.969     10.464
REMARK INTER + INTRA:          -9.838
REMARK INTER:                  -8.911
REMARK INTRA:                  -0.926
REMARK UNBOUND:                -0.429
REMARK  Name = cpd187.pdb
REMARK  14 active torsions:
REMARK  status: ('A' for Active; 'I' for Inactive)
REMARK    1  A    between atoms: C_1  and  C_2
REMARK    2  A    between atoms: C_2  and  C_32
REMARK    3  A    between atoms: C_3  and  C_4
REMARK    4  A    between atoms: N_6  and  C_7
REMARK    5  A    between atoms: N_6  and  C_8
REMARK    6  A    between atoms: C_11  and  C_12
REMARK    7  A    between atoms: C_20  and  C_21
REMARK    8  A    between atoms: C_22  and  C_23
REMARK    9  A    between atoms: C_23  and  C_24
REMARK   10  A    between atoms: C_23  and  N_25
REMARK   11  A    between atoms: N_25  and  C_26
REMARK   12  A    between atoms: N_25  and  C_27
REMARK   13  A    between atoms: C_32  and  C_33
REMARK   14  A    between atoms: C_32  and  C_34
REMARK                            x       y       z     vdW  Elec       q    Type
REMARK                         _______ _______ _______ _____ _____    ______ ____
ROOT
ATOM      1  C   UNL     1      29.478 -30.860 -29.728  0.00  0.00    +0.026 C 
ATOM      2  C   UNL     1      29.101 -32.344 -29.529  0.00  0.00    -0.034 C 
ATOM      3  C   UNL     1      30.254 -33.196 -28.991  0.00  0.00    -0.045 C 
ATOM      4  C   UNL     1      31.547 -33.093 -29.853  0.00  0.00    -0.026 C 
ATOM      5  C   UNL     1      31.240 -33.639 -31.262  0.00  0.00    -0.059 C 
ATOM      6  C   UNL     1      31.914 -31.577 -29.911  0.00  0.00    -0.034 C 
ATOM      7  C   UNL     1      33.251 -31.349 -30.618  0.00  0.00    -0.049 C 
ATOM      8  C   UNL     1      34.373 -32.040 -29.849  0.00  0.00    -0.049 C 
ATOM      9  C   UNL     1      34.150 -33.553 -29.632  0.00  0.00    -0.034 C 
ATOM     10  C   UNL     1      32.725 -33.870 -29.139  0.00  0.00    -0.032 C 
ATOM     11  C   UNL     1      32.600 -35.393 -28.977  0.00  0.00    -0.049 C 
ATOM     12  C   UNL     1      32.888 -36.204 -30.231  0.00  0.00    -0.047 C 
ATOM     13  C   UNL     1      34.191 -35.875 -30.990  0.00  0.00    -0.025 C 
ATOM     14  C   UNL     1      33.896 -36.151 -32.495  0.00  0.00    -0.059 C 
ATOM     15  C   UNL     1      35.465 -36.751 -30.645  0.00  0.00    -0.020 C 
ATOM     16  C   UNL     1      36.399 -35.796 -29.914  0.00  0.00    -0.048 C 
ATOM     17  C   UNL     1      36.210 -34.510 -30.711  0.00  0.00    -0.049 C 
ATOM     18  C   UNL     1      34.673 -34.383 -30.840  0.00  0.00    -0.032 C 
ATOM     19  C   UNL     1      30.796 -30.699 -30.508  0.00  0.00    -0.031 C 
ENDROOT
BRANCH   1  22
ATOM     20  C   UNL     1      27.291 -29.509 -29.659  0.00  0.00    +0.239 C 
ATOM     21  O   UNL     1      26.339 -29.007 -30.254  0.00  0.00    -0.271 OA
ATOM     22  N   UNL     1      28.385 -30.052 -30.333  0.00  0.00    -0.298 N 
ATOM     23  C   UNL     1      28.473 -29.743 -31.757  0.00  0.00    +0.004 C 
BRANCH  20  26
ATOM     24  C   UNL     1      27.289 -28.639 -25.867  0.00  0.00    -0.043 C 
ATOM     25  C   UNL     1      27.338 -28.444 -27.363  0.00  0.00    -0.065 C 
ATOM     26  C   UNL     1      27.304 -29.533 -28.166  0.00  0.00    -0.000 C 
BRANCH  25  27
ATOM     27  C   UNL     1      27.409 -26.997 -27.858  0.00  0.00    -0.025 C 
ATOM     28  C   UNL     1      28.291 -26.094 -26.987  0.00  0.00    -0.059 C 
ATOM     29  C   UNL     1      26.004 -26.400 -27.983  0.00  0.00    -0.059 C 
ENDBRANCH  25  27
ENDBRANCH  20  26
ENDBRANCH   1  22
BRANCH  15  30
ATOM     30  C   UNL     1      35.306 -38.196 -30.078  0.00  0.00    +0.010 C 
ATOM     31  C   UNL     1      35.714 -39.233 -31.143  0.00  0.00    -0.049 C 
BRANCH  30  32
ATOM     32  N   UNL     1      35.923 -38.426 -28.752  0.00  0.00    -0.305 N 
ATOM     33  C   UNL     1      37.035 -39.377 -28.737  0.00  0.00    -0.013 C 
ATOM     34  C   UNL     1      34.916 -38.868 -27.776  0.00  0.00    -0.013 C 
ATOM     35  H   UNL     1      36.314 -37.518 -28.499  0.00  0.00    +0.000 HD
ENDBRANCH  30  32
ENDBRANCH  15  30
TORSDOF 5
ENDMDL
MODEL 11
REMARK VINA RESULT:    -7.221      2.630      4.718
REMARK INTER + INTRA:          -9.760
REMARK INTER:                  -8.458
REMARK INTRA:                  -1.302
REMARK UNBOUND:                -0.429
REMARK  Name = cpd187.pdb
REMARK  14 active torsions:
REMARK  status: ('A' for Active; 'I' for Inactive)
REMARK    1  A    between atoms: C_1  and  C_2
REMARK    2  A    between atoms: C_2  and  C_32
REMARK    3  A    between atoms: C_3  and  C_4
REMARK    4  A    between atoms: N_6  and  C_7
REMARK    5  A    between atoms: N_6  and  C_8
REMARK    6  A    between atoms: C_11  and  C_12
REMARK    7  A    between atoms: C_20  and  C_21
REMARK    8  A    between atoms: C_22  and  C_23
REMARK    9  A    between atoms: C_23  and  C_24
REMARK   10  A    between atoms: C_23  and  N_25
REMARK   11  A    between atoms: N_25  and  C_26
REMARK   12  A    between atoms: N_25  and  C_27
REMARK   13  A    between atoms: C_32  and  C_33
REMARK   14  A    between atoms: C_32  and  C_34
REMARK                            x       y       z     vdW  Elec       q    Type
REMARK                         _______ _______ _______ _____ _____    ______ ____
ROOT
ATOM      1  C   UNL     1      35.327 -34.708 -29.874  0.00  0.00    +0.026 C 
ATOM      2  C   UNL     1      35.312 -33.218 -30.279  0.00  0.00    -0.034 C 
ATOM      3  C   UNL     1      34.134 -32.439 -29.688  0.00  0.00    -0.045 C 
ATOM      4  C   UNL     1      32.752 -33.084 -30.003  0.00  0.00    -0.026 C 
ATOM      5  C   UNL     1      32.544 -33.069 -31.532  0.00  0.00    -0.059 C 
ATOM      6  C   UNL     1      32.818 -34.547 -29.466  0.00  0.00    -0.034 C 
ATOM      7  C   UNL     1      31.468 -35.254 -29.590  0.00  0.00    -0.049 C 
ATOM      8  C   UNL     1      30.420 -34.529 -28.753  0.00  0.00    -0.049 C 
ATOM      9  C   UNL     1      30.258 -33.033 -29.101  0.00  0.00    -0.034 C 
ATOM     10  C   UNL     1      31.615 -32.311 -29.224  0.00  0.00    -0.032 C 
ATOM     11  C   UNL     1      31.346 -30.843 -29.593  0.00  0.00    -0.049 C 
ATOM     12  C   UNL     1      30.548 -30.631 -30.870  0.00  0.00    -0.047 C 
ATOM     13  C   UNL     1      29.245 -31.444 -31.021  0.00  0.00    -0.025 C 
ATOM     14  C   UNL     1      29.078 -31.713 -32.547  0.00  0.00    -0.059 C 
ATOM     15  C   UNL     1      27.901 -30.737 -30.569  0.00  0.00    -0.020 C 
ATOM     16  C   UNL     1      27.476 -31.490 -29.315  0.00  0.00    -0.048 C 
ATOM     17  C   UNL     1      27.816 -32.928 -29.690  0.00  0.00    -0.049 C 
ATOM     18  C   UNL     1      29.249 -32.827 -30.267  0.00  0.00    -0.032 C 
ATOM     19  C   UNL     1      33.957 -35.378 -30.090  0.00  0.00    -0.031 C 
ENDROOT
BRANCH   1  22
ATOM     20  C   UNL     1      37.066 -36.599 -29.986  0.00  0.00    +0.239 C 
ATOM     21  O   UNL     1      38.079 -37.075 -30.496  0.00  0.00    -0.271 OA
ATOM     22  N   UNL     1      36.421 -35.483 -30.519  0.00  0.00    -0.298 N 
ATOM     23  C   UNL     1      36.838 -35.085 -31.860  0.00  0.00    +0.004 C 
BRANCH  20  26
ATOM     24  C   UNL     1      35.194 -38.850 -27.424  0.00  0.00    -0.043 C 
ATOM     25  C   UNL     1      35.651 -38.295 -28.752  0.00  0.00    -0.065 C 
ATOM     26  C   UNL     1      36.484 -37.229 -28.764  0.00  0.00    -0.000 C 
BRANCH  25  27
ATOM     27  C   UNL     1      35.132 -39.011 -30.001  0.00  0.00    -0.025 C 
ATOM     28  C   UNL     1      33.604 -39.115 -30.059  0.00  0.00    -0.059 C 
ATOM     29  C   UNL     1      35.759 -40.404 -30.125  0.00  0.00    -0.059 C 
ENDBRANCH  25  27
ENDBRANCH  20  26
ENDBRANCH   1  22
BRANCH  15  30
ATOM     30  C   UNL     1      27.785 -29.182 -30.563  0.00  0.00    +0.010 C 
ATOM     31  C   UNL     1      26.866 -28.713 -31.710  0.00  0.00    -0.049 C 
BRANCH  30  32
ATOM     32  N   UNL     1      27.460 -28.577 -29.251  0.00  0.00    -0.305 N 
ATOM     33  C   UNL     1      26.371 -27.599 -29.266  0.00  0.00    -0.013 C 
ATOM     34  C   UNL     1      28.648 -27.946 -28.658  0.00  0.00    -0.013 C 
ATOM     35  H   UNL     1      27.136 -29.364 -28.689  0.00  0.00    +0.000 HD
ENDBRANCH  30  32
ENDBRANCH  15  30
TORSDOF 5
ENDMDL
MODEL 12
REMARK VINA RESULT:    -7.209     16.928     19.149
REMARK INTER + INTRA:          -9.745
REMARK INTER:                  -8.519
REMARK INTRA:                  -1.227
REMARK UNBOUND:                -0.429
REMARK  Name = cpd187.pdb
REMARK  14 active torsions:
REMARK  status: ('A' for Active; 'I' for Inactive)
REMARK    1  A    between atoms: C_1  and  C_2
REMARK    2  A    between atoms: C_2  and  C_32
REMARK    3  A    between atoms: C_3  and  C_4
REMARK    4  A    between atoms: N_6  and  C_7
REMARK    5  A    between atoms: N_6  and  C_8
REMARK    6  A    between atoms: C_11  and  C_12
REMARK    7  A    between atoms: C_20  and  C_21
REMARK    8  A    between atoms: C_22  and  C_23
REMARK    9  A    between atoms: C_23  and  C_24
REMARK   10  A    between atoms: C_23  and  N_25
REMARK   11  A    between atoms: N_25  and  C_26
REMARK   12  A    between atoms: N_25  and  C_27
REMARK   13  A    between atoms: C_32  and  C_33
REMARK   14  A    between atoms: C_32  and  C_34
REMARK                            x       y       z     vdW  Elec       q    Type
REMARK                         _______ _______ _______ _____ _____    ______ ____
ROOT
ATOM      1  C   UNL     1      44.625 -18.902 -39.328  0.00  0.00    +0.026 C 
ATOM      2  C   UNL     1      43.139 -19.020 -39.734  0.00  0.00    -0.034 C 
ATOM      3  C   UNL     1      42.170 -18.694 -38.594  0.00  0.00    -0.045 C 
ATOM      4  C   UNL     1      42.432 -19.532 -37.308  0.00  0.00    -0.026 C 
ATOM      5  C   UNL     1      42.207 -21.021 -37.641  0.00  0.00    -0.059 C 
ATOM      6  C   UNL     1      43.917 -19.270 -36.909  0.00  0.00    -0.034 C 
ATOM      7  C   UNL     1      44.267 -19.930 -35.575  0.00  0.00    -0.049 C 
ATOM      8  C   UNL     1      43.406 -19.344 -34.461  0.00  0.00    -0.049 C 
ATOM      9  C   UNL     1      41.886 -19.453 -34.714  0.00  0.00    -0.034 C 
ATOM     10  C   UNL     1      41.498 -19.018 -36.140  0.00  0.00    -0.032 C 
ATOM     11  C   UNL     1      39.978 -19.185 -36.296  0.00  0.00    -0.049 C 
ATOM     12  C   UNL     1      39.449 -20.588 -36.038  0.00  0.00    -0.047 C 
ATOM     13  C   UNL     1      39.909 -21.277 -34.736  0.00  0.00    -0.025 C 
ATOM     14  C   UNL     1      39.968 -22.802 -35.052  0.00  0.00    -0.059 C 
ATOM     15  C   UNL     1      38.955 -21.146 -33.477  0.00  0.00    -0.020 C 
ATOM     16  C   UNL     1      39.715 -20.240 -32.516  0.00  0.00    -0.048 C 
ATOM     17  C   UNL     1      41.144 -20.741 -32.686  0.00  0.00    -0.049 C 
ATOM     18  C   UNL     1      41.325 -20.818 -34.221  0.00  0.00    -0.032 C 
ATOM     19  C   UNL     1      44.924 -19.648 -38.014  0.00  0.00    -0.031 C 
ENDROOT
BRANCH   1  22
ATOM     20  C   UNL     1      46.751 -18.657 -40.753  0.00  0.00    +0.239 C 
ATOM     21  O   UNL     1      47.380 -18.941 -41.770  0.00  0.00    -0.271 OA
ATOM     22  N   UNL     1      45.564 -19.304 -40.409  0.00  0.00    -0.298 N 
ATOM     23  C   UNL     1      45.259 -20.518 -41.161  0.00  0.00    +0.004 C 
BRANCH  20  26
ATOM     24  C   UNL     1      47.486 -15.355 -38.831  0.00  0.00    -0.043 C 
ATOM     25  C   UNL     1      46.918 -16.290 -39.872  0.00  0.00    -0.065 C 
ATOM     26  C   UNL     1      47.264 -17.598 -39.834  0.00  0.00    -0.000 C 
BRANCH  25  27
ATOM     27  C   UNL     1      45.967 -15.669 -40.897  0.00  0.00    -0.025 C 
ATOM     28  C   UNL     1      46.511 -14.389 -41.542  0.00  0.00    -0.059 C 
ATOM     29  C   UNL     1      44.596 -15.399 -40.267  0.00  0.00    -0.059 C 
ENDBRANCH  25  27
ENDBRANCH  20  26
ENDBRANCH   1  22
BRANCH  15  30
ATOM     30  C   UNL     1      37.427 -20.899 -33.662  0.00  0.00    +0.010 C 
ATOM     31  C   UNL     1      36.630 -21.675 -32.593  0.00  0.00    -0.049 C 
BRANCH  30  32
ATOM     32  N   UNL     1      37.027 -19.479 -33.792  0.00  0.00    -0.305 N 
ATOM     33  C   UNL     1      36.265 -18.939 -32.664  0.00  0.00    -0.013 C 
ATOM     34  C   UNL     1      36.253 -19.265 -35.024  0.00  0.00    -0.013 C 
ATOM     35  H   UNL     1      37.912 -18.973 -33.814  0.00  0.00    +0.000 HD
ENDBRANCH  30  32
ENDBRANCH  15  30
TORSDOF 5
ENDMDL
MODEL 13
REMARK VINA RESULT:    -7.205     25.272     30.546
REMARK INTER + INTRA:          -9.740
REMARK INTER:                  -8.349
REMARK INTRA:                  -1.391
REMARK UNBOUND:                -0.429
REMARK  Name = cpd187.pdb
REMARK  14 active torsions:
REMARK  status: ('A' for Active; 'I' for Inactive)
REMARK    1  A    between atoms: C_1  and  C_2
REMARK    2  A    between atoms: C_2  and  C_32
REMARK    3  A    between atoms: C_3  and  C_4
REMARK    4  A    between atoms: N_6  and  C_7
REMARK    5  A    between atoms: N_6  and  C_8
REMARK    6  A    between atoms: C_11  and  C_12
REMARK    7  A    between atoms: C_20  and  C_21
REMARK    8  A    between atoms: C_22  and  C_23
REMARK    9  A    between atoms: C_23  and  C_24
REMARK   10  A    between atoms: C_23  and  N_25
REMARK   11  A    between atoms: N_25  and  C_26
REMARK   12  A    between atoms: N_25  and  C_27
REMARK   13  A    between atoms: C_32  and  C_33
REMARK   14  A    between atoms: C_32  and  C_34
REMARK                            x       y       z     vdW  Elec       q    Type
REMARK                         _______ _______ _______ _____ _____    ______ ____
ROOT
ATOM      1  C   UNL     1      47.527 -33.364 -54.759  0.00  0.00    +0.026 C 
ATOM      2  C   UNL     1      48.436 -34.308 -55.577  0.00  0.00    -0.034 C 
ATOM      3  C   UNL     1      49.865 -34.398 -55.034  0.00  0.00    -0.045 C 
ATOM      4  C   UNL     1      50.551 -33.009 -54.883  0.00  0.00    -0.026 C 
ATOM      5  C   UNL     1      50.670 -32.367 -56.280  0.00  0.00    -0.059 C 
ATOM      6  C   UNL     1      49.624 -32.160 -53.958  0.00  0.00    -0.034 C 
ATOM      7  C   UNL     1      50.254 -30.810 -53.615  0.00  0.00    -0.049 C 
ATOM      8  C   UNL     1      51.557 -31.021 -52.850  0.00  0.00    -0.049 C 
ATOM      9  C   UNL     1      52.586 -31.904 -53.589  0.00  0.00    -0.034 C 
ATOM     10  C   UNL     1      51.951 -33.183 -54.169  0.00  0.00    -0.032 C 
ATOM     11  C   UNL     1      53.048 -33.975 -54.899  0.00  0.00    -0.049 C 
ATOM     12  C   UNL     1      53.762 -33.222 -56.010  0.00  0.00    -0.047 C 
ATOM     13  C   UNL     1      54.290 -31.812 -55.669  0.00  0.00    -0.025 C 
ATOM     14  C   UNL     1      54.203 -30.987 -56.988  0.00  0.00    -0.059 C 
ATOM     15  C   UNL     1      55.801 -31.703 -55.205  0.00  0.00    -0.020 C 
ATOM     16  C   UNL     1      55.721 -31.338 -53.728  0.00  0.00    -0.048 C 
ATOM     17  C   UNL     1      54.560 -30.351 -53.717  0.00  0.00    -0.049 C 
ATOM     18  C   UNL     1      53.468 -31.061 -54.554  0.00  0.00    -0.032 C 
ATOM     19  C   UNL     1      48.193 -31.998 -54.509  0.00  0.00    -0.031 C 
ENDROOT
BRANCH   1  22
ATOM     20  C   UNL     1      45.043 -33.972 -55.018  0.00  0.00    +0.239 C 
ATOM     21  O   UNL     1      44.000 -33.905 -55.667  0.00  0.00    -0.271 OA
ATOM     22  N   UNL     1      46.166 -33.210 -55.338  0.00  0.00    -0.298 N 
ATOM     23  C   UNL     1      45.952 -32.129 -56.297  0.00  0.00    +0.004 C 
BRANCH  20  26
ATOM     24  C   UNL     1      45.466 -36.986 -52.595  0.00  0.00    -0.043 C 
ATOM     25  C   UNL     1      45.355 -36.215 -53.888  0.00  0.00    -0.065 C 
ATOM     26  C   UNL     1      45.126 -34.883 -53.838  0.00  0.00    -0.000 C 
BRANCH  25  27
ATOM     27  C   UNL     1      45.530 -37.022 -55.177  0.00  0.00    -0.025 C 
ATOM     28  C   UNL     1      44.418 -38.052 -55.411  0.00  0.00    -0.059 C 
ATOM     29  C   UNL     1      46.899 -37.709 -55.203  0.00  0.00    -0.059 C 
ENDBRANCH  25  27
ENDBRANCH  20  26
ENDBRANCH   1  22
BRANCH  15  30
ATOM     30  C   UNL     1      56.844 -32.779 -55.637  0.00  0.00    +0.010 C 
ATOM     31  C   UNL     1      57.883 -32.158 -56.593  0.00  0.00    -0.049 C 
BRANCH  30  32
ATOM     32  N   UNL     1      57.441 -33.562 -54.531  0.00  0.00    -0.305 N 
ATOM     33  C   UNL     1      58.883 -33.786 -54.632  0.00  0.00    -0.013 C 
ATOM     34  C   UNL     1      56.773 -34.865 -54.392  0.00  0.00    -0.013 C 
ATOM     35  H   UNL     1      57.294 -32.978 -53.707  0.00  0.00    +0.000 HD
ENDBRANCH  30  32
ENDBRANCH  15  30
TORSDOF 5
ENDMDL
MODEL 14
REMARK VINA RESULT:    -7.176     15.774     17.925
REMARK INTER + INTRA:          -9.702
REMARK INTER:                  -8.274
REMARK INTRA:                  -1.428
REMARK UNBOUND:                -0.429
REMARK  Name = cpd187.pdb
REMARK  14 active torsions:
REMARK  status: ('A' for Active; 'I' for Inactive)
REMARK    1  A    between atoms: C_1  and  C_2
REMARK    2  A    between atoms: C_2  and  C_32
REMARK    3  A    between atoms: C_3  and  C_4
REMARK    4  A    between atoms: N_6  and  C_7
REMARK    5  A    between atoms: N_6  and  C_8
REMARK    6  A    between atoms: C_11  and  C_12
REMARK    7  A    between atoms: C_20  and  C_21
REMARK    8  A    between atoms: C_22  and  C_23
REMARK    9  A    between atoms: C_23  and  C_24
REMARK   10  A    between atoms: C_23  and  N_25
REMARK   11  A    between atoms: N_25  and  C_26
REMARK   12  A    between atoms: N_25  and  C_27
REMARK   13  A    between atoms: C_32  and  C_33
REMARK   14  A    between atoms: C_32  and  C_34
REMARK                            x       y       z     vdW  Elec       q    Type
REMARK                         _______ _______ _______ _____ _____    ______ ____
ROOT
ATOM      1  C   UNL     1      42.797 -20.739 -38.812  0.00  0.00    +0.026 C 
ATOM      2  C   UNL     1      42.331 -19.269 -38.736  0.00  0.00    -0.034 C 
ATOM      3  C   UNL     1      41.739 -18.889 -37.376  0.00  0.00    -0.045 C 
ATOM      4  C   UNL     1      40.583 -19.830 -36.926  0.00  0.00    -0.026 C 
ATOM      5  C   UNL     1      39.428 -19.705 -37.940  0.00  0.00    -0.059 C 
ATOM      6  C   UNL     1      41.170 -21.276 -36.928  0.00  0.00    -0.034 C 
ATOM      7  C   UNL     1      40.171 -22.290 -36.369  0.00  0.00    -0.049 C 
ATOM      8  C   UNL     1      39.843 -21.954 -34.918  0.00  0.00    -0.049 C 
ATOM      9  C   UNL     1      39.305 -20.522 -34.707  0.00  0.00    -0.034 C 
ATOM     10  C   UNL     1      40.145 -19.466 -35.451  0.00  0.00    -0.032 C 
ATOM     11  C   UNL     1      39.517 -18.086 -35.197  0.00  0.00    -0.049 C 
ATOM     12  C   UNL     1      38.060 -17.951 -35.613  0.00  0.00    -0.047 C 
ATOM     13  C   UNL     1      37.092 -19.051 -35.129  0.00  0.00    -0.025 C 
ATOM     14  C   UNL     1      36.005 -19.188 -36.237  0.00  0.00    -0.059 C 
ATOM     15  C   UNL     1      36.294 -18.769 -33.789  0.00  0.00    -0.020 C 
ATOM     16  C   UNL     1      36.891 -19.737 -32.777  0.00  0.00    -0.048 C 
ATOM     17  C   UNL     1      37.084 -20.989 -33.624  0.00  0.00    -0.049 C 
ATOM     18  C   UNL     1      37.763 -20.460 -34.910  0.00  0.00    -0.032 C 
ATOM     19  C   UNL     1      41.718 -21.712 -38.301  0.00  0.00    -0.031 C 
ENDROOT
BRANCH   1  22
ATOM     20  C   UNL     1      44.621 -21.144 -40.578  0.00  0.00    +0.239 C 
ATOM     21  O   UNL     1      44.935 -21.306 -41.756  0.00  0.00    -0.271 OA
ATOM     22  N   UNL     1      43.290 -21.131 -40.160  0.00  0.00    -0.298 N 
ATOM     23  C   UNL     1      42.310 -21.597 -41.136  0.00  0.00    +0.004 C 
BRANCH  20  26
ATOM     24  C   UNL     1      47.265 -19.780 -38.072  0.00  0.00    -0.043 C 
ATOM     25  C   UNL     1      46.237 -19.791 -39.178  0.00  0.00    -0.065 C 
ATOM     26  C   UNL     1      45.684 -20.970 -39.544  0.00  0.00    -0.000 C 
BRANCH  25  27
ATOM     27  C   UNL     1      45.891 -18.435 -39.797  0.00  0.00    -0.025 C 
ATOM     28  C   UNL     1      46.949 -17.921 -40.781  0.00  0.00    -0.059 C 
ATOM     29  C   UNL     1      45.637 -17.392 -38.704  0.00  0.00    -0.059 C 
ENDBRANCH  25  27
ENDBRANCH  20  26
ENDBRANCH   1  22
BRANCH  15  30
ATOM     30  C   UNL     1      36.013 -17.306 -33.326  0.00  0.00    +0.010 C 
ATOM     31  C   UNL     1      34.508 -16.989 -33.449  0.00  0.00    -0.049 C 
BRANCH  30  32
ATOM     32  N   UNL     1      36.597 -16.934 -32.018  0.00  0.00    -0.305 N 
ATOM     33  C   UNL     1      35.706 -16.195 -31.122  0.00  0.00    -0.013 C 
ATOM     34  C   UNL     1      37.830 -16.154 -32.199  0.00  0.00    -0.013 C 
ATOM     35  H   UNL     1      36.786 -17.829 -31.567  0.00  0.00    +0.000 HD
ENDBRANCH  30  32
ENDBRANCH  15  30
TORSDOF 5
ENDMDL
MODEL 15
REMARK VINA RESULT:    -7.132     17.323     20.837
REMARK INTER + INTRA:          -9.646
REMARK INTER:                  -8.715
REMARK INTRA:                  -0.931
REMARK UNBOUND:                -0.429
REMARK  Name = cpd187.pdb
REMARK  14 active torsions:
REMARK  status: ('A' for Active; 'I' for Inactive)
REMARK    1  A    between atoms: C_1  and  C_2
REMARK    2  A    between atoms: C_2  and  C_32
REMARK    3  A    between atoms: C_3  and  C_4
REMARK    4  A    between atoms: N_6  and  C_7
REMARK    5  A    between atoms: N_6  and  C_8
REMARK    6  A    between atoms: C_11  and  C_12
REMARK    7  A    between atoms: C_20  and  C_21
REMARK    8  A    between atoms: C_22  and  C_23
REMARK    9  A    between atoms: C_23  and  C_24
REMARK   10  A    between atoms: C_23  and  N_25
REMARK   11  A    between atoms: N_25  and  C_26
REMARK   12  A    between atoms: N_25  and  C_27
REMARK   13  A    between atoms: C_32  and  C_33
REMARK   14  A    between atoms: C_32  and  C_34
REMARK                            x       y       z     vdW  Elec       q    Type
REMARK                         _______ _______ _______ _____ _____    ______ ____
ROOT
ATOM      1  C   UNL     1      42.988 -16.885 -34.458  0.00  0.00    +0.026 C 
ATOM      2  C   UNL     1      43.907 -18.117 -34.312  0.00  0.00    -0.034 C 
ATOM      3  C   UNL     1      44.821 -18.339 -35.520  0.00  0.00    -0.045 C 
ATOM      4  C   UNL     1      44.047 -18.418 -36.869  0.00  0.00    -0.026 C 
ATOM      5  C   UNL     1      43.105 -19.638 -36.822  0.00  0.00    -0.059 C 
ATOM      6  C   UNL     1      43.233 -17.091 -36.984  0.00  0.00    -0.034 C 
ATOM      7  C   UNL     1      42.531 -16.979 -38.337  0.00  0.00    -0.049 C 
ATOM      8  C   UNL     1      43.561 -16.957 -39.461  0.00  0.00    -0.049 C 
ATOM      9  C   UNL     1      44.512 -18.174 -39.469  0.00  0.00    -0.034 C 
ATOM     10  C   UNL     1      45.075 -18.485 -38.068  0.00  0.00    -0.032 C 
ATOM     11  C   UNL     1      45.986 -19.718 -38.179  0.00  0.00    -0.049 C 
ATOM     12  C   UNL     1      45.322 -20.966 -38.741  0.00  0.00    -0.047 C 
ATOM     13  C   UNL     1      44.522 -20.800 -40.050  0.00  0.00    -0.025 C 
ATOM     14  C   UNL     1      43.361 -21.837 -39.981  0.00  0.00    -0.059 C 
ATOM     15  C   UNL     1      45.285 -21.113 -41.403  0.00  0.00    -0.020 C 
ATOM     16  C   UNL     1      45.444 -19.756 -42.075  0.00  0.00    -0.048 C 
ATOM     17  C   UNL     1      44.103 -19.101 -41.769  0.00  0.00    -0.049 C 
ATOM     18  C   UNL     1      43.902 -19.367 -40.258  0.00  0.00    -0.032 C 
ATOM     19  C   UNL     1      42.256 -16.869 -35.813  0.00  0.00    -0.031 C 
ENDROOT
BRANCH   1  22
ATOM     20  C   UNL     1      41.269 -17.727 -32.742  0.00  0.00    +0.239 C 
ATOM     21  O   UNL     1      40.377 -17.483 -31.930  0.00  0.00    -0.271 OA
ATOM     22  N   UNL     1      42.039 -16.721 -33.324  0.00  0.00    -0.298 N 
ATOM     23  C   UNL     1      41.927 -15.399 -32.715  0.00  0.00    +0.004 C 
BRANCH  20  26
ATOM     24  C   UNL     1      41.237 -21.328 -34.214  0.00  0.00    -0.043 C 
ATOM     25  C   UNL     1      40.768 -19.933 -33.875  0.00  0.00    -0.065 C 
ATOM     26  C   UNL     1      41.562 -19.142 -33.118  0.00  0.00    -0.000 C 
BRANCH  25  27
ATOM     27  C   UNL     1      39.408 -19.518 -34.443  0.00  0.00    -0.025 C 
ATOM     28  C   UNL     1      38.276 -20.494 -34.100  0.00  0.00    -0.059 C 
ATOM     29  C   UNL     1      39.493 -19.322 -35.960  0.00  0.00    -0.059 C 
ENDBRANCH  25  27
ENDBRANCH  20  26
ENDBRANCH   1  22
BRANCH  15  30
ATOM     30  C   UNL     1      46.504 -22.086 -41.421  0.00  0.00    +0.010 C 
ATOM     31  C   UNL     1      46.534 -22.877 -42.745  0.00  0.00    -0.049 C 
BRANCH  30  32
ATOM     32  N   UNL     1      47.804 -21.477 -41.059  0.00  0.00    -0.305 N 
ATOM     33  C   UNL     1      48.578 -20.942 -42.180  0.00  0.00    -0.013 C 
ATOM     34  C   UNL     1      48.645 -22.435 -40.326  0.00  0.00    -0.013 C 
ATOM     35  H   UNL     1      47.551 -20.680 -40.474  0.00  0.00    +0.000 HD
ENDBRANCH  30  32
ENDBRANCH  15  30
TORSDOF 5
ENDMDL
MODEL 16
REMARK VINA RESULT:    -7.054     16.799     19.073
REMARK INTER + INTRA:          -9.546
REMARK INTER:                  -8.395
REMARK INTRA:                  -1.151
REMARK UNBOUND:                -0.429
REMARK  Name = cpd187.pdb
REMARK  14 active torsions:
REMARK  status: ('A' for Active; 'I' for Inactive)
REMARK    1  A    between atoms: C_1  and  C_2
REMARK    2  A    between atoms: C_2  and  C_32
REMARK    3  A    between atoms: C_3  and  C_4
REMARK    4  A    between atoms: N_6  and  C_7
REMARK    5  A    between atoms: N_6  and  C_8
REMARK    6  A    between atoms: C_11  and  C_12
REMARK    7  A    between atoms: C_20  and  C_21
REMARK    8  A    between atoms: C_22  and  C_23
REMARK    9  A    between atoms: C_23  and  C_24
REMARK   10  A    between atoms: C_23  and  N_25
REMARK   11  A    between atoms: N_25  and  C_26
REMARK   12  A    between atoms: N_25  and  C_27
REMARK   13  A    between atoms: C_32  and  C_33
REMARK   14  A    between atoms: C_32  and  C_34
REMARK                            x       y       z     vdW  Elec       q    Type
REMARK                         _______ _______ _______ _____ _____    ______ ____
ROOT
ATOM      1  C   UNL     1      45.201 -16.909 -38.575  0.00  0.00    +0.026 C 
ATOM      2  C   UNL     1      43.803 -17.210 -39.157  0.00  0.00    -0.034 C 
ATOM      3  C   UNL     1      42.695 -17.228 -38.100  0.00  0.00    -0.045 C 
ATOM      4  C   UNL     1      42.991 -18.196 -36.918  0.00  0.00    -0.026 C 
ATOM      5  C   UNL     1      43.071 -19.634 -37.470  0.00  0.00    -0.059 C 
ATOM      6  C   UNL     1      44.364 -17.753 -36.322  0.00  0.00    -0.034 C 
ATOM      7  C   UNL     1      44.710 -18.541 -35.058  0.00  0.00    -0.049 C 
ATOM      8  C   UNL     1      43.663 -18.283 -33.979  0.00  0.00    -0.049 C 
ATOM      9  C   UNL     1      42.216 -18.604 -34.414  0.00  0.00    -0.034 C 
ATOM     10  C   UNL     1      41.881 -18.029 -35.804  0.00  0.00    -0.032 C 
ATOM     11  C   UNL     1      40.436 -18.422 -36.151  0.00  0.00    -0.049 C 
ATOM     12  C   UNL     1      40.151 -19.916 -36.144  0.00  0.00    -0.047 C 
ATOM     13  C   UNL     1      40.613 -20.708 -34.904  0.00  0.00    -0.025 C 
ATOM     14  C   UNL     1      40.975 -22.136 -35.413  0.00  0.00    -0.059 C 
ATOM     15  C   UNL     1      39.545 -20.931 -33.754  0.00  0.00    -0.020 C 
ATOM     16  C   UNL     1      40.041 -20.069 -32.601  0.00  0.00    -0.048 C 
ATOM     17  C   UNL     1      41.546 -20.291 -32.674  0.00  0.00    -0.049 C 
ATOM     18  C   UNL     1      41.872 -20.103 -34.175  0.00  0.00    -0.032 C 
ATOM     19  C   UNL     1      45.515 -17.785 -37.348  0.00  0.00    -0.031 C 
ENDROOT
BRANCH   1  22
ATOM     20  C   UNL     1      46.460 -17.979 -40.544  0.00  0.00    +0.239 C 
ATOM     21  O   UNL     1      47.480 -18.063 -41.227  0.00  0.00    -0.271 OA
ATOM     22  N   UNL     1      46.288 -16.979 -39.587  0.00  0.00    -0.298 N 
ATOM     23  C   UNL     1      47.248 -15.880 -39.634  0.00  0.00    +0.004 C 
BRANCH  20  26
ATOM     24  C   UNL     1      44.156 -21.113 -40.606  0.00  0.00    -0.043 C 
ATOM     25  C   UNL     1      45.387 -20.265 -40.389  0.00  0.00    -0.065 C 
ATOM     26  C   UNL     1      45.351 -18.960 -40.742  0.00  0.00    -0.000 C 
BRANCH  25  27
ATOM     27  C   UNL     1      46.593 -20.968 -39.761  0.00  0.00    -0.025 C 
ATOM     28  C   UNL     1      46.862 -22.361 -40.341  0.00  0.00    -0.059 C 
ATOM     29  C   UNL     1      46.437 -21.052 -38.239  0.00  0.00    -0.059 C 
ENDBRANCH  25  27
ENDBRANCH  20  26
ENDBRANCH   1  22
BRANCH  15  30
ATOM     30  C   UNL     1      38.019 -20.918 -34.075  0.00  0.00    +0.010 C 
ATOM     31  C   UNL     1      37.308 -22.064 -33.325  0.00  0.00    -0.049 C 
BRANCH  30  32
ATOM     32  N   UNL     1      37.353 -19.604 -33.927  0.00  0.00    -0.305 N 
ATOM     33  C   UNL     1      36.399 -19.507 -32.822  0.00  0.00    -0.013 C 
ATOM     34  C   UNL     1      36.669 -19.222 -35.171  0.00  0.00    -0.013 C 
ATOM     35  H   UNL     1      38.116 -18.962 -33.710  0.00  0.00    +0.000 HD
ENDBRANCH  30  32
ENDBRANCH  15  30
TORSDOF 5
ENDMDL
MODEL 17
REMARK VINA RESULT:    -7.026     21.914     24.924
REMARK INTER + INTRA:          -9.509
REMARK INTER:                  -8.270
REMARK INTRA:                  -1.240
REMARK UNBOUND:                -0.429
REMARK  Name = cpd187.pdb
REMARK  14 active torsions:
REMARK  status: ('A' for Active; 'I' for Inactive)
REMARK    1  A    between atoms: C_1  and  C_2
REMARK    2  A    between atoms: C_2  and  C_32
REMARK    3  A    between atoms: C_3  and  C_4
REMARK    4  A    between atoms: N_6  and  C_7
REMARK    5  A    between atoms: N_6  and  C_8
REMARK    6  A    between atoms: C_11  and  C_12
REMARK    7  A    between atoms: C_20  and  C_21
REMARK    8  A    between atoms: C_22  and  C_23
REMARK    9  A    between atoms: C_23  and  C_24
REMARK   10  A    between atoms: C_23  and  N_25
REMARK   11  A    between atoms: N_25  and  C_26
REMARK   12  A    between atoms: N_25  and  C_27
REMARK   13  A    between atoms: C_32  and  C_33
REMARK   14  A    between atoms: C_32  and  C_34
REMARK                            x       y       z     vdW  Elec       q    Type
REMARK                         _______ _______ _______ _____ _____    ______ ____
ROOT
ATOM      1  C   UNL     1      43.284 -18.235 -38.639  0.00  0.00    +0.026 C 
ATOM      2  C   UNL     1      44.693 -18.148 -38.014  0.00  0.00    -0.034 C 
ATOM      3  C   UNL     1      45.302 -16.744 -38.081  0.00  0.00    -0.045 C 
ATOM      4  C   UNL     1      45.328 -16.155 -39.521  0.00  0.00    -0.026 C 
ATOM      5  C   UNL     1      46.229 -17.048 -40.399  0.00  0.00    -0.059 C 
ATOM      6  C   UNL     1      43.854 -16.180 -40.033  0.00  0.00    -0.034 C 
ATOM      7  C   UNL     1      43.718 -15.497 -41.393  0.00  0.00    -0.049 C 
ATOM      8  C   UNL     1      44.116 -14.029 -41.283  0.00  0.00    -0.049 C 
ATOM      9  C   UNL     1      45.538 -13.800 -40.725  0.00  0.00    -0.034 C 
ATOM     10  C   UNL     1      45.819 -14.652 -39.472  0.00  0.00    -0.032 C 
ATOM     11  C   UNL     1      47.258 -14.371 -39.012  0.00  0.00    -0.049 C 
ATOM     12  C   UNL     1      48.335 -14.638 -40.052  0.00  0.00    -0.047 C 
ATOM     13  C   UNL     1      48.117 -14.030 -41.453  0.00  0.00    -0.025 C 
ATOM     14  C   UNL     1      48.781 -15.017 -42.460  0.00  0.00    -0.059 C 
ATOM     15  C   UNL     1      48.789 -12.624 -41.739  0.00  0.00    -0.020 C 
ATOM     16  C   UNL     1      47.618 -11.654 -41.833  0.00  0.00    -0.048 C 
ATOM     17  C   UNL     1      46.590 -12.485 -42.591  0.00  0.00    -0.049 C 
ATOM     18  C   UNL     1      46.605 -13.846 -41.856  0.00  0.00    -0.032 C 
ATOM     19  C   UNL     1      43.233 -17.591 -40.038  0.00  0.00    -0.031 C 
ENDROOT
BRANCH   1  22
ATOM     20  C   UNL     1      43.366 -20.753 -39.149  0.00  0.00    +0.239 C 
ATOM     21  O   UNL     1      42.777 -21.823 -39.290  0.00  0.00    -0.271 OA
ATOM     22  N   UNL     1      42.730 -19.615 -38.653  0.00  0.00    -0.298 N 
ATOM     23  C   UNL     1      41.418 -19.830 -38.050  0.00  0.00    +0.004 C 
BRANCH  20  26
ATOM     24  C   UNL     1      46.816 -20.569 -40.939  0.00  0.00    -0.043 C 
ATOM     25  C   UNL     1      45.329 -20.752 -40.746  0.00  0.00    -0.065 C 
ATOM     26  C   UNL     1      44.815 -20.652 -39.499  0.00  0.00    -0.000 C 
BRANCH  25  27
ATOM     27  C   UNL     1      44.510 -21.030 -42.009  0.00  0.00    -0.025 C 
ATOM     28  C   UNL     1      45.108 -22.125 -42.900  0.00  0.00    -0.059 C 
ATOM     29  C   UNL     1      44.312 -19.743 -42.817  0.00  0.00    -0.059 C 
ENDBRANCH  25  27
ENDBRANCH  20  26
ENDBRANCH   1  22
BRANCH  15  30
ATOM     30  C   UNL     1      50.053 -12.171 -40.945  0.00  0.00    +0.010 C 
ATOM     31  C   UNL     1      51.235 -11.947 -41.910  0.00  0.00    -0.049 C 
BRANCH  30  32
ATOM     32  N   UNL     1      49.836 -11.056 -39.996  0.00  0.00    -0.305 N 
ATOM     33  C   UNL     1      50.814  -9.969 -40.075  0.00  0.00    -0.013 C 
ATOM     34  C   UNL     1      49.796 -11.549 -38.611  0.00  0.00    -0.013 C 
ATOM     35  H   UNL     1      48.939 -10.661 -40.277  0.00  0.00    +0.000 HD
ENDBRANCH  30  32
ENDBRANCH  15  30
TORSDOF 5
ENDMDL
MODEL 18
REMARK VINA RESULT:    -6.954     16.662     20.187
REMARK INTER + INTRA:          -9.415
REMARK INTER:                  -8.130
REMARK INTRA:                  -1.285
REMARK UNBOUND:                -0.429
REMARK  Name = cpd187.pdb
REMARK  14 active torsions:
REMARK  status: ('A' for Active; 'I' for Inactive)
REMARK    1  A    between atoms: C_1  and  C_2
REMARK    2  A    between atoms: C_2  and  C_32
REMARK    3  A    between atoms: C_3  and  C_4
REMARK    4  A    between atoms: N_6  and  C_7
REMARK    5  A    between atoms: N_6  and  C_8
REMARK    6  A    between atoms: C_11  and  C_12
REMARK    7  A    between atoms: C_20  and  C_21
REMARK    8  A    between atoms: C_22  and  C_23
REMARK    9  A    between atoms: C_23  and  C_24
REMARK   10  A    between atoms: C_23  and  N_25
REMARK   11  A    between atoms: N_25  and  C_26
REMARK   12  A    between atoms: N_25  and  C_27
REMARK   13  A    between atoms: C_32  and  C_33
REMARK   14  A    between atoms: C_32  and  C_34
REMARK                            x       y       z     vdW  Elec       q    Type
REMARK                         _______ _______ _______ _____ _____    ______ ____
ROOT
ATOM      1  C   UNL     1      39.622 -20.584 -34.069  0.00  0.00    +0.026 C 
ATOM      2  C   UNL     1      39.430 -20.470 -35.597  0.00  0.00    -0.034 C 
ATOM      3  C   UNL     1      40.675 -20.864 -36.397  0.00  0.00    -0.045 C 
ATOM      4  C   UNL     1      41.952 -20.084 -35.968  0.00  0.00    -0.026 C 
ATOM      5  C   UNL     1      41.727 -18.584 -36.249  0.00  0.00    -0.059 C 
ATOM      6  C   UNL     1      42.130 -20.341 -34.439  0.00  0.00    -0.034 C 
ATOM      7  C   UNL     1      43.434 -19.740 -33.915  0.00  0.00    -0.049 C 
ATOM      8  C   UNL     1      44.626 -20.391 -34.608  0.00  0.00    -0.049 C 
ATOM      9  C   UNL     1      44.590 -20.294 -36.149  0.00  0.00    -0.034 C 
ATOM     10  C   UNL     1      43.211 -20.666 -36.727  0.00  0.00    -0.032 C 
ATOM     11  C   UNL     1      43.273 -20.516 -38.256  0.00  0.00    -0.049 C 
ATOM     12  C   UNL     1      43.670 -19.135 -38.756  0.00  0.00    -0.047 C 
ATOM     13  C   UNL     1      44.929 -18.501 -38.127  0.00  0.00    -0.025 C 
ATOM     14  C   UNL     1      44.682 -16.962 -38.125  0.00  0.00    -0.059 C 
ATOM     15  C   UNL     1      46.299 -18.707 -38.896  0.00  0.00    -0.020 C 
ATOM     16  C   UNL     1      47.101 -19.644 -38.004  0.00  0.00    -0.048 C 
ATOM     17  C   UNL     1      46.761 -19.115 -36.616  0.00  0.00    -0.049 C 
ATOM     18  C   UNL     1      45.222 -18.962 -36.649  0.00  0.00    -0.032 C 
ATOM     19  C   UNL     1      40.917 -19.896 -33.598  0.00  0.00    -0.031 C 
ENDROOT
BRANCH   1  22
ATOM     20  C   UNL     1      37.931 -18.819 -33.269  0.00  0.00    +0.239 C 
ATOM     21  O   UNL     1      37.068 -18.470 -32.466  0.00  0.00    -0.271 OA
ATOM     22  N   UNL     1      38.443 -20.117 -33.291  0.00  0.00    -0.298 N 
ATOM     23  C   UNL     1      37.706 -21.106 -32.511  0.00  0.00    +0.004 C 
BRANCH  20  26
ATOM     24  C   UNL     1      39.802 -15.975 -35.152  0.00  0.00    -0.043 C 
ATOM     25  C   UNL     1      39.329 -16.845 -34.012  0.00  0.00    -0.065 C 
ATOM     26  C   UNL     1      38.452 -17.842 -34.271  0.00  0.00    -0.000 C 
BRANCH  25  27
ATOM     27  C   UNL     1      39.906 -16.527 -32.631  0.00  0.00    -0.025 C 
ATOM     28  C   UNL     1      39.167 -15.398 -31.902  0.00  0.00    -0.059 C 
ATOM     29  C   UNL     1      41.400 -16.200 -32.731  0.00  0.00    -0.059 C 
ENDBRANCH  25  27
ENDBRANCH  20  26
ENDBRANCH   1  22
BRANCH  15  30
ATOM     30  C   UNL     1      46.314 -18.968 -40.434  0.00  0.00    +0.010 C 
ATOM     31  C   UNL     1      47.274 -17.982 -41.131  0.00  0.00    -0.049 C 
BRANCH  30  32
ATOM     32  N   UNL     1      46.513 -20.380 -40.833  0.00  0.00    -0.305 N 
ATOM     33  C   UNL     1      47.738 -20.649 -41.587  0.00  0.00    -0.013 C 
ATOM     34  C   UNL     1      45.367 -20.869 -41.613  0.00  0.00    -0.013 C 
ATOM     35  H   UNL     1      46.601 -20.878 -39.948  0.00  0.00    +0.000 HD
ENDBRANCH  30  32
ENDBRANCH  15  30
TORSDOF 5
ENDMDL
MODEL 19
REMARK VINA RESULT:    -6.819     16.264     19.815
REMARK INTER + INTRA:          -9.241
REMARK INTER:                  -9.740
REMARK INTRA:                   0.499
REMARK UNBOUND:                -0.429
REMARK  Name = cpd187.pdb
REMARK  14 active torsions:
REMARK  status: ('A' for Active; 'I' for Inactive)
REMARK    1  A    between atoms: C_1  and  C_2
REMARK    2  A    between atoms: C_2  and  C_32
REMARK    3  A    between atoms: C_3  and  C_4
REMARK    4  A    between atoms: N_6  and  C_7
REMARK    5  A    between atoms: N_6  and  C_8
REMARK    6  A    between atoms: C_11  and  C_12
REMARK    7  A    between atoms: C_20  and  C_21
REMARK    8  A    between atoms: C_22  and  C_23
REMARK    9  A    between atoms: C_23  and  C_24
REMARK   10  A    between atoms: C_23  and  N_25
REMARK   11  A    between atoms: N_25  and  C_26
REMARK   12  A    between atoms: N_25  and  C_27
REMARK   13  A    between atoms: C_32  and  C_33
REMARK   14  A    between atoms: C_32  and  C_34
REMARK                            x       y       z     vdW  Elec       q    Type
REMARK                         _______ _______ _______ _____ _____    ______ ____
ROOT
ATOM      1  C   UNL     1      40.647 -18.456 -34.840  0.00  0.00    +0.026 C 
ATOM      2  C   UNL     1      41.741 -19.525 -34.629  0.00  0.00    -0.034 C 
ATOM      3  C   UNL     1      42.988 -19.296 -35.486  0.00  0.00    -0.045 C 
ATOM      4  C   UNL     1      42.672 -19.160 -37.005  0.00  0.00    -0.026 C 
ATOM      5  C   UNL     1      42.059 -20.487 -37.497  0.00  0.00    -0.059 C 
ATOM      6  C   UNL     1      41.646 -17.992 -37.136  0.00  0.00    -0.034 C 
ATOM      7  C   UNL     1      41.354 -17.661 -38.600  0.00  0.00    -0.049 C 
ATOM      8  C   UNL     1      42.630 -17.200 -39.296  0.00  0.00    -0.049 C 
ATOM      9  C   UNL     1      43.794 -18.212 -39.213  0.00  0.00    -0.034 C 
ATOM     10  C   UNL     1      43.988 -18.766 -37.788  0.00  0.00    -0.032 C 
ATOM     11  C   UNL     1      45.148 -19.774 -37.818  0.00  0.00    -0.049 C 
ATOM     12  C   UNL     1      44.975 -20.933 -38.787  0.00  0.00    -0.047 C 
ATOM     13  C   UNL     1      44.568 -20.578 -40.233  0.00  0.00    -0.025 C 
ATOM     14  C   UNL     1      43.703 -21.770 -40.743  0.00  0.00    -0.059 C 
ATOM     15  C   UNL     1      45.737 -20.424 -41.292  0.00  0.00    -0.020 C 
ATOM     16  C   UNL     1      45.768 -18.935 -41.610  0.00  0.00    -0.048 C 
ATOM     17  C   UNL     1      44.283 -18.596 -41.649  0.00  0.00    -0.049 C 
ATOM     18  C   UNL     1      43.724 -19.255 -40.366  0.00  0.00    -0.032 C 
ATOM     19  C   UNL     1      40.350 -18.222 -36.333  0.00  0.00    -0.031 C 
ENDROOT
BRANCH   1  22
ATOM     20  C   UNL     1      38.452 -19.708 -34.364  0.00  0.00    +0.239 C 
ATOM     21  O   UNL     1      37.364 -19.754 -33.793  0.00  0.00    -0.271 OA
ATOM     22  N   UNL     1      39.402 -18.729 -34.073  0.00  0.00    -0.298 N 
ATOM     23  C   UNL     1      39.157 -17.941 -32.868  0.00  0.00    +0.004 C 
BRANCH  20  26
ATOM     24  C   UNL     1      39.320 -22.959 -36.316  0.00  0.00    -0.043 C 
ATOM     25  C   UNL     1      39.045 -22.038 -35.151  0.00  0.00    -0.065 C 
ATOM     26  C   UNL     1      38.793 -20.732 -35.396  0.00  0.00    -0.000 C 
BRANCH  25  27
ATOM     27  C   UNL     1      39.062 -22.679 -33.761  0.00  0.00    -0.025 C 
ATOM     28  C   UNL     1      40.466 -22.800 -33.158  0.00  0.00    -0.059 C 
ATOM     29  C   UNL     1      38.381 -24.051 -33.790  0.00  0.00    -0.059 C 
ENDBRANCH  25  27
ENDBRANCH  20  26
ENDBRANCH   1  22
BRANCH  15  30
ATOM     30  C   UNL     1      47.097 -21.157 -41.084  0.00  0.00    +0.010 C 
ATOM     31  C   UNL     1      47.157 -21.779 -39.674  0.00  0.00    -0.049 C 
BRANCH  30  32
ATOM     32  N   UNL     1      47.482 -22.092 -42.166  0.00  0.00    -0.305 N 
ATOM     33  C   UNL     1      46.399 -22.930 -42.683  0.00  0.00    -0.013 C 
ATOM     34  C   UNL     1      48.583 -22.966 -41.735  0.00  0.00    -0.013 C 
ATOM     35  H   UNL     1      47.769 -21.482 -42.931  0.00  0.00    +0.000 HD
ENDBRANCH  30  32
ENDBRANCH  15  30
TORSDOF 5
ENDMDL
MODEL 20
REMARK VINA RESULT:    -6.654     15.802     17.961
REMARK INTER + INTRA:          -9.028
REMARK INTER:                  -7.742
REMARK INTRA:                  -1.286
REMARK UNBOUND:                -0.429
REMARK  Name = cpd187.pdb
REMARK  14 active torsions:
REMARK  status: ('A' for Active; 'I' for Inactive)
REMARK    1  A    between atoms: C_1  and  C_2
REMARK    2  A    between atoms: C_2  and  C_32
REMARK    3  A    between atoms: C_3  and  C_4
REMARK    4  A    between atoms: N_6  and  C_7
REMARK    5  A    between atoms: N_6  and  C_8
REMARK    6  A    between atoms: C_11  and  C_12
REMARK    7  A    between atoms: C_20  and  C_21
REMARK    8  A    between atoms: C_22  and  C_23
REMARK    9  A    between atoms: C_23  and  C_24
REMARK   10  A    between atoms: C_23  and  N_25
REMARK   11  A    between atoms: N_25  and  C_26
REMARK   12  A    between atoms: N_25  and  C_27
REMARK   13  A    between atoms: C_32  and  C_33
REMARK   14  A    between atoms: C_32  and  C_34
REMARK                            x       y       z     vdW  Elec       q    Type
REMARK                         _______ _______ _______ _____ _____    ______ ____
ROOT
ATOM      1  C   UNL     1      44.877 -18.539 -34.654  0.00  0.00    +0.026 C 
ATOM      2  C   UNL     1      43.965 -17.327 -34.949  0.00  0.00    -0.034 C 
ATOM      3  C   UNL     1      42.680 -17.318 -34.117  0.00  0.00    -0.045 C 
ATOM      4  C   UNL     1      41.859 -18.635 -34.241  0.00  0.00    -0.026 C 
ATOM      5  C   UNL     1      41.412 -18.797 -35.708  0.00  0.00    -0.059 C 
ATOM      6  C   UNL     1      42.821 -19.791 -33.822  0.00  0.00    -0.034 C 
ATOM      7  C   UNL     1      42.095 -21.135 -33.766  0.00  0.00    -0.049 C 
ATOM      8  C   UNL     1      40.988 -21.088 -32.718  0.00  0.00    -0.049 C 
ATOM      9  C   UNL     1      39.964 -19.952 -32.933  0.00  0.00    -0.034 C 
ATOM     10  C   UNL     1      40.643 -18.601 -33.231  0.00  0.00    -0.032 C 
ATOM     11  C   UNL     1      39.544 -17.548 -33.450  0.00  0.00    -0.049 C 
ATOM     12  C   UNL     1      38.553 -17.867 -34.558  0.00  0.00    -0.047 C 
ATOM     13  C   UNL     1      37.919 -19.274 -34.544  0.00  0.00    -0.025 C 
ATOM     14  C   UNL     1      37.663 -19.647 -36.035  0.00  0.00    -0.059 C 
ATOM     15  C   UNL     1      36.514 -19.422 -33.827  0.00  0.00    -0.020 C 
ATOM     16  C   UNL     1      36.809 -20.236 -32.574  0.00  0.00    -0.048 C 
ATOM     17  C   UNL     1      37.818 -21.251 -33.096  0.00  0.00    -0.049 C 
ATOM     18  C   UNL     1      38.824 -20.389 -33.896  0.00  0.00    -0.032 C 
ATOM     19  C   UNL     1      44.098 -19.867 -34.683  0.00  0.00    -0.031 C 
ENDROOT
BRANCH   1  22
ATOM     20  C   UNL     1      46.103 -18.463 -36.912  0.00  0.00    +0.239 C 
ATOM     21  O   UNL     1      47.111 -18.699 -37.577  0.00  0.00    -0.271 OA
ATOM     22  N   UNL     1      46.082 -18.594 -35.524  0.00  0.00    -0.298 N 
ATOM     23  C   UNL     1      47.382 -18.748 -34.878  0.00  0.00    +0.004 C 
BRANCH  20  26
ATOM     24  C   UNL     1      42.746 -18.190 -38.859  0.00  0.00    -0.043 C 
ATOM     25  C   UNL     1      43.997 -18.800 -38.275  0.00  0.00    -0.065 C 
ATOM     26  C   UNL     1      44.855 -18.006 -37.593  0.00  0.00    -0.000 C 
BRANCH  25  27
ATOM     27  C   UNL     1      44.187 -20.303 -38.497  0.00  0.00    -0.025 C 
ATOM     28  C   UNL     1      44.748 -20.652 -39.880  0.00  0.00    -0.059 C 
ATOM     29  C   UNL     1      42.874 -21.054 -38.255  0.00  0.00    -0.059 C 
ENDBRANCH  25  27
ENDBRANCH  20  26
ENDBRANCH   1  22
BRANCH  15  30
ATOM     30  C   UNL     1      35.557 -18.197 -33.696  0.00  0.00    +0.010 C 
ATOM     31  C   UNL     1      34.310 -18.400 -34.583  0.00  0.00    -0.049 C 
BRANCH  30  32
ATOM     32  N   UNL     1      35.243 -17.786 -32.308  0.00  0.00    -0.305 N 
ATOM     33  C   UNL     1      33.845 -17.426 -32.064  0.00  0.00    -0.013 C 
ATOM     34  C   UNL     1      36.094 -16.662 -31.891  0.00  0.00    -0.013 C 
ATOM     35  H   UNL     1      35.429 -18.621 -31.754  0.00  0.00    +0.000 HD
ENDBRANCH  30  32
ENDBRANCH  15  30
TORSDOF 5
ENDMDL
