@<TRIPOS>MOLECULE
*****
 34 37 0 0 0
SMALL
GASTEIGER

@<TRIPOS>ATOM
      1 C           0.9922   -3.3176    0.0000 C.3     1  UNL1        0.0265
      2 C           1.6472   -2.5896    0.0000 C.2     1  UNL1       -0.0397
      3 C           1.3441   -1.6584    0.0000 C.2     1  UNL1        0.0495
      4 C           1.9991   -0.9304    0.0000 C.2     1  UNL1        0.2485
      5 O           2.9571   -1.1336    0.0000 O.2     1  UNL1       -0.2699
      6 N           1.6961    0.0008    0.0000 N.am    1  UNL1       -0.2760
      7 C           2.3510    0.7289    0.0000 C.3     1  UNL1        0.1151
      8 C           0.8478    0.4901    0.0000 C.3     1  UNL1        0.0757
      9 C           0.8475    1.4699    0.0000 C.3     1  UNL1        0.0198
     10 C          -0.0006    1.9595    0.0000 C.3     1  UNL1        0.0017
     11 C          -0.8484    1.4694    0.0000 C.3     1  UNL1        0.0001
     12 C          -0.8486    2.4727    0.0000 C.3     1  UNL1        0.0000
     13 C          -0.8481    0.4896    0.0000 C.3     1  UNL1        0.0016
     14 C          -1.6965   -0.0005    0.0000 C.3     1  UNL1        0.0001
     15 C          -2.5451    0.4892    0.0000 C.3     1  UNL1        0.0000
     16 C          -2.5454    1.4689    0.0000 C.3     1  UNL1        0.0000
     17 C          -1.6970    1.9590    0.0000 C.3     1  UNL1        0.0000
     18 C          -1.6973    2.9382    0.0000 C.3     1  UNL1        0.0000
     19 C          -2.5460    3.4278    0.0000 C.3     1  UNL1        0.0000
     20 C          -3.3944    2.9377    0.0000 C.3     1  UNL1        0.0012
     21 C          -3.3947    3.9410    0.0000 C.3     1  UNL1        0.0000
     22 C          -4.2430    3.4274    0.0000 C.3     1  UNL1        0.0147
     23 C          -4.2433    4.4061    0.0000 C.3     1  UNL1        0.0576
     24 C          -5.2221    4.4058    0.0000 C.3     1  UNL1        0.0173
     25 N          -3.7542    5.2539    0.0000 N.3     1  UNL1       -0.2716
     26 C          -4.2438    6.1014    0.0000 C.3     1  UNL1        0.0896
     27 C          -2.7754    5.2542    0.0000 C.3     1  UNL1        0.0896
     28 C          -5.0902    2.9372    0.0000 C.3     1  UNL1        0.0013
     29 C          -5.0900    1.9581    0.0000 C.3     1  UNL1        0.0000
     30 C          -3.3941    1.9585    0.0000 C.3     1  UNL1        0.0000
     31 C           0.0000   -0.0000    0.0000 C.3     1  UNL1        0.0198
     32 C           2.6051   -2.7928    0.0000 C.3     1  UNL1        0.0185
     33 C           2.9081   -3.7240    0.0000 C.3     1  UNL1        0.0044
     34 C           3.2601   -2.0648    0.0000 C.3     1  UNL1        0.0044
@<TRIPOS>BOND
     1     1     2    1
     2     2     3    2
     3     3     4    1
     4     4     5    2
     5     4     6   am
     6     6     7    1
     7     6     8    1
     8     8     9    1
     9     9    10    1
    10    10    11    1
    11    11    12    1
    12    11    13    1
    13    13    14    1
    14    14    15    1
    15    15    16    1
    16    16    17    1
    17    11    17    1
    18    17    18    1
    19    18    19    1
    20    19    20    1
    21    20    21    1
    22    20    22    1
    23    22    23    1
    24    23    24    1
    25    23    25    1
    26    25    26    1
    27    25    27    1
    28    22    28    1
    29    28    29    1
    30    29    30    1
    31    16    30    1
    32    20    30    1
    33    13    31    1
    34     8    31    1
    35     2    32    1
    36    32    33    1
    37    32    34    1
