REMARK  Name = cpd28.pdb
REMARK  19 active torsions:
REMARK  status: ('A' for Active; 'I' for Inactive)
REMARK    1  A    between atoms: C_1  and  C_2
REMARK    2  A    between atoms: C_6  and  N_7
REMARK    3  A    between atoms: N_7  and  C_8
REMARK    4  A    between atoms: C_13  and  C_14
REMARK    5  A    between atoms: N_16  and  C_17
REMARK    6  A    between atoms: C_17  and  C_18
REMARK    7  A    between atoms: C_18  and  C_19
REMARK    8  A    between atoms: C_19  and  C_20
REMARK    9  A    between atoms: C_20  and  C_21
REMARK   10  A    between atoms: C_21  and  C_22
REMARK   11  A    between atoms: C_22  and  C_23
REMARK   12  A    between atoms: C_23  and  C_24
REMARK   13  A    between atoms: C_24  and  C_25
REMARK   14  A    between atoms: C_25  and  C_26
REMARK   15  A    between atoms: C_26  and  C_27
REMARK   16  A    between atoms: C_27  and  C_28
REMARK   17  A    between atoms: C_28  and  N_29
REMARK   18  A    between atoms: N_29  and  C_30
REMARK   19  A    between atoms: C_44  and  C_45
REMARK                            x       y       z     vdW  Elec       q    Type
REMARK                         _______ _______ _______ _____ _____    ______ ____
ROOT
ATOM      1  C   UNL A   1       6.101   5.868  -0.284  0.00  0.00    -0.053 C 
ENDROOT
BRANCH   1   2
ATOM      2  C   UNL A   1       5.305   4.627  -0.703  0.00  0.00    -0.052 C 
BRANCH   2   3
ATOM      3  C   UNL A   1       4.115   4.384   0.231  0.00  0.00    -0.037 C 
BRANCH   3   4
ATOM      4  C   UNL A   1       3.348   3.105  -0.114  0.00  0.00    +0.012 C 
BRANCH   4   7
ATOM      5  C   UNL A   1       1.608   3.805  -1.820  0.00  0.00    +0.246 C 
ATOM      6  O   UNL A   1       1.393   4.050  -3.003  0.00  0.00    -0.270 OA
ATOM      7  N   UNL A   1       2.754   3.150  -1.441  0.00  0.00    -0.311 N 
ATOM      8  H   UNL A   1       3.227   2.655  -2.148  0.00  0.00    +0.000 HD
BRANCH   5  14
ATOM      9  C   UNL A   1      -0.099   3.270  -0.042  0.00  0.00    +0.044 A 
ATOM     10  C   UNL A   1      -0.987   3.764   0.928  0.00  0.00    -0.040 A 
ATOM     11  C   UNL A   1      -1.201   5.137   1.086  0.00  0.00    -0.060 A 
ATOM     12  C   UNL A   1      -0.519   6.050   0.286  0.00  0.00    -0.061 A 
ATOM     13  C   UNL A   1       0.396   5.590  -0.658  0.00  0.00    -0.048 A 
ATOM     14  C   UNL A   1       0.627   4.213  -0.795  0.00  0.00    +0.058 A 
BRANCH   9  15
ATOM     15  N   UNL A   1       0.126   1.873  -0.165  0.00  0.00    -0.314 N 
ATOM     16  H   UNL A   1       1.042   1.598  -0.397  0.00  0.00    +0.000 HD
BRANCH  15  22
ATOM     17  C   UNL A   1      -0.889  -2.896   0.952  0.00  0.00    -0.039 C 
ATOM     18  C   UNL A   1      -1.300  -1.522   0.497  0.00  0.00    -0.046 A 
ATOM     19  C   UNL A   1      -2.636  -1.309   0.123  0.00  0.00    -0.058 A 
ATOM     20  C   UNL A   1      -3.059  -0.062  -0.324  0.00  0.00    -0.060 A 
ATOM     21  C   UNL A   1      -2.153   0.993  -0.397  0.00  0.00    -0.040 A 
ATOM     22  C   UNL A   1      -0.820   0.827   0.008  0.00  0.00    +0.035 A 
ATOM     23  C   UNL A   1      -0.384  -0.443   0.455  0.00  0.00    -0.026 A 
ATOM     24  C   UNL A   1       1.062  -0.650   0.839  0.00  0.00    -0.038 C 
ENDBRANCH  15  22
ENDBRANCH   9  15
ENDBRANCH   5  14
ENDBRANCH   4   7
ENDBRANCH   3   4
ENDBRANCH   2   3
ENDBRANCH   1   2
BRANCH   1  25
ATOM     25  C   UNL A   1       7.255   6.191  -1.240  0.00  0.00    -0.053 C 
BRANCH  25  26
ATOM     26  C   UNL A   1       8.623   5.637  -0.827  0.00  0.00    -0.053 C 
BRANCH  26  27
ATOM     27  C   UNL A   1       8.680   4.115  -0.717  0.00  0.00    -0.053 C 
BRANCH  27  28
ATOM     28  C   UNL A   1      10.118   3.615  -0.551  0.00  0.00    -0.053 C 
BRANCH  28  29
ATOM     29  C   UNL A   1      10.147   2.105  -0.313  0.00  0.00    -0.053 C 
BRANCH  29  30
ATOM     30  C   UNL A   1      11.550   1.489  -0.325  0.00  0.00    -0.052 C 
BRANCH  30  31
ATOM     31  C   UNL A   1      12.499   2.045   0.741  0.00  0.00    -0.037 C 
BRANCH  31  32
ATOM     32  C   UNL A   1      13.483   3.071   0.171  0.00  0.00    +0.009 C 
BRANCH  32  33
ATOM     33  N   UNL A   1      14.321   3.589   1.263  0.00  0.00    -0.343 N 
ATOM     34  H   UNL A   1      14.207   3.351   2.212  0.00  0.00    +0.000 HD
BRANCH  33  35
ATOM     35  C   UNL A   1      15.322   4.482   0.769  0.00  0.00    +0.041 A 
ATOM     36  C   UNL A   1      15.027   5.858   0.708  0.00  0.00    -0.005 A 
ATOM     37  C   UNL A   1      16.006   6.707   0.190  0.00  0.00    +0.047 A 
ATOM     38  N   UNL A   1      17.191   6.264  -0.293  0.00  0.00    -0.251 NA
ATOM     39  C   UNL A   1      17.462   4.953  -0.253  0.00  0.00    +0.073 A 
ATOM     40  C   UNL A   1      18.687   4.531  -0.752  0.00  0.00    -0.036 A 
ATOM     41  C   UNL A   1      19.061   3.186  -0.759  0.00  0.00    -0.060 A 
ATOM     42  C   UNL A   1      18.190   2.233  -0.255  0.00  0.00    -0.061 A 
ATOM     43  C   UNL A   1      16.954   2.633   0.253  0.00  0.00    -0.051 A 
ATOM     44  C   UNL A   1      16.564   3.999   0.266  0.00  0.00    +0.021 A 
ATOM     45  C   UNL A   1      15.788   8.194   0.079  0.00  0.00    -0.010 C 
ATOM     46  C   UNL A   1      14.702   8.715   1.013  0.00  0.00    -0.047 C 
ATOM     47  C   UNL A   1      13.454   7.855   0.884  0.00  0.00    -0.049 C 
ATOM     48  C   UNL A   1      13.751   6.413   1.296  0.00  0.00    -0.024 C 
ENDBRANCH  33  35
ENDBRANCH  32  33
ENDBRANCH  31  32
ENDBRANCH  30  31
ENDBRANCH  29  30
ENDBRANCH  28  29
ENDBRANCH  27  28
ENDBRANCH  26  27
ENDBRANCH  25  26
ENDBRANCH   1  25
TORSDOF 17
