MODEL 1
REMARK VINA RESULT:    -6.381      0.000      0.000
REMARK INTER + INTRA:         -19.524
REMARK INTER:                 -12.722
REMARK INTRA:                  -6.801
REMARK UNBOUND:                -6.801
REMARK  Name = cpd28.pdb
REMARK  19 active torsions:
REMARK  status: ('A' for Active; 'I' for Inactive)
REMARK    1  A    between atoms: C_1  and  C_2
REMARK    2  A    between atoms: C_6  and  N_7
REMARK    3  A    between atoms: N_7  and  C_8
REMARK    4  A    between atoms: C_13  and  C_14
REMARK    5  A    between atoms: N_16  and  C_17
REMARK    6  A    between atoms: C_17  and  C_18
REMARK    7  A    between atoms: C_18  and  C_19
REMARK    8  A    between atoms: C_19  and  C_20
REMARK    9  A    between atoms: C_20  and  C_21
REMARK   10  A    between atoms: C_21  and  C_22
REMARK   11  A    between atoms: C_22  and  C_23
REMARK   12  A    between atoms: C_23  and  C_24
REMARK   13  A    between atoms: C_24  and  C_25
REMARK   14  A    between atoms: C_25  and  C_26
REMARK   15  A    between atoms: C_26  and  C_27
REMARK   16  A    between atoms: C_27  and  C_28
REMARK   17  A    between atoms: C_28  and  N_29
REMARK   18  A    between atoms: N_29  and  C_30
REMARK   19  A    between atoms: C_44  and  C_45
REMARK                            x       y       z     vdW  Elec       q    Type
REMARK                         _______ _______ _______ _____ _____    ______ ____
ROOT
ATOM      1  C   UNL A   1      42.794 -16.087 -35.277  0.00  0.00    -0.053 C 
ENDROOT
BRANCH   1   2
ATOM      2  C   UNL A   1      43.285 -15.450 -36.582  0.00  0.00    -0.052 C 
BRANCH   2   3
ATOM      3  C   UNL A   1      42.705 -16.165 -37.807  0.00  0.00    -0.037 C 
BRANCH   3   4
ATOM      4  C   UNL A   1      43.787 -16.799 -38.684  0.00  0.00    +0.012 C 
BRANCH   4   7
ATOM      5  C   UNL A   1      46.267 -16.667 -38.172  0.00  0.00    +0.246 C 
ATOM      6  O   UNL A   1      47.324 -16.101 -38.432  0.00  0.00    -0.270 OA
ATOM      7  N   UNL A   1      45.070 -16.123 -38.568  0.00  0.00    -0.311 N 
ATOM      8  H   UNL A   1      45.081 -15.166 -38.799  0.00  0.00    +0.000 HD
BRANCH   5  14
ATOM      9  C   UNL A   1      46.571 -19.168 -38.051  0.00  0.00    +0.044 A 
ATOM     10  C   UNL A   1      46.584 -20.317 -37.243  0.00  0.00    -0.040 A 
ATOM     11  C   UNL A   1      46.243 -20.257 -35.888  0.00  0.00    -0.060 A 
ATOM     12  C   UNL A   1      45.896 -19.042 -35.305  0.00  0.00    -0.061 A 
ATOM     13  C   UNL A   1      45.912 -17.880 -36.073  0.00  0.00    -0.048 A 
ATOM     14  C   UNL A   1      46.279 -17.940 -37.425  0.00  0.00    +0.058 A 
BRANCH   9  15
ATOM     15  N   UNL A   1      46.949 -19.246 -39.418  0.00  0.00    -0.314 N 
ATOM     16  H   UNL A   1      47.798 -18.811 -39.660  0.00  0.00    +0.000 HD
BRANCH  15  22
ATOM     17  C   UNL A   1      46.449 -23.071 -42.602  0.00  0.00    -0.039 C 
ATOM     18  C   UNL A   1      46.041 -21.725 -42.069  0.00  0.00    -0.046 A 
ATOM     19  C   UNL A   1      45.007 -21.031 -42.716  0.00  0.00    -0.058 A 
ATOM     20  C   UNL A   1      44.608 -19.774 -42.273  0.00  0.00    -0.060 A 
ATOM     21  C   UNL A   1      45.233 -19.196 -41.172  0.00  0.00    -0.040 A 
ATOM     22  C   UNL A   1      46.242 -19.879 -40.475  0.00  0.00    +0.035 A 
ATOM     23  C   UNL A   1      46.656 -21.154 -40.928  0.00  0.00    -0.026 A 
ATOM     24  C   UNL A   1      47.781 -21.875 -40.223  0.00  0.00    -0.038 C 
ENDBRANCH  15  22
ENDBRANCH   9  15
ENDBRANCH   5  14
ENDBRANCH   4   7
ENDBRANCH   3   4
ENDBRANCH   2   3
ENDBRANCH   1   2
BRANCH   1  25
ATOM     25  C   UNL A   1      41.843 -17.268 -35.507  0.00  0.00    -0.053 C 
BRANCH  25  26
ATOM     26  C   UNL A   1      42.007 -18.440 -34.534  0.00  0.00    -0.053 C 
BRANCH  26  27
ATOM     27  C   UNL A   1      42.439 -19.749 -35.190  0.00  0.00    -0.053 C 
BRANCH  27  28
ATOM     28  C   UNL A   1      42.507 -19.621 -36.714  0.00  0.00    -0.053 C 
BRANCH  28  29
ATOM     29  C   UNL A   1      42.757 -20.981 -37.366  0.00  0.00    -0.053 C 
BRANCH  29  30
ATOM     30  C   UNL A   1      42.953 -20.928 -38.885  0.00  0.00    -0.052 C 
BRANCH  30  31
ATOM     31  C   UNL A   1      41.854 -21.625 -39.693  0.00  0.00    -0.037 C 
BRANCH  31  32
ATOM     32  C   UNL A   1      40.942 -22.490 -38.818  0.00  0.00    +0.009 C 
BRANCH  32  33
ATOM     33  N   UNL A   1      39.568 -21.974 -38.901  0.00  0.00    -0.343 N 
ATOM     34  H   UNL A   1      38.910 -22.250 -39.580  0.00  0.00    +0.000 HD
BRANCH  33  35
ATOM     35  C   UNL A   1      39.309 -21.019 -37.869  0.00  0.00    +0.041 A 
ATOM     36  C   UNL A   1      39.125 -21.483 -36.552  0.00  0.00    -0.005 A 
ATOM     37  C   UNL A   1      38.840 -20.537 -35.567  0.00  0.00    +0.047 A 
ATOM     38  N   UNL A   1      38.688 -19.217 -35.828  0.00  0.00    -0.251 NA
ATOM     39  C   UNL A   1      38.844 -18.780 -37.085  0.00  0.00    +0.073 A 
ATOM     40  C   UNL A   1      38.686 -17.420 -37.320  0.00  0.00    -0.036 A 
ATOM     41  C   UNL A   1      38.823 -16.868 -38.594  0.00  0.00    -0.060 A 
ATOM     42  C   UNL A   1      39.126 -17.692 -39.667  0.00  0.00    -0.061 A 
ATOM     43  C   UNL A   1      39.291 -19.061 -39.455  0.00  0.00    -0.051 A 
ATOM     44  C   UNL A   1      39.154 -19.634 -38.162  0.00  0.00    +0.021 A 
ATOM     45  C   UNL A   1      38.622 -20.931 -34.128  0.00  0.00    -0.010 C 
ATOM     46  C   UNL A   1      39.232 -22.282 -33.775  0.00  0.00    -0.047 C 
ATOM     47  C   UNL A   1      38.824 -23.319 -34.811  0.00  0.00    -0.049 C 
ATOM     48  C   UNL A   1      39.351 -22.933 -36.193  0.00  0.00    -0.024 C 
ENDBRANCH  33  35
ENDBRANCH  32  33
ENDBRANCH  31  32
ENDBRANCH  30  31
ENDBRANCH  29  30
ENDBRANCH  28  29
ENDBRANCH  27  28
ENDBRANCH  26  27
ENDBRANCH  25  26
ENDBRANCH   1  25
TORSDOF 17
ENDMDL
MODEL 2
REMARK VINA RESULT:    -6.178      1.807      3.587
REMARK INTER + INTRA:         -19.119
REMARK INTER:                 -13.405
REMARK INTRA:                  -5.714
REMARK UNBOUND:                -6.801
REMARK  Name = cpd28.pdb
REMARK  19 active torsions:
REMARK  status: ('A' for Active; 'I' for Inactive)
REMARK    1  A    between atoms: C_1  and  C_2
REMARK    2  A    between atoms: C_6  and  N_7
REMARK    3  A    between atoms: N_7  and  C_8
REMARK    4  A    between atoms: C_13  and  C_14
REMARK    5  A    between atoms: N_16  and  C_17
REMARK    6  A    between atoms: C_17  and  C_18
REMARK    7  A    between atoms: C_18  and  C_19
REMARK    8  A    between atoms: C_19  and  C_20
REMARK    9  A    between atoms: C_20  and  C_21
REMARK   10  A    between atoms: C_21  and  C_22
REMARK   11  A    between atoms: C_22  and  C_23
REMARK   12  A    between atoms: C_23  and  C_24
REMARK   13  A    between atoms: C_24  and  C_25
REMARK   14  A    between atoms: C_25  and  C_26
REMARK   15  A    between atoms: C_26  and  C_27
REMARK   16  A    between atoms: C_27  and  C_28
REMARK   17  A    between atoms: C_28  and  N_29
REMARK   18  A    between atoms: N_29  and  C_30
REMARK   19  A    between atoms: C_44  and  C_45
REMARK                            x       y       z     vdW  Elec       q    Type
REMARK                         _______ _______ _______ _____ _____    ______ ____
ROOT
ATOM      1  C   UNL A   1      42.979 -16.757 -36.312  0.00  0.00    -0.053 C 
ENDROOT
BRANCH   1   2
ATOM      2  C   UNL A   1      42.243 -18.100 -36.387  0.00  0.00    -0.052 C 
BRANCH   2   3
ATOM      3  C   UNL A   1      43.118 -19.247 -35.873  0.00  0.00    -0.037 C 
BRANCH   3   4
ATOM      4  C   UNL A   1      44.145 -18.786 -34.836  0.00  0.00    +0.012 C 
BRANCH   4   7
ATOM      5  C   UNL A   1      46.525 -19.566 -35.227  0.00  0.00    +0.246 C 
ATOM      6  O   UNL A   1      47.460 -20.223 -34.779  0.00  0.00    -0.270 OA
ATOM      7  N   UNL A   1      45.262 -19.708 -34.707  0.00  0.00    -0.311 N 
ATOM      8  H   UNL A   1      45.094 -20.526 -34.187  0.00  0.00    +0.000 HD
BRANCH   5  14
ATOM      9  C   UNL A   1      46.873 -19.049 -37.671  0.00  0.00    +0.044 A 
ATOM     10  C   UNL A   1      47.065 -18.062 -38.652  0.00  0.00    -0.040 A 
ATOM     11  C   UNL A   1      47.213 -16.715 -38.310  0.00  0.00    -0.060 A 
ATOM     12  C   UNL A   1      47.157 -16.320 -36.976  0.00  0.00    -0.061 A 
ATOM     13  C   UNL A   1      46.931 -17.271 -35.984  0.00  0.00    -0.048 A 
ATOM     14  C   UNL A   1      46.757 -18.618 -36.335  0.00  0.00    +0.058 A 
BRANCH   9  15
ATOM     15  N   UNL A   1      46.695 -20.408 -38.043  0.00  0.00    -0.314 N 
ATOM     16  H   UNL A   1      47.086 -21.080 -37.439  0.00  0.00    +0.000 HD
BRANCH  15  22
ATOM     17  C   UNL A   1      46.760 -23.040 -42.296  0.00  0.00    -0.039 C 
ATOM     18  C   UNL A   1      46.075 -22.147 -41.297  0.00  0.00    -0.046 A 
ATOM     19  C   UNL A   1      44.771 -21.708 -41.570  0.00  0.00    -0.058 A 
ATOM     20  C   UNL A   1      44.104 -20.866 -40.687  0.00  0.00    -0.060 A 
ATOM     21  C   UNL A   1      44.731 -20.456 -39.513  0.00  0.00    -0.040 A 
ATOM     22  C   UNL A   1      46.018 -20.909 -39.187  0.00  0.00    +0.035 A 
ATOM     23  C   UNL A   1      46.703 -21.759 -40.088  0.00  0.00    -0.026 A 
ATOM     24  C   UNL A   1      48.111 -22.207 -39.777  0.00  0.00    -0.038 C 
ENDBRANCH  15  22
ENDBRANCH   9  15
ENDBRANCH   5  14
ENDBRANCH   4   7
ENDBRANCH   3   4
ENDBRANCH   2   3
ENDBRANCH   1   2
BRANCH   1  25
ATOM     25  C   UNL A   1      43.228 -16.132 -37.689  0.00  0.00    -0.053 C 
BRANCH  25  26
ATOM     26  C   UNL A   1      43.572 -17.123 -38.807  0.00  0.00    -0.053 C 
BRANCH  26  27
ATOM     27  C   UNL A   1      42.511 -17.234 -39.899  0.00  0.00    -0.053 C 
BRANCH  27  28
ATOM     28  C   UNL A   1      41.595 -16.007 -39.922  0.00  0.00    -0.053 C 
BRANCH  28  29
ATOM     29  C   UNL A   1      40.129 -16.417 -39.780  0.00  0.00    -0.053 C 
BRANCH  29  30
ATOM     30  C   UNL A   1      39.466 -15.957 -38.477  0.00  0.00    -0.052 C 
BRANCH  30  31
ATOM     31  C   UNL A   1      38.140 -16.652 -38.157  0.00  0.00    -0.037 C 
BRANCH  31  32
ATOM     32  C   UNL A   1      38.196 -17.446 -36.848  0.00  0.00    +0.009 C 
BRANCH  32  33
ATOM     33  N   UNL A   1      37.440 -18.697 -37.013  0.00  0.00    -0.343 N 
ATOM     34  H   UNL A   1      36.559 -18.760 -37.449  0.00  0.00    +0.000 HD
BRANCH  33  35
ATOM     35  C   UNL A   1      38.150 -19.808 -36.460  0.00  0.00    +0.041 A 
ATOM     36  C   UNL A   1      37.806 -20.252 -35.168  0.00  0.00    -0.005 A 
ATOM     37  C   UNL A   1      38.535 -21.315 -34.635  0.00  0.00    +0.047 A 
ATOM     38  N   UNL A   1      39.574 -21.899 -35.278  0.00  0.00    -0.251 NA
ATOM     39  C   UNL A   1      39.912 -21.462 -36.499  0.00  0.00    +0.073 A 
ATOM     40  C   UNL A   1      40.979 -22.084 -37.134  0.00  0.00    -0.036 A 
ATOM     41  C   UNL A   1      41.411 -21.699 -38.404  0.00  0.00    -0.060 A 
ATOM     42  C   UNL A   1      40.763 -20.665 -39.062  0.00  0.00    -0.061 A 
ATOM     43  C   UNL A   1      39.688 -20.026 -38.444  0.00  0.00    -0.051 A 
ATOM     44  C   UNL A   1      39.239 -20.411 -37.152  0.00  0.00    +0.021 A 
ATOM     45  C   UNL A   1      38.248 -21.862 -33.260  0.00  0.00    -0.010 C 
ATOM     46  C   UNL A   1      36.846 -21.535 -32.762  0.00  0.00    -0.047 C 
ATOM     47  C   UNL A   1      36.562 -20.053 -32.953  0.00  0.00    -0.049 C 
ATOM     48  C   UNL A   1      36.613 -19.684 -34.436  0.00  0.00    -0.024 C 
ENDBRANCH  33  35
ENDBRANCH  32  33
ENDBRANCH  31  32
ENDBRANCH  30  31
ENDBRANCH  29  30
ENDBRANCH  28  29
ENDBRANCH  27  28
ENDBRANCH  26  27
ENDBRANCH  25  26
ENDBRANCH   1  25
TORSDOF 17
ENDMDL
MODEL 3
REMARK VINA RESULT:    -6.117      1.735      3.873
REMARK INTER + INTRA:         -18.997
REMARK INTER:                 -11.592
REMARK INTRA:                  -7.406
REMARK UNBOUND:                -6.801
REMARK  Name = cpd28.pdb
REMARK  19 active torsions:
REMARK  status: ('A' for Active; 'I' for Inactive)
REMARK    1  A    between atoms: C_1  and  C_2
REMARK    2  A    between atoms: C_6  and  N_7
REMARK    3  A    between atoms: N_7  and  C_8
REMARK    4  A    between atoms: C_13  and  C_14
REMARK    5  A    between atoms: N_16  and  C_17
REMARK    6  A    between atoms: C_17  and  C_18
REMARK    7  A    between atoms: C_18  and  C_19
REMARK    8  A    between atoms: C_19  and  C_20
REMARK    9  A    between atoms: C_20  and  C_21
REMARK   10  A    between atoms: C_21  and  C_22
REMARK   11  A    between atoms: C_22  and  C_23
REMARK   12  A    between atoms: C_23  and  C_24
REMARK   13  A    between atoms: C_24  and  C_25
REMARK   14  A    between atoms: C_25  and  C_26
REMARK   15  A    between atoms: C_26  and  C_27
REMARK   16  A    between atoms: C_27  and  C_28
REMARK   17  A    between atoms: C_28  and  N_29
REMARK   18  A    between atoms: N_29  and  C_30
REMARK   19  A    between atoms: C_44  and  C_45
REMARK                            x       y       z     vdW  Elec       q    Type
REMARK                         _______ _______ _______ _____ _____    ______ ____
ROOT
ATOM      1  C   UNL A   1      43.331 -15.029 -40.513  0.00  0.00    -0.053 C 
ENDROOT
BRANCH   1   2
ATOM      2  C   UNL A   1      42.808 -14.624 -39.130  0.00  0.00    -0.052 C 
BRANCH   2   3
ATOM      3  C   UNL A   1      43.876 -13.877 -38.324  0.00  0.00    -0.037 C 
BRANCH   3   4
ATOM      4  C   UNL A   1      45.271 -13.996 -38.944  0.00  0.00    +0.012 C 
BRANCH   4   7
ATOM      5  C   UNL A   1      47.281 -15.135 -37.901  0.00  0.00    +0.246 C 
ATOM      6  O   UNL A   1      48.290 -14.981 -37.220  0.00  0.00    -0.270 OA
ATOM      7  N   UNL A   1      46.314 -14.160 -37.944  0.00  0.00    -0.311 N 
ATOM      8  H   UNL A   1      46.330 -13.499 -37.216  0.00  0.00    +0.000 HD
BRANCH   5  14
ATOM      9  C   UNL A   1      46.782 -17.602 -38.060  0.00  0.00    +0.044 A 
ATOM     10  C   UNL A   1      46.605 -18.719 -38.894  0.00  0.00    -0.040 A 
ATOM     11  C   UNL A   1      46.814 -18.636 -40.274  0.00  0.00    -0.060 A 
ATOM     12  C   UNL A   1      47.192 -17.429 -40.855  0.00  0.00    -0.061 A 
ATOM     13  C   UNL A   1      47.338 -16.296 -40.058  0.00  0.00    -0.048 A 
ATOM     14  C   UNL A   1      47.101 -16.377 -38.678  0.00  0.00    +0.058 A 
BRANCH   9  15
ATOM     15  N   UNL A   1      46.534 -17.700 -36.665  0.00  0.00    -0.314 N 
ATOM     16  H   UNL A   1      47.327 -17.740 -36.083  0.00  0.00    +0.000 HD
BRANCH  15  22
ATOM     17  C   UNL A   1      43.043 -20.289 -34.190  0.00  0.00    -0.039 C 
ATOM     18  C   UNL A   1      43.545 -19.037 -34.856  0.00  0.00    -0.046 A 
ATOM     19  C   UNL A   1      42.689 -17.927 -34.932  0.00  0.00    -0.058 A 
ATOM     20  C   UNL A   1      43.101 -16.754 -35.556  0.00  0.00    -0.060 A 
ATOM     21  C   UNL A   1      44.377 -16.672 -36.107  0.00  0.00    -0.040 A 
ATOM     22  C   UNL A   1      45.273 -17.748 -36.013  0.00  0.00    +0.035 A 
ATOM     23  C   UNL A   1      44.854 -18.946 -35.386  0.00  0.00    -0.026 A 
ATOM     24  C   UNL A   1      45.789 -20.131 -35.328  0.00  0.00    -0.038 C 
ENDBRANCH  15  22
ENDBRANCH   9  15
ENDBRANCH   5  14
ENDBRANCH   4   7
ENDBRANCH   3   4
ENDBRANCH   2   3
ENDBRANCH   1   2
BRANCH   1  25
ATOM     25  C   UNL A   1      43.282 -16.542 -40.753  0.00  0.00    -0.053 C 
BRANCH  25  26
ATOM     26  C   UNL A   1      43.233 -17.405 -39.488  0.00  0.00    -0.053 C 
BRANCH  26  27
ATOM     27  C   UNL A   1      43.134 -18.906 -39.752  0.00  0.00    -0.053 C 
BRANCH  27  28
ATOM     28  C   UNL A   1      43.117 -19.708 -38.448  0.00  0.00    -0.053 C 
BRANCH  28  29
ATOM     29  C   UNL A   1      42.865 -21.191 -38.722  0.00  0.00    -0.053 C 
BRANCH  29  30
ATOM     30  C   UNL A   1      42.533 -21.518 -40.182  0.00  0.00    -0.052 C 
BRANCH  30  31
ATOM     31  C   UNL A   1      41.084 -21.949 -40.426  0.00  0.00    -0.037 C 
BRANCH  31  32
ATOM     32  C   UNL A   1      40.452 -22.602 -39.192  0.00  0.00    +0.009 C 
BRANCH  32  33
ATOM     33  N   UNL A   1      39.180 -21.928 -38.892  0.00  0.00    -0.343 N 
ATOM     34  H   UNL A   1      38.337 -22.090 -39.376  0.00  0.00    +0.000 HD
BRANCH  33  35
ATOM     35  C   UNL A   1      39.324 -21.008 -37.808  0.00  0.00    +0.041 A 
ATOM     36  C   UNL A   1      39.253 -21.501 -36.491  0.00  0.00    -0.005 A 
ATOM     37  C   UNL A   1      39.362 -20.580 -35.448  0.00  0.00    +0.047 A 
ATOM     38  N   UNL A   1      39.482 -19.246 -35.647  0.00  0.00    -0.251 NA
ATOM     39  C   UNL A   1      39.529 -18.776 -36.900  0.00  0.00    +0.073 A 
ATOM     40  C   UNL A   1      39.657 -17.404 -37.071  0.00  0.00    -0.036 A 
ATOM     41  C   UNL A   1      39.710 -16.816 -38.336  0.00  0.00    -0.060 A 
ATOM     42  C   UNL A   1      39.633 -17.617 -39.465  0.00  0.00    -0.061 A 
ATOM     43  C   UNL A   1      39.505 -18.999 -39.318  0.00  0.00    -0.051 A 
ATOM     44  C   UNL A   1      39.451 -19.607 -38.036  0.00  0.00    +0.021 A 
ATOM     45  C   UNL A   1      39.296 -21.006 -34.004  0.00  0.00    -0.010 C 
ATOM     46  C   UNL A   1      39.622 -22.480 -33.795  0.00  0.00    -0.047 C 
ATOM     47  C   UNL A   1      38.820 -23.330 -34.769  0.00  0.00    -0.049 C 
ATOM     48  C   UNL A   1      39.190 -22.985 -36.212  0.00  0.00    -0.024 C 
ENDBRANCH  33  35
ENDBRANCH  32  33
ENDBRANCH  31  32
ENDBRANCH  30  31
ENDBRANCH  29  30
ENDBRANCH  28  29
ENDBRANCH  27  28
ENDBRANCH  26  27
ENDBRANCH  25  26
ENDBRANCH   1  25
TORSDOF 17
ENDMDL
MODEL 4
REMARK VINA RESULT:    -6.038      2.321      7.758
REMARK INTER + INTRA:         -18.840
REMARK INTER:                 -12.701
REMARK INTRA:                  -6.140
REMARK UNBOUND:                -6.801
REMARK  Name = cpd28.pdb
REMARK  19 active torsions:
REMARK  status: ('A' for Active; 'I' for Inactive)
REMARK    1  A    between atoms: C_1  and  C_2
REMARK    2  A    between atoms: C_6  and  N_7
REMARK    3  A    between atoms: N_7  and  C_8
REMARK    4  A    between atoms: C_13  and  C_14
REMARK    5  A    between atoms: N_16  and  C_17
REMARK    6  A    between atoms: C_17  and  C_18
REMARK    7  A    between atoms: C_18  and  C_19
REMARK    8  A    between atoms: C_19  and  C_20
REMARK    9  A    between atoms: C_20  and  C_21
REMARK   10  A    between atoms: C_21  and  C_22
REMARK   11  A    between atoms: C_22  and  C_23
REMARK   12  A    between atoms: C_23  and  C_24
REMARK   13  A    between atoms: C_24  and  C_25
REMARK   14  A    between atoms: C_25  and  C_26
REMARK   15  A    between atoms: C_26  and  C_27
REMARK   16  A    between atoms: C_27  and  C_28
REMARK   17  A    between atoms: C_28  and  N_29
REMARK   18  A    between atoms: N_29  and  C_30
REMARK   19  A    between atoms: C_44  and  C_45
REMARK                            x       y       z     vdW  Elec       q    Type
REMARK                         _______ _______ _______ _____ _____    ______ ____
ROOT
ATOM      1  C   UNL A   1      39.923 -17.453 -36.755  0.00  0.00    -0.053 C 
ENDROOT
BRANCH   1   2
ATOM      2  C   UNL A   1      38.486 -17.863 -36.416  0.00  0.00    -0.052 C 
BRANCH   2   3
ATOM      3  C   UNL A   1      38.223 -19.329 -36.776  0.00  0.00    -0.037 C 
BRANCH   3   4
ATOM      4  C   UNL A   1      39.012 -19.783 -38.007  0.00  0.00    +0.012 C 
BRANCH   4   7
ATOM      5  C   UNL A   1      40.107 -22.059 -37.789  0.00  0.00    +0.246 C 
ATOM      6  O   UNL A   1      39.918 -23.261 -37.625  0.00  0.00    -0.270 OA
ATOM      7  N   UNL A   1      39.067 -21.231 -38.133  0.00  0.00    -0.311 N 
ATOM      8  H   UNL A   1      38.267 -21.667 -38.506  0.00  0.00    +0.000 HD
BRANCH   5  14
ATOM      9  C   UNL A   1      42.050 -21.341 -36.351  0.00  0.00    +0.044 A 
ATOM     10  C   UNL A   1      43.356 -20.824 -36.304  0.00  0.00    -0.040 A 
ATOM     11  C   UNL A   1      44.016 -20.409 -37.465  0.00  0.00    -0.060 A 
ATOM     12  C   UNL A   1      43.390 -20.515 -38.704  0.00  0.00    -0.061 A 
ATOM     13  C   UNL A   1      42.110 -21.059 -38.785  0.00  0.00    -0.048 A 
ATOM     14  C   UNL A   1      41.462 -21.499 -37.621  0.00  0.00    +0.058 A 
BRANCH   9  15
ATOM     15  N   UNL A   1      41.410 -21.785 -35.164  0.00  0.00    -0.314 N 
ATOM     16  H   UNL A   1      41.585 -22.715 -34.896  0.00  0.00    +0.000 HD
BRANCH  15  22
ATOM     17  C   UNL A   1      37.021 -21.306 -32.812  0.00  0.00    -0.039 C 
ATOM     18  C   UNL A   1      38.372 -20.786 -33.221  0.00  0.00    -0.046 A 
ATOM     19  C   UNL A   1      38.732 -19.481 -32.850  0.00  0.00    -0.058 A 
ATOM     20  C   UNL A   1      39.961 -18.948 -33.222  0.00  0.00    -0.060 A 
ATOM     21  C   UNL A   1      40.853 -19.717 -33.965  0.00  0.00    -0.040 A 
ATOM     22  C   UNL A   1      40.545 -21.039 -34.318  0.00  0.00    +0.035 A 
ATOM     23  C   UNL A   1      39.291 -21.581 -33.949  0.00  0.00    -0.026 A 
ATOM     24  C   UNL A   1      38.923 -22.983 -34.372  0.00  0.00    -0.038 C 
ENDBRANCH  15  22
ENDBRANCH   9  15
ENDBRANCH   5  14
ENDBRANCH   4   7
ENDBRANCH   3   4
ENDBRANCH   2   3
ENDBRANCH   1   2
BRANCH   1  25
ATOM     25  C   UNL A   1      40.008 -16.502 -37.955  0.00  0.00    -0.053 C 
BRANCH  25  26
ATOM     26  C   UNL A   1      41.414 -16.292 -38.527  0.00  0.00    -0.053 C 
BRANCH  26  27
ATOM     27  C   UNL A   1      42.450 -15.837 -37.502  0.00  0.00    -0.053 C 
BRANCH  27  28
ATOM     28  C   UNL A   1      43.532 -16.899 -37.285  0.00  0.00    -0.053 C 
BRANCH  28  29
ATOM     29  C   UNL A   1      44.636 -16.374 -36.366  0.00  0.00    -0.053 C 
BRANCH  29  30
ATOM     30  C   UNL A   1      45.785 -17.359 -36.130  0.00  0.00    -0.052 C 
BRANCH  30  31
ATOM     31  C   UNL A   1      46.944 -17.236 -37.124  0.00  0.00    -0.037 C 
BRANCH  31  32
ATOM     32  C   UNL A   1      46.972 -18.385 -38.136  0.00  0.00    +0.009 C 
BRANCH  32  33
ATOM     33  N   UNL A   1      47.267 -17.841 -39.471  0.00  0.00    -0.343 N 
ATOM     34  H   UNL A   1      48.139 -17.471 -39.739  0.00  0.00    +0.000 HD
BRANCH  33  35
ATOM     35  C   UNL A   1      46.125 -17.920 -40.327  0.00  0.00    +0.041 A 
ATOM     36  C   UNL A   1      45.878 -19.126 -41.012  0.00  0.00    -0.005 A 
ATOM     37  C   UNL A   1      44.778 -19.169 -41.870  0.00  0.00    +0.047 A 
ATOM     38  N   UNL A   1      43.978 -18.102 -42.102  0.00  0.00    -0.251 NA
ATOM     39  C   UNL A   1      44.225 -16.950 -41.465  0.00  0.00    +0.073 A 
ATOM     40  C   UNL A   1      43.384 -15.876 -41.722  0.00  0.00    -0.036 A 
ATOM     41  C   UNL A   1      43.562 -14.633 -41.111  0.00  0.00    -0.060 A 
ATOM     42  C   UNL A   1      44.607 -14.454 -40.220  0.00  0.00    -0.061 A 
ATOM     43  C   UNL A   1      45.465 -15.519 -39.945  0.00  0.00    -0.051 A 
ATOM     44  C   UNL A   1      45.293 -16.788 -40.559  0.00  0.00    +0.021 A 
ATOM     45  C   UNL A   1      44.430 -20.409 -42.651  0.00  0.00    -0.010 C 
ATOM     46  C   UNL A   1      45.019 -21.682 -42.055  0.00  0.00    -0.047 C 
ATOM     47  C   UNL A   1      46.498 -21.480 -41.765  0.00  0.00    -0.049 C 
ATOM     48  C   UNL A   1      46.697 -20.365 -40.738  0.00  0.00    -0.024 C 
ENDBRANCH  33  35
ENDBRANCH  32  33
ENDBRANCH  31  32
ENDBRANCH  30  31
ENDBRANCH  29  30
ENDBRANCH  28  29
ENDBRANCH  27  28
ENDBRANCH  26  27
ENDBRANCH  25  26
ENDBRANCH   1  25
TORSDOF 17
ENDMDL
MODEL 5
REMARK VINA RESULT:    -5.924      2.325      7.439
REMARK INTER + INTRA:         -18.614
REMARK INTER:                 -11.939
REMARK INTRA:                  -6.675
REMARK UNBOUND:                -6.801
REMARK  Name = cpd28.pdb
REMARK  19 active torsions:
REMARK  status: ('A' for Active; 'I' for Inactive)
REMARK    1  A    between atoms: C_1  and  C_2
REMARK    2  A    between atoms: C_6  and  N_7
REMARK    3  A    between atoms: N_7  and  C_8
REMARK    4  A    between atoms: C_13  and  C_14
REMARK    5  A    between atoms: N_16  and  C_17
REMARK    6  A    between atoms: C_17  and  C_18
REMARK    7  A    between atoms: C_18  and  C_19
REMARK    8  A    between atoms: C_19  and  C_20
REMARK    9  A    between atoms: C_20  and  C_21
REMARK   10  A    between atoms: C_21  and  C_22
REMARK   11  A    between atoms: C_22  and  C_23
REMARK   12  A    between atoms: C_23  and  C_24
REMARK   13  A    between atoms: C_24  and  C_25
REMARK   14  A    between atoms: C_25  and  C_26
REMARK   15  A    between atoms: C_26  and  C_27
REMARK   16  A    between atoms: C_27  and  C_28
REMARK   17  A    between atoms: C_28  and  N_29
REMARK   18  A    between atoms: N_29  and  C_30
REMARK   19  A    between atoms: C_44  and  C_45
REMARK                            x       y       z     vdW  Elec       q    Type
REMARK                         _______ _______ _______ _____ _____    ______ ____
ROOT
ATOM      1  C   UNL A   1      42.815 -18.114 -36.852  0.00  0.00    -0.053 C 
ENDROOT
BRANCH   1   2
ATOM      2  C   UNL A   1      42.962 -19.421 -37.640  0.00  0.00    -0.052 C 
BRANCH   2   3
ATOM      3  C   UNL A   1      43.275 -20.600 -36.713  0.00  0.00    -0.037 C 
BRANCH   3   4
ATOM      4  C   UNL A   1      43.574 -20.158 -35.278  0.00  0.00    +0.012 C 
BRANCH   4   7
ATOM      5  C   UNL A   1      41.693 -20.793 -33.702  0.00  0.00    +0.246 C 
ATOM      6  O   UNL A   1      41.105 -21.718 -33.149  0.00  0.00    -0.270 OA
ATOM      7  N   UNL A   1      42.918 -20.996 -34.287  0.00  0.00    -0.311 N 
ATOM      8  H   UNL A   1      43.409 -21.801 -34.002  0.00  0.00    +0.000 HD
BRANCH   5  14
ATOM      9  C   UNL A   1      39.994 -19.149 -34.580  0.00  0.00    +0.044 A 
ATOM     10  C   UNL A   1      39.467 -17.848 -34.516  0.00  0.00    -0.040 A 
ATOM     11  C   UNL A   1      40.049 -16.868 -33.705  0.00  0.00    -0.060 A 
ATOM     12  C   UNL A   1      41.163 -17.171 -32.927  0.00  0.00    -0.061 A 
ATOM     13  C   UNL A   1      41.683 -18.463 -32.943  0.00  0.00    -0.048 A 
ATOM     14  C   UNL A   1      41.081 -19.450 -33.737  0.00  0.00    +0.058 A 
BRANCH   9  15
ATOM     15  N   UNL A   1      39.369 -20.137 -35.387  0.00  0.00    -0.314 N 
ATOM     16  H   UNL A   1      38.820 -20.803 -34.914  0.00  0.00    +0.000 HD
BRANCH  15  22
ATOM     17  C   UNL A   1      40.618 -22.845 -39.403  0.00  0.00    -0.039 C 
ATOM     18  C   UNL A   1      40.117 -21.583 -38.756  0.00  0.00    -0.046 A 
ATOM     19  C   UNL A   1      39.832 -20.476 -39.571  0.00  0.00    -0.058 A 
ATOM     20  C   UNL A   1      39.386 -19.281 -39.018  0.00  0.00    -0.060 A 
ATOM     21  C   UNL A   1      39.212 -19.177 -37.640  0.00  0.00    -0.040 A 
ATOM     22  C   UNL A   1      39.447 -20.275 -36.799  0.00  0.00    +0.035 A 
ATOM     23  C   UNL A   1      39.909 -21.490 -37.358  0.00  0.00    -0.026 A 
ATOM     24  C   UNL A   1      40.221 -22.662 -36.458  0.00  0.00    -0.038 C 
ENDBRANCH  15  22
ENDBRANCH   9  15
ENDBRANCH   5  14
ENDBRANCH   4   7
ENDBRANCH   3   4
ENDBRANCH   2   3
ENDBRANCH   1   2
BRANCH   1  25
ATOM     25  C   UNL A   1      42.177 -16.988 -37.673  0.00  0.00    -0.053 C 
BRANCH  25  26
ATOM     26  C   UNL A   1      42.354 -17.103 -39.191  0.00  0.00    -0.053 C 
BRANCH  26  27
ATOM     27  C   UNL A   1      42.215 -15.781 -39.944  0.00  0.00    -0.053 C 
BRANCH  27  28
ATOM     28  C   UNL A   1      43.121 -14.698 -39.353  0.00  0.00    -0.053 C 
BRANCH  28  29
ATOM     29  C   UNL A   1      44.114 -14.186 -40.397  0.00  0.00    -0.053 C 
BRANCH  29  30
ATOM     30  C   UNL A   1      45.586 -14.396 -40.028  0.00  0.00    -0.052 C 
BRANCH  30  31
ATOM     31  C   UNL A   1      46.448 -14.981 -41.151  0.00  0.00    -0.037 C 
BRANCH  31  32
ATOM     32  C   UNL A   1      46.847 -16.436 -40.886  0.00  0.00    +0.009 C 
BRANCH  32  33
ATOM     33  N   UNL A   1      45.657 -17.189 -40.460  0.00  0.00    -0.343 N 
ATOM     34  H   UNL A   1      44.730 -16.928 -40.667  0.00  0.00    +0.000 HD
BRANCH  33  35
ATOM     35  C   UNL A   1      46.020 -18.348 -39.707  0.00  0.00    +0.041 A 
ATOM     36  C   UNL A   1      45.954 -19.608 -40.335  0.00  0.00    -0.005 A 
ATOM     37  C   UNL A   1      46.279 -20.729 -39.570  0.00  0.00    +0.047 A 
ATOM     38  N   UNL A   1      46.605 -20.662 -38.258  0.00  0.00    -0.251 NA
ATOM     39  C   UNL A   1      46.647 -19.466 -37.657  0.00  0.00    +0.073 A 
ATOM     40  C   UNL A   1      46.988 -19.431 -36.311  0.00  0.00    -0.036 A 
ATOM     41  C   UNL A   1      47.056 -18.234 -35.595  0.00  0.00    -0.060 A 
ATOM     42  C   UNL A   1      46.775 -17.038 -36.236  0.00  0.00    -0.061 A 
ATOM     43  C   UNL A   1      46.432 -17.048 -37.588  0.00  0.00    -0.051 A 
ATOM     44  C   UNL A   1      46.361 -18.260 -38.327  0.00  0.00    +0.021 A 
ATOM     45  C   UNL A   1      46.237 -22.121 -40.147  0.00  0.00    -0.010 C 
ATOM     46  C   UNL A   1      46.329 -22.146 -41.668  0.00  0.00    -0.047 C 
ATOM     47  C   UNL A   1      45.337 -21.157 -42.261  0.00  0.00    -0.049 C 
ATOM     48  C   UNL A   1      45.665 -19.733 -41.812  0.00  0.00    -0.024 C 
ENDBRANCH  33  35
ENDBRANCH  32  33
ENDBRANCH  31  32
ENDBRANCH  30  31
ENDBRANCH  29  30
ENDBRANCH  28  29
ENDBRANCH  27  28
ENDBRANCH  26  27
ENDBRANCH  25  26
ENDBRANCH   1  25
TORSDOF 17
ENDMDL
MODEL 6
REMARK VINA RESULT:    -5.904      1.892      4.322
REMARK INTER + INTRA:         -18.574
REMARK INTER:                 -13.357
REMARK INTRA:                  -5.217
REMARK UNBOUND:                -6.801
REMARK  Name = cpd28.pdb
REMARK  19 active torsions:
REMARK  status: ('A' for Active; 'I' for Inactive)
REMARK    1  A    between atoms: C_1  and  C_2
REMARK    2  A    between atoms: C_6  and  N_7
REMARK    3  A    between atoms: N_7  and  C_8
REMARK    4  A    between atoms: C_13  and  C_14
REMARK    5  A    between atoms: N_16  and  C_17
REMARK    6  A    between atoms: C_17  and  C_18
REMARK    7  A    between atoms: C_18  and  C_19
REMARK    8  A    between atoms: C_19  and  C_20
REMARK    9  A    between atoms: C_20  and  C_21
REMARK   10  A    between atoms: C_21  and  C_22
REMARK   11  A    between atoms: C_22  and  C_23
REMARK   12  A    between atoms: C_23  and  C_24
REMARK   13  A    between atoms: C_24  and  C_25
REMARK   14  A    between atoms: C_25  and  C_26
REMARK   15  A    between atoms: C_26  and  C_27
REMARK   16  A    between atoms: C_27  and  C_28
REMARK   17  A    between atoms: C_28  and  N_29
REMARK   18  A    between atoms: N_29  and  C_30
REMARK   19  A    between atoms: C_44  and  C_45
REMARK                            x       y       z     vdW  Elec       q    Type
REMARK                         _______ _______ _______ _____ _____    ______ ____
ROOT
ATOM      1  C   UNL A   1      46.056 -15.123 -37.041  0.00  0.00    -0.053 C 
ENDROOT
BRANCH   1   2
ATOM      2  C   UNL A   1      45.065 -15.760 -36.060  0.00  0.00    -0.052 C 
BRANCH   2   3
ATOM      3  C   UNL A   1      43.796 -16.234 -36.776  0.00  0.00    -0.037 C 
BRANCH   3   4
ATOM      4  C   UNL A   1      43.464 -15.387 -38.007  0.00  0.00    +0.012 C 
BRANCH   4   7
ATOM      5  C   UNL A   1      43.412 -16.935 -40.014  0.00  0.00    +0.246 C 
ATOM      6  O   UNL A   1      42.767 -17.786 -40.618  0.00  0.00    -0.270 OA
ATOM      7  N   UNL A   1      42.813 -16.155 -39.056  0.00  0.00    -0.311 N 
ATOM      8  H   UNL A   1      41.830 -16.112 -39.082  0.00  0.00    +0.000 HD
BRANCH   5  14
ATOM      9  C   UNL A   1      45.768 -17.805 -40.254  0.00  0.00    +0.044 A 
ATOM     10  C   UNL A   1      47.101 -17.522 -40.593  0.00  0.00    -0.040 A 
ATOM     11  C   UNL A   1      47.512 -16.223 -40.906  0.00  0.00    -0.060 A 
ATOM     12  C   UNL A   1      46.593 -15.177 -40.902  0.00  0.00    -0.061 A 
ATOM     13  C   UNL A   1      45.256 -15.435 -40.608  0.00  0.00    -0.048 A 
ATOM     14  C   UNL A   1      44.844 -16.744 -40.320  0.00  0.00    +0.058 A 
BRANCH   9  15
ATOM     15  N   UNL A   1      45.366 -19.138 -39.969  0.00  0.00    -0.314 N 
ATOM     16  H   UNL A   1      45.052 -19.312 -39.053  0.00  0.00    +0.000 HD
BRANCH  15  22
ATOM     17  C   UNL A   1      47.394 -23.446 -41.502  0.00  0.00    -0.039 C 
ATOM     18  C   UNL A   1      46.401 -22.324 -41.636  0.00  0.00    -0.046 A 
ATOM     19  C   UNL A   1      45.531 -22.323 -42.737  0.00  0.00    -0.058 A 
ATOM     20  C   UNL A   1      44.610 -21.297 -42.916  0.00  0.00    -0.060 A 
ATOM     21  C   UNL A   1      44.540 -20.258 -41.990  0.00  0.00    -0.040 A 
ATOM     22  C   UNL A   1      45.365 -20.248 -40.856  0.00  0.00    +0.035 A 
ATOM     23  C   UNL A   1      46.310 -21.287 -40.676  0.00  0.00    -0.026 A 
ATOM     24  C   UNL A   1      47.244 -21.257 -39.489  0.00  0.00    -0.038 C 
ENDBRANCH  15  22
ENDBRANCH   9  15
ENDBRANCH   5  14
ENDBRANCH   4   7
ENDBRANCH   3   4
ENDBRANCH   2   3
ENDBRANCH   1   2
BRANCH   1  25
ATOM     25  C   UNL A   1      47.427 -15.809 -37.039  0.00  0.00    -0.053 C 
BRANCH  25  26
ATOM     26  C   UNL A   1      47.518 -17.090 -36.202  0.00  0.00    -0.053 C 
BRANCH  26  27
ATOM     27  C   UNL A   1      47.455 -18.381 -37.016  0.00  0.00    -0.053 C 
BRANCH  27  28
ATOM     28  C   UNL A   1      46.202 -19.196 -36.684  0.00  0.00    -0.053 C 
BRANCH  28  29
ATOM     29  C   UNL A   1      46.107 -19.465 -35.182  0.00  0.00    -0.053 C 
BRANCH  29  30
ATOM     30  C   UNL A   1      44.796 -19.003 -34.538  0.00  0.00    -0.052 C 
BRANCH  30  31
ATOM     31  C   UNL A   1      44.196 -19.993 -33.535  0.00  0.00    -0.037 C 
BRANCH  31  32
ATOM     32  C   UNL A   1      42.664 -19.984 -33.549  0.00  0.00    +0.009 C 
BRANCH  32  33
ATOM     33  N   UNL A   1      42.182 -21.273 -34.067  0.00  0.00    -0.343 N 
ATOM     34  H   UNL A   1      42.597 -22.143 -33.865  0.00  0.00    +0.000 HD
BRANCH  33  35
ATOM     35  C   UNL A   1      41.035 -21.099 -34.902  0.00  0.00    +0.041 A 
ATOM     36  C   UNL A   1      41.227 -20.933 -36.287  0.00  0.00    -0.005 A 
ATOM     37  C   UNL A   1      40.096 -20.730 -37.078  0.00  0.00    +0.047 A 
ATOM     38  N   UNL A   1      38.843 -20.641 -36.570  0.00  0.00    -0.251 NA
ATOM     39  C   UNL A   1      38.664 -20.780 -35.250  0.00  0.00    +0.073 A 
ATOM     40  C   UNL A   1      37.367 -20.687 -34.762  0.00  0.00    -0.036 A 
ATOM     41  C   UNL A   1      37.077 -20.813 -33.402  0.00  0.00    -0.060 A 
ATOM     42  C   UNL A   1      38.107 -21.037 -32.502  0.00  0.00    -0.061 A 
ATOM     43  C   UNL A   1      39.418 -21.135 -32.970  0.00  0.00    -0.051 A 
ATOM     44  C   UNL A   1      39.724 -21.009 -34.351  0.00  0.00    +0.021 A 
ATOM     45  C   UNL A   1      40.194 -20.538 -38.569  0.00  0.00    -0.010 C 
ATOM     46  C   UNL A   1      41.487 -21.086 -39.163  0.00  0.00    -0.047 C 
ATOM     47  C   UNL A   1      42.677 -20.590 -38.355  0.00  0.00    -0.049 C 
ATOM     48  C   UNL A   1      42.593 -21.092 -36.913  0.00  0.00    -0.024 C 
ENDBRANCH  33  35
ENDBRANCH  32  33
ENDBRANCH  31  32
ENDBRANCH  30  31
ENDBRANCH  29  30
ENDBRANCH  28  29
ENDBRANCH  27  28
ENDBRANCH  26  27
ENDBRANCH  25  26
ENDBRANCH   1  25
TORSDOF 17
ENDMDL
MODEL 7
REMARK VINA RESULT:    -5.877      1.804      4.717
REMARK INTER + INTRA:         -18.519
REMARK INTER:                 -11.333
REMARK INTRA:                  -7.186
REMARK UNBOUND:                -6.801
REMARK  Name = cpd28.pdb
REMARK  19 active torsions:
REMARK  status: ('A' for Active; 'I' for Inactive)
REMARK    1  A    between atoms: C_1  and  C_2
REMARK    2  A    between atoms: C_6  and  N_7
REMARK    3  A    between atoms: N_7  and  C_8
REMARK    4  A    between atoms: C_13  and  C_14
REMARK    5  A    between atoms: N_16  and  C_17
REMARK    6  A    between atoms: C_17  and  C_18
REMARK    7  A    between atoms: C_18  and  C_19
REMARK    8  A    between atoms: C_19  and  C_20
REMARK    9  A    between atoms: C_20  and  C_21
REMARK   10  A    between atoms: C_21  and  C_22
REMARK   11  A    between atoms: C_22  and  C_23
REMARK   12  A    between atoms: C_23  and  C_24
REMARK   13  A    between atoms: C_24  and  C_25
REMARK   14  A    between atoms: C_25  and  C_26
REMARK   15  A    between atoms: C_26  and  C_27
REMARK   16  A    between atoms: C_27  and  C_28
REMARK   17  A    between atoms: C_28  and  N_29
REMARK   18  A    between atoms: N_29  and  C_30
REMARK   19  A    between atoms: C_44  and  C_45
REMARK                            x       y       z     vdW  Elec       q    Type
REMARK                         _______ _______ _______ _____ _____    ______ ____
ROOT
ATOM      1  C   UNL A   1      43.344 -14.893 -40.289  0.00  0.00    -0.053 C 
ENDROOT
BRANCH   1   2
ATOM      2  C   UNL A   1      42.919 -14.466 -38.880  0.00  0.00    -0.052 C 
BRANCH   2   3
ATOM      3  C   UNL A   1      44.017 -13.654 -38.186  0.00  0.00    -0.037 C 
BRANCH   3   4
ATOM      4  C   UNL A   1      45.374 -13.785 -38.882  0.00  0.00    +0.012 C 
BRANCH   4   7
ATOM      5  C   UNL A   1      47.425 -14.950 -37.952  0.00  0.00    +0.246 C 
ATOM      6  O   UNL A   1      48.473 -14.809 -37.329  0.00  0.00    -0.270 OA
ATOM      7  N   UNL A   1      46.470 -13.963 -37.943  0.00  0.00    -0.311 N 
ATOM      8  H   UNL A   1      46.535 -13.300 -37.218  0.00  0.00    +0.000 HD
BRANCH   5  14
ATOM      9  C   UNL A   1      46.830 -17.397 -38.081  0.00  0.00    +0.044 A 
ATOM     10  C   UNL A   1      46.596 -18.513 -38.901  0.00  0.00    -0.040 A 
ATOM     11  C   UNL A   1      46.786 -18.450 -40.286  0.00  0.00    -0.060 A 
ATOM     12  C   UNL A   1      47.200 -17.263 -40.884  0.00  0.00    -0.061 A 
ATOM     13  C   UNL A   1      47.402 -16.130 -40.099  0.00  0.00    -0.048 A 
ATOM     14  C   UNL A   1      47.185 -16.191 -38.714  0.00  0.00    +0.058 A 
BRANCH   9  15
ATOM     15  N   UNL A   1      46.602 -17.475 -36.681  0.00  0.00    -0.314 N 
ATOM     16  H   UNL A   1      47.395 -17.390 -36.105  0.00  0.00    +0.000 HD
BRANCH  15  22
ATOM     17  C   UNL A   1      43.368 -20.478 -34.327  0.00  0.00    -0.039 C 
ATOM     18  C   UNL A   1      43.758 -19.152 -34.921  0.00  0.00    -0.046 A 
ATOM     19  C   UNL A   1      42.817 -18.111 -34.917  0.00  0.00    -0.058 A 
ATOM     20  C   UNL A   1      43.125 -16.873 -35.472  0.00  0.00    -0.060 A 
ATOM     21  C   UNL A   1      44.381 -16.657 -36.033  0.00  0.00    -0.040 A 
ATOM     22  C   UNL A   1      45.360 -17.662 -36.017  0.00  0.00    +0.035 A 
ATOM     23  C   UNL A   1      45.047 -18.925 -35.461  0.00  0.00    -0.026 A 
ATOM     24  C   UNL A   1      46.073 -20.034 -35.489  0.00  0.00    -0.038 C 
ENDBRANCH  15  22
ENDBRANCH   9  15
ENDBRANCH   5  14
ENDBRANCH   4   7
ENDBRANCH   3   4
ENDBRANCH   2   3
ENDBRANCH   1   2
BRANCH   1  25
ATOM     25  C   UNL A   1      43.114 -16.385 -40.558  0.00  0.00    -0.053 C 
BRANCH  25  26
ATOM     26  C   UNL A   1      43.088 -17.279 -39.314  0.00  0.00    -0.053 C 
BRANCH  26  27
ATOM     27  C   UNL A   1      43.005 -18.774 -39.613  0.00  0.00    -0.053 C 
BRANCH  27  28
ATOM     28  C   UNL A   1      42.998 -19.607 -38.328  0.00  0.00    -0.053 C 
BRANCH  28  29
ATOM     29  C   UNL A   1      42.750 -21.084 -38.636  0.00  0.00    -0.053 C 
BRANCH  29  30
ATOM     30  C   UNL A   1      42.363 -21.371 -40.091  0.00  0.00    -0.052 C 
BRANCH  30  31
ATOM     31  C   UNL A   1      40.996 -22.040 -40.266  0.00  0.00    -0.037 C 
BRANCH  31  32
ATOM     32  C   UNL A   1      40.414 -22.539 -38.940  0.00  0.00    +0.009 C 
BRANCH  32  33
ATOM     33  N   UNL A   1      39.138 -21.852 -38.689  0.00  0.00    -0.343 N 
ATOM     34  H   UNL A   1      38.304 -22.029 -39.183  0.00  0.00    +0.000 HD
BRANCH  33  35
ATOM     35  C   UNL A   1      39.263 -20.894 -37.635  0.00  0.00    +0.041 A 
ATOM     36  C   UNL A   1      39.303 -19.526 -37.968  0.00  0.00    -0.005 A 
ATOM     37  C   UNL A   1      39.461 -18.611 -36.926  0.00  0.00    +0.047 A 
ATOM     38  N   UNL A   1      39.623 -18.981 -35.633  0.00  0.00    -0.251 NA
ATOM     39  C   UNL A   1      39.606 -20.283 -35.320  0.00  0.00    +0.073 A 
ATOM     40  C   UNL A   1      39.770 -20.629 -33.986  0.00  0.00    -0.036 A 
ATOM     41  C   UNL A   1      39.771 -21.959 -33.560  0.00  0.00    -0.060 A 
ATOM     42  C   UNL A   1      39.604 -22.973 -34.489  0.00  0.00    -0.061 A 
ATOM     43  C   UNL A   1      39.435 -22.650 -35.836  0.00  0.00    -0.051 A 
ATOM     44  C   UNL A   1      39.432 -21.301 -36.280  0.00  0.00    +0.021 A 
ATOM     45  C   UNL A   1      39.519 -17.126 -37.176  0.00  0.00    -0.010 C 
ATOM     46  C   UNL A   1      38.891 -16.715 -38.503  0.00  0.00    -0.047 C 
ATOM     47  C   UNL A   1      39.429 -17.593 -39.623  0.00  0.00    -0.049 C 
ATOM     48  C   UNL A   1      39.058 -19.056 -39.382  0.00  0.00    -0.024 C 
ENDBRANCH  33  35
ENDBRANCH  32  33
ENDBRANCH  31  32
ENDBRANCH  30  31
ENDBRANCH  29  30
ENDBRANCH  28  29
ENDBRANCH  27  28
ENDBRANCH  26  27
ENDBRANCH  25  26
ENDBRANCH   1  25
TORSDOF 17
ENDMDL
MODEL 8
REMARK VINA RESULT:    -5.732      2.429      7.533
REMARK INTER + INTRA:         -18.230
REMARK INTER:                 -11.615
REMARK INTRA:                  -6.615
REMARK UNBOUND:                -6.801
REMARK  Name = cpd28.pdb
REMARK  19 active torsions:
REMARK  status: ('A' for Active; 'I' for Inactive)
REMARK    1  A    between atoms: C_1  and  C_2
REMARK    2  A    between atoms: C_6  and  N_7
REMARK    3  A    between atoms: N_7  and  C_8
REMARK    4  A    between atoms: C_13  and  C_14
REMARK    5  A    between atoms: N_16  and  C_17
REMARK    6  A    between atoms: C_17  and  C_18
REMARK    7  A    between atoms: C_18  and  C_19
REMARK    8  A    between atoms: C_19  and  C_20
REMARK    9  A    between atoms: C_20  and  C_21
REMARK   10  A    between atoms: C_21  and  C_22
REMARK   11  A    between atoms: C_22  and  C_23
REMARK   12  A    between atoms: C_23  and  C_24
REMARK   13  A    between atoms: C_24  and  C_25
REMARK   14  A    between atoms: C_25  and  C_26
REMARK   15  A    between atoms: C_26  and  C_27
REMARK   16  A    between atoms: C_27  and  C_28
REMARK   17  A    between atoms: C_28  and  N_29
REMARK   18  A    between atoms: N_29  and  C_30
REMARK   19  A    between atoms: C_44  and  C_45
REMARK                            x       y       z     vdW  Elec       q    Type
REMARK                         _______ _______ _______ _____ _____    ______ ____
ROOT
ATOM      1  C   UNL A   1      40.310 -15.448 -35.899  0.00  0.00    -0.053 C 
ENDROOT
BRANCH   1   2
ATOM      2  C   UNL A   1      40.117 -16.965 -35.798  0.00  0.00    -0.052 C 
BRANCH   2   3
ATOM      3  C   UNL A   1      39.907 -17.407 -34.345  0.00  0.00    -0.037 C 
BRANCH   3   4
ATOM      4  C   UNL A   1      39.265 -18.792 -34.238  0.00  0.00    +0.012 C 
BRANCH   4   7
ATOM      5  C   UNL A   1      40.577 -20.773 -33.354  0.00  0.00    +0.246 C 
ATOM      6  O   UNL A   1      41.309 -21.183 -32.459  0.00  0.00    -0.270 OA
ATOM      7  N   UNL A   1      39.867 -19.609 -33.196  0.00  0.00    -0.311 N 
ATOM      8  H   UNL A   1      39.753 -19.290 -32.272  0.00  0.00    +0.000 HD
BRANCH   5  14
ATOM      9  C   UNL A   1      41.466 -21.534 -35.588  0.00  0.00    +0.044 A 
ATOM     10  C   UNL A   1      41.261 -22.319 -36.735  0.00  0.00    -0.040 A 
ATOM     11  C   UNL A   1      40.065 -23.016 -36.934  0.00  0.00    -0.060 A 
ATOM     12  C   UNL A   1      39.050 -22.956 -35.982  0.00  0.00    -0.061 A 
ATOM     13  C   UNL A   1      39.241 -22.215 -34.818  0.00  0.00    -0.048 A 
ATOM     14  C   UNL A   1      40.453 -21.539 -34.610  0.00  0.00    +0.058 A 
BRANCH   9  15
ATOM     15  N   UNL A   1      42.700 -20.859 -35.391  0.00  0.00    -0.314 N 
ATOM     16  H   UNL A   1      43.361 -21.315 -34.823  0.00  0.00    +0.000 HD
BRANCH  15  22
ATOM     17  C   UNL A   1      44.251 -16.158 -34.670  0.00  0.00    -0.039 C 
ATOM     18  C   UNL A   1      43.790 -17.283 -35.556  0.00  0.00    -0.046 A 
ATOM     19  C   UNL A   1      43.632 -17.037 -36.929  0.00  0.00    -0.058 A 
ATOM     20  C   UNL A   1      43.189 -18.039 -37.785  0.00  0.00    -0.060 A 
ATOM     21  C   UNL A   1      42.904 -19.306 -37.281  0.00  0.00    -0.040 A 
ATOM     22  C   UNL A   1      43.090 -19.599 -35.922  0.00  0.00    +0.035 A 
ATOM     23  C   UNL A   1      43.532 -18.579 -35.046  0.00  0.00    -0.026 A 
ATOM     24  C   UNL A   1      43.681 -18.866 -33.571  0.00  0.00    -0.038 C 
ENDBRANCH  15  22
ENDBRANCH   9  15
ENDBRANCH   5  14
ENDBRANCH   4   7
ENDBRANCH   3   4
ENDBRANCH   2   3
ENDBRANCH   1   2
BRANCH   1  25
ATOM     25  C   UNL A   1      40.449 -14.957 -37.344  0.00  0.00    -0.053 C 
BRANCH  25  26
ATOM     26  C   UNL A   1      40.335 -16.043 -38.420  0.00  0.00    -0.053 C 
BRANCH  26  27
ATOM     27  C   UNL A   1      40.328 -15.514 -39.852  0.00  0.00    -0.053 C 
BRANCH  27  28
ATOM     28  C   UNL A   1      41.576 -14.678 -40.150  0.00  0.00    -0.053 C 
BRANCH  28  29
ATOM     29  C   UNL A   1      42.260 -15.154 -41.432  0.00  0.00    -0.053 C 
BRANCH  29  30
ATOM     30  C   UNL A   1      43.785 -15.005 -41.429  0.00  0.00    -0.052 C 
BRANCH  30  31
ATOM     31  C   UNL A   1      44.554 -16.324 -41.306  0.00  0.00    -0.037 C 
BRANCH  31  32
ATOM     32  C   UNL A   1      45.534 -16.323 -40.128  0.00  0.00    +0.009 C 
BRANCH  32  33
ATOM     33  N   UNL A   1      46.658 -17.219 -40.439  0.00  0.00    -0.343 N 
ATOM     34  H   UNL A   1      47.385 -17.001 -41.067  0.00  0.00    +0.000 HD
BRANCH  33  35
ATOM     35  C   UNL A   1      46.558 -18.446 -39.713  0.00  0.00    +0.041 A 
ATOM     36  C   UNL A   1      46.129 -19.600 -40.396  0.00  0.00    -0.005 A 
ATOM     37  C   UNL A   1      46.006 -20.779 -39.659  0.00  0.00    +0.047 A 
ATOM     38  N   UNL A   1      46.233 -20.847 -38.325  0.00  0.00    -0.251 NA
ATOM     39  C   UNL A   1      46.621 -19.744 -37.674  0.00  0.00    +0.073 A 
ATOM     40  C   UNL A   1      46.850 -19.847 -36.308  0.00  0.00    -0.036 A 
ATOM     41  C   UNL A   1      47.253 -18.753 -35.539  0.00  0.00    -0.060 A 
ATOM     42  C   UNL A   1      47.434 -17.521 -36.147  0.00  0.00    -0.061 A 
ATOM     43  C   UNL A   1      47.211 -17.393 -37.518  0.00  0.00    -0.051 A 
ATOM     44  C   UNL A   1      46.802 -18.499 -38.310  0.00  0.00    +0.021 A 
ATOM     45  C   UNL A   1      45.551 -22.068 -40.295  0.00  0.00    -0.010 C 
ATOM     46  C   UNL A   1      45.747 -22.096 -41.806  0.00  0.00    -0.047 C 
ATOM     47  C   UNL A   1      45.186 -20.823 -42.423  0.00  0.00    -0.049 C 
ATOM     48  C   UNL A   1      45.930 -19.597 -41.893  0.00  0.00    -0.024 C 
ENDBRANCH  33  35
ENDBRANCH  32  33
ENDBRANCH  31  32
ENDBRANCH  30  31
ENDBRANCH  29  30
ENDBRANCH  28  29
ENDBRANCH  27  28
ENDBRANCH  26  27
ENDBRANCH  25  26
ENDBRANCH   1  25
TORSDOF 17
ENDMDL
MODEL 9
REMARK VINA RESULT:    -5.730      1.988      4.208
REMARK INTER + INTRA:         -18.226
REMARK INTER:                 -11.349
REMARK INTRA:                  -6.877
REMARK UNBOUND:                -6.801
REMARK  Name = cpd28.pdb
REMARK  19 active torsions:
REMARK  status: ('A' for Active; 'I' for Inactive)
REMARK    1  A    between atoms: C_1  and  C_2
REMARK    2  A    between atoms: C_6  and  N_7
REMARK    3  A    between atoms: N_7  and  C_8
REMARK    4  A    between atoms: C_13  and  C_14
REMARK    5  A    between atoms: N_16  and  C_17
REMARK    6  A    between atoms: C_17  and  C_18
REMARK    7  A    between atoms: C_18  and  C_19
REMARK    8  A    between atoms: C_19  and  C_20
REMARK    9  A    between atoms: C_20  and  C_21
REMARK   10  A    between atoms: C_21  and  C_22
REMARK   11  A    between atoms: C_22  and  C_23
REMARK   12  A    between atoms: C_23  and  C_24
REMARK   13  A    between atoms: C_24  and  C_25
REMARK   14  A    between atoms: C_25  and  C_26
REMARK   15  A    between atoms: C_26  and  C_27
REMARK   16  A    between atoms: C_27  and  C_28
REMARK   17  A    between atoms: C_28  and  N_29
REMARK   18  A    between atoms: N_29  and  C_30
REMARK   19  A    between atoms: C_44  and  C_45
REMARK                            x       y       z     vdW  Elec       q    Type
REMARK                         _______ _______ _______ _____ _____    ______ ____
ROOT
ATOM      1  C   UNL A   1      44.398 -14.599 -38.533  0.00  0.00    -0.053 C 
ENDROOT
BRANCH   1   2
ATOM      2  C   UNL A   1      45.841 -14.935 -38.142  0.00  0.00    -0.052 C 
BRANCH   2   3
ATOM      3  C   UNL A   1      45.993 -16.416 -37.780  0.00  0.00    -0.037 C 
BRANCH   3   4
ATOM      4  C   UNL A   1      45.768 -16.682 -36.289  0.00  0.00    +0.012 C 
BRANCH   4   7
ATOM      5  C   UNL A   1      46.199 -18.917 -35.173  0.00  0.00    +0.246 C 
ATOM      6  O   UNL A   1      46.957 -19.879 -35.094  0.00  0.00    -0.270 OA
ATOM      7  N   UNL A   1      46.607 -17.755 -35.780  0.00  0.00    -0.311 N 
ATOM      8  H   UNL A   1      47.579 -17.635 -35.882  0.00  0.00    +0.000 HD
BRANCH   5  14
ATOM      9  C   UNL A   1      43.772 -19.589 -35.323  0.00  0.00    +0.044 A 
ATOM     10  C   UNL A   1      42.523 -19.649 -34.683  0.00  0.00    -0.040 A 
ATOM     11  C   UNL A   1      42.325 -19.084 -33.419  0.00  0.00    -0.060 A 
ATOM     12  C   UNL A   1      43.378 -18.458 -32.758  0.00  0.00    -0.061 A 
ATOM     13  C   UNL A   1      44.637 -18.416 -33.352  0.00  0.00    -0.048 A 
ATOM     14  C   UNL A   1      44.838 -19.007 -34.608  0.00  0.00    +0.058 A 
BRANCH   9  15
ATOM     15  N   UNL A   1      43.959 -20.195 -36.593  0.00  0.00    -0.314 N 
ATOM     16  H   UNL A   1      44.188 -21.153 -36.589  0.00  0.00    +0.000 HD
BRANCH  15  22
ATOM     17  C   UNL A   1      45.777 -19.437 -41.191  0.00  0.00    -0.039 C 
ATOM     18  C   UNL A   1      44.782 -19.167 -40.095  0.00  0.00    -0.046 A 
ATOM     19  C   UNL A   1      43.797 -18.190 -40.307  0.00  0.00    -0.058 A 
ATOM     20  C   UNL A   1      42.869 -17.890 -39.315  0.00  0.00    -0.060 A 
ATOM     21  C   UNL A   1      42.908 -18.568 -38.100  0.00  0.00    -0.040 A 
ATOM     22  C   UNL A   1      43.853 -19.579 -37.869  0.00  0.00    +0.035 A 
ATOM     23  C   UNL A   1      44.805 -19.881 -38.872  0.00  0.00    -0.026 A 
ATOM     24  C   UNL A   1      45.864 -20.927 -38.615  0.00  0.00    -0.038 C 
ENDBRANCH  15  22
ENDBRANCH   9  15
ENDBRANCH   5  14
ENDBRANCH   4   7
ENDBRANCH   3   4
ENDBRANCH   2   3
ENDBRANCH   1   2
BRANCH   1  25
ATOM     25  C   UNL A   1      44.276 -14.041 -39.956  0.00  0.00    -0.053 C 
BRANCH  25  26
ATOM     26  C   UNL A   1      42.986 -14.411 -40.697  0.00  0.00    -0.053 C 
BRANCH  26  27
ATOM     27  C   UNL A   1      41.752 -14.509 -39.804  0.00  0.00    -0.053 C 
BRANCH  27  28
ATOM     28  C   UNL A   1      40.519 -14.958 -40.593  0.00  0.00    -0.053 C 
BRANCH  28  29
ATOM     29  C   UNL A   1      39.392 -15.384 -39.651  0.00  0.00    -0.053 C 
BRANCH  29  30
ATOM     30  C   UNL A   1      39.568 -16.780 -39.046  0.00  0.00    -0.052 C 
BRANCH  30  31
ATOM     31  C   UNL A   1      38.418 -17.231 -38.140  0.00  0.00    -0.037 C 
BRANCH  31  32
ATOM     32  C   UNL A   1      38.867 -18.246 -37.085  0.00  0.00    +0.009 C 
BRANCH  32  33
ATOM     33  N   UNL A   1      38.241 -19.546 -37.373  0.00  0.00    -0.343 N 
ATOM     34  H   UNL A   1      37.314 -19.659 -37.685  0.00  0.00    +0.000 HD
BRANCH  33  35
ATOM     35  C   UNL A   1      39.153 -20.622 -37.142  0.00  0.00    +0.041 A 
ATOM     36  C   UNL A   1      39.185 -21.216 -35.865  0.00  0.00    -0.005 A 
ATOM     37  C   UNL A   1      40.107 -22.242 -35.652  0.00  0.00    +0.047 A 
ATOM     38  N   UNL A   1      40.991 -22.651 -36.593  0.00  0.00    -0.251 NA
ATOM     39  C   UNL A   1      40.973 -22.071 -37.800  0.00  0.00    +0.073 A 
ATOM     40  C   UNL A   1      41.890 -22.515 -38.744  0.00  0.00    -0.036 A 
ATOM     41  C   UNL A   1      41.953 -21.972 -40.028  0.00  0.00    -0.060 A 
ATOM     42  C   UNL A   1      41.080 -20.956 -40.383  0.00  0.00    -0.061 A 
ATOM     43  C   UNL A   1      40.150 -20.494 -39.452  0.00  0.00    -0.051 A 
ATOM     44  C   UNL A   1      40.076 -21.041 -38.143  0.00  0.00    +0.021 A 
ATOM     45  C   UNL A   1      40.223 -22.940 -34.321  0.00  0.00    -0.010 C 
ATOM     46  C   UNL A   1      38.972 -22.809 -33.462  0.00  0.00    -0.047 C 
ATOM     47  C   UNL A   1      38.533 -21.354 -33.406  0.00  0.00    -0.049 C 
ATOM     48  C   UNL A   1      38.176 -20.847 -34.803  0.00  0.00    -0.024 C 
ENDBRANCH  33  35
ENDBRANCH  32  33
ENDBRANCH  31  32
ENDBRANCH  30  31
ENDBRANCH  29  30
ENDBRANCH  28  29
ENDBRANCH  27  28
ENDBRANCH  26  27
ENDBRANCH  25  26
ENDBRANCH   1  25
TORSDOF 17
ENDMDL
MODEL 10
REMARK VINA RESULT:    -5.686      2.422      7.080
REMARK INTER + INTRA:         -18.137
REMARK INTER:                 -11.369
REMARK INTRA:                  -6.769
REMARK UNBOUND:                -6.801
REMARK  Name = cpd28.pdb
REMARK  19 active torsions:
REMARK  status: ('A' for Active; 'I' for Inactive)
REMARK    1  A    between atoms: C_1  and  C_2
REMARK    2  A    between atoms: C_6  and  N_7
REMARK    3  A    between atoms: N_7  and  C_8
REMARK    4  A    between atoms: C_13  and  C_14
REMARK    5  A    between atoms: N_16  and  C_17
REMARK    6  A    between atoms: C_17  and  C_18
REMARK    7  A    between atoms: C_18  and  C_19
REMARK    8  A    between atoms: C_19  and  C_20
REMARK    9  A    between atoms: C_20  and  C_21
REMARK   10  A    between atoms: C_21  and  C_22
REMARK   11  A    between atoms: C_22  and  C_23
REMARK   12  A    between atoms: C_23  and  C_24
REMARK   13  A    between atoms: C_24  and  C_25
REMARK   14  A    between atoms: C_25  and  C_26
REMARK   15  A    between atoms: C_26  and  C_27
REMARK   16  A    between atoms: C_27  and  C_28
REMARK   17  A    between atoms: C_28  and  N_29
REMARK   18  A    between atoms: N_29  and  C_30
REMARK   19  A    between atoms: C_44  and  C_45
REMARK                            x       y       z     vdW  Elec       q    Type
REMARK                         _______ _______ _______ _____ _____    ______ ____
ROOT
ATOM      1  C   UNL A   1      42.869 -17.100 -36.375  0.00  0.00    -0.053 C 
ENDROOT
BRANCH   1   2
ATOM      2  C   UNL A   1      41.934 -16.314 -37.301  0.00  0.00    -0.052 C 
BRANCH   2   3
ATOM      3  C   UNL A   1      40.847 -15.582 -36.508  0.00  0.00    -0.037 C 
BRANCH   3   4
ATOM      4  C   UNL A   1      41.368 -15.005 -35.189  0.00  0.00    +0.012 C 
BRANCH   4   7
ATOM      5  C   UNL A   1      40.764 -15.916 -32.901  0.00  0.00    +0.246 C 
ATOM      6  O   UNL A   1      40.046 -15.779 -31.916  0.00  0.00    -0.270 OA
ATOM      7  N   UNL A   1      40.471 -15.262 -34.073  0.00  0.00    -0.311 N 
ATOM      8  H   UNL A   1      39.550 -14.930 -34.168  0.00  0.00    +0.000 HD
BRANCH   5  14
ATOM      9  C   UNL A   1      41.835 -18.195 -32.749  0.00  0.00    +0.044 A 
ATOM     10  C   UNL A   1      43.026 -18.939 -32.715  0.00  0.00    -0.040 A 
ATOM     11  C   UNL A   1      44.275 -18.311 -32.685  0.00  0.00    -0.060 A 
ATOM     12  C   UNL A   1      44.362 -16.921 -32.703  0.00  0.00    -0.061 A 
ATOM     13  C   UNL A   1      43.199 -16.159 -32.774  0.00  0.00    -0.048 A 
ATOM     14  C   UNL A   1      41.949 -16.793 -32.831  0.00  0.00    +0.058 A 
BRANCH   9  15
ATOM     15  N   UNL A   1      40.578 -18.853 -32.809  0.00  0.00    -0.314 N 
ATOM     16  H   UNL A   1      40.092 -18.945 -31.958  0.00  0.00    +0.000 HD
BRANCH  15  22
ATOM     17  C   UNL A   1      39.669 -22.745 -35.818  0.00  0.00    -0.039 C 
ATOM     18  C   UNL A   1      39.551 -21.289 -35.457  0.00  0.00    -0.046 A 
ATOM     19  C   UNL A   1      38.891 -20.427 -36.347  0.00  0.00    -0.058 A 
ATOM     20  C   UNL A   1      38.775 -19.070 -36.068  0.00  0.00    -0.060 A 
ATOM     21  C   UNL A   1      39.311 -18.555 -34.890  0.00  0.00    -0.040 A 
ATOM     22  C   UNL A   1      39.941 -19.394 -33.958  0.00  0.00    +0.035 A 
ATOM     23  C   UNL A   1      40.069 -20.775 -34.244  0.00  0.00    -0.026 A 
ATOM     24  C   UNL A   1      40.795 -21.679 -33.276  0.00  0.00    -0.038 C 
ENDBRANCH  15  22
ENDBRANCH   9  15
ENDBRANCH   5  14
ENDBRANCH   4   7
ENDBRANCH   3   4
ENDBRANCH   2   3
ENDBRANCH   1   2
BRANCH   1  25
ATOM     25  C   UNL A   1      42.555 -18.600 -36.339  0.00  0.00    -0.053 C 
BRANCH  25  26
ATOM     26  C   UNL A   1      43.772 -19.521 -36.202  0.00  0.00    -0.053 C 
BRANCH  26  27
ATOM     27  C   UNL A   1      45.117 -18.822 -36.384  0.00  0.00    -0.053 C 
BRANCH  27  28
ATOM     28  C   UNL A   1      46.174 -19.771 -36.954  0.00  0.00    -0.053 C 
BRANCH  28  29
ATOM     29  C   UNL A   1      47.255 -18.996 -37.708  0.00  0.00    -0.053 C 
BRANCH  29  30
ATOM     30  C   UNL A   1      46.963 -17.500 -37.872  0.00  0.00    -0.052 C 
BRANCH  30  31
ATOM     31  C   UNL A   1      46.707 -17.056 -39.315  0.00  0.00    -0.037 C 
BRANCH  31  32
ATOM     32  C   UNL A   1      45.227 -17.139 -39.700  0.00  0.00    +0.009 C 
BRANCH  32  33
ATOM     33  N   UNL A   1      45.091 -17.976 -40.902  0.00  0.00    -0.343 N 
ATOM     34  H   UNL A   1      45.127 -17.634 -41.825  0.00  0.00    +0.000 HD
BRANCH  33  35
ATOM     35  C   UNL A   1      44.899 -19.350 -40.557  0.00  0.00    +0.041 A 
ATOM     36  C   UNL A   1      45.938 -20.263 -40.823  0.00  0.00    -0.005 A 
ATOM     37  C   UNL A   1      45.715 -21.605 -40.510  0.00  0.00    +0.047 A 
ATOM     38  N   UNL A   1      44.543 -22.065 -40.013  0.00  0.00    -0.251 NA
ATOM     39  C   UNL A   1      43.549 -21.198 -39.779  0.00  0.00    +0.073 A 
ATOM     40  C   UNL A   1      42.361 -21.701 -39.266  0.00  0.00    -0.036 A 
ATOM     41  C   UNL A   1      41.265 -20.880 -38.992  0.00  0.00    -0.060 A 
ATOM     42  C   UNL A   1      41.354 -19.519 -39.238  0.00  0.00    -0.061 A 
ATOM     43  C   UNL A   1      42.538 -18.991 -39.753  0.00  0.00    -0.051 A 
ATOM     44  C   UNL A   1      43.659 -19.817 -40.033  0.00  0.00    +0.021 A 
ATOM     45  C   UNL A   1      46.761 -22.661 -40.759  0.00  0.00    -0.010 C 
ATOM     46  C   UNL A   1      48.173 -22.097 -40.867  0.00  0.00    -0.047 C 
ATOM     47  C   UNL A   1      48.185 -20.918 -41.829  0.00  0.00    -0.049 C 
ATOM     48  C   UNL A   1      47.288 -19.794 -41.311  0.00  0.00    -0.024 C 
ENDBRANCH  33  35
ENDBRANCH  32  33
ENDBRANCH  31  32
ENDBRANCH  30  31
ENDBRANCH  29  30
ENDBRANCH  28  29
ENDBRANCH  27  28
ENDBRANCH  26  27
ENDBRANCH  25  26
ENDBRANCH   1  25
TORSDOF 17
ENDMDL
MODEL 11
REMARK VINA RESULT:    -5.659      2.173      4.224
REMARK INTER + INTRA:         -18.084
REMARK INTER:                 -12.282
REMARK INTRA:                  -5.802
REMARK UNBOUND:                -6.801
REMARK  Name = cpd28.pdb
REMARK  19 active torsions:
REMARK  status: ('A' for Active; 'I' for Inactive)
REMARK    1  A    between atoms: C_1  and  C_2
REMARK    2  A    between atoms: C_6  and  N_7
REMARK    3  A    between atoms: N_7  and  C_8
REMARK    4  A    between atoms: C_13  and  C_14
REMARK    5  A    between atoms: N_16  and  C_17
REMARK    6  A    between atoms: C_17  and  C_18
REMARK    7  A    between atoms: C_18  and  C_19
REMARK    8  A    between atoms: C_19  and  C_20
REMARK    9  A    between atoms: C_20  and  C_21
REMARK   10  A    between atoms: C_21  and  C_22
REMARK   11  A    between atoms: C_22  and  C_23
REMARK   12  A    between atoms: C_23  and  C_24
REMARK   13  A    between atoms: C_24  and  C_25
REMARK   14  A    between atoms: C_25  and  C_26
REMARK   15  A    between atoms: C_26  and  C_27
REMARK   16  A    between atoms: C_27  and  C_28
REMARK   17  A    between atoms: C_28  and  N_29
REMARK   18  A    between atoms: N_29  and  C_30
REMARK   19  A    between atoms: C_44  and  C_45
REMARK                            x       y       z     vdW  Elec       q    Type
REMARK                         _______ _______ _______ _____ _____    ______ ____
ROOT
ATOM      1  C   UNL A   1      42.276 -13.551 -38.505  0.00  0.00    -0.053 C 
ENDROOT
BRANCH   1   2
ATOM      2  C   UNL A   1      43.649 -13.333 -39.151  0.00  0.00    -0.052 C 
BRANCH   2   3
ATOM      3  C   UNL A   1      43.699 -13.913 -40.568  0.00  0.00    -0.037 C 
BRANCH   3   4
ATOM      4  C   UNL A   1      44.578 -15.162 -40.663  0.00  0.00    +0.012 C 
BRANCH   4   7
ATOM      5  C   UNL A   1      47.099 -15.431 -40.695  0.00  0.00    +0.246 C 
ATOM      6  O   UNL A   1      48.115 -15.352 -41.378  0.00  0.00    -0.270 OA
ATOM      7  N   UNL A   1      45.924 -14.865 -41.126  0.00  0.00    -0.311 N 
ATOM      8  H   UNL A   1      46.003 -14.180 -41.829  0.00  0.00    +0.000 HD
BRANCH   5  14
ATOM      9  C   UNL A   1      47.105 -17.541 -39.313  0.00  0.00    +0.044 A 
ATOM     10  C   UNL A   1      47.174 -18.112 -38.032  0.00  0.00    -0.040 A 
ATOM     11  C   UNL A   1      47.195 -17.317 -36.881  0.00  0.00    -0.060 A 
ATOM     12  C   UNL A   1      47.162 -15.929 -36.987  0.00  0.00    -0.061 A 
ATOM     13  C   UNL A   1      47.131 -15.334 -38.247  0.00  0.00    -0.048 A 
ATOM     14  C   UNL A   1      47.137 -16.135 -39.398  0.00  0.00    +0.058 A 
BRANCH   9  15
ATOM     15  N   UNL A   1      47.115 -18.366 -40.469  0.00  0.00    -0.314 N 
ATOM     16  H   UNL A   1      47.561 -17.996 -41.265  0.00  0.00    +0.000 HD
BRANCH  15  22
ATOM     17  C   UNL A   1      43.292 -21.303 -41.803  0.00  0.00    -0.039 C 
ATOM     18  C   UNL A   1      44.657 -21.088 -41.207  0.00  0.00    -0.046 A 
ATOM     19  C   UNL A   1      45.338 -22.192 -40.671  0.00  0.00    -0.058 A 
ATOM     20  C   UNL A   1      46.593 -22.040 -40.091  0.00  0.00    -0.060 A 
ATOM     21  C   UNL A   1      47.188 -20.782 -40.045  0.00  0.00    -0.040 A 
ATOM     22  C   UNL A   1      46.554 -19.664 -40.609  0.00  0.00    +0.035 A 
ATOM     23  C   UNL A   1      45.274 -19.814 -41.192  0.00  0.00    -0.026 A 
ATOM     24  C   UNL A   1      44.556 -18.608 -41.750  0.00  0.00    -0.038 C 
ENDBRANCH  15  22
ENDBRANCH   9  15
ENDBRANCH   5  14
ENDBRANCH   4   7
ENDBRANCH   3   4
ENDBRANCH   2   3
ENDBRANCH   1   2
BRANCH   1  25
ATOM     25  C   UNL A   1      42.330 -14.463 -37.275  0.00  0.00    -0.053 C 
BRANCH  25  26
ATOM     26  C   UNL A   1      43.662 -15.190 -37.055  0.00  0.00    -0.053 C 
BRANCH  26  27
ATOM     27  C   UNL A   1      43.553 -16.712 -37.030  0.00  0.00    -0.053 C 
BRANCH  27  28
ATOM     28  C   UNL A   1      42.121 -17.171 -36.739  0.00  0.00    -0.053 C 
BRANCH  28  29
ATOM     29  C   UNL A   1      41.709 -18.305 -37.678  0.00  0.00    -0.053 C 
BRANCH  29  30
ATOM     30  C   UNL A   1      42.880 -19.015 -38.365  0.00  0.00    -0.052 C 
BRANCH  30  31
ATOM     31  C   UNL A   1      43.071 -20.477 -37.948  0.00  0.00    -0.037 C 
BRANCH  31  32
ATOM     32  C   UNL A   1      41.950 -20.976 -37.032  0.00  0.00    +0.009 C 
BRANCH  32  33
ATOM     33  N   UNL A   1      42.538 -21.448 -35.769  0.00  0.00    -0.343 N 
ATOM     34  H   UNL A   1      43.070 -22.272 -35.677  0.00  0.00    +0.000 HD
BRANCH  33  35
ATOM     35  C   UNL A   1      42.238 -20.556 -34.693  0.00  0.00    +0.041 A 
ATOM     36  C   UNL A   1      43.240 -19.669 -34.253  0.00  0.00    -0.005 A 
ATOM     37  C   UNL A   1      42.937 -18.832 -33.179  0.00  0.00    +0.047 A 
ATOM     38  N   UNL A   1      41.754 -18.869 -32.521  0.00  0.00    -0.251 NA
ATOM     39  C   UNL A   1      40.809 -19.728 -32.927  0.00  0.00    +0.073 A 
ATOM     40  C   UNL A   1      39.606 -19.739 -32.234  0.00  0.00    -0.036 A 
ATOM     41  C   UNL A   1      38.561 -20.600 -32.578  0.00  0.00    -0.060 A 
ATOM     42  C   UNL A   1      38.720 -21.475 -33.641  0.00  0.00    -0.061 A 
ATOM     43  C   UNL A   1      39.919 -21.480 -34.353  0.00  0.00    -0.051 A 
ATOM     44  C   UNL A   1      40.988 -20.608 -34.013  0.00  0.00    +0.021 A 
ATOM     45  C   UNL A   1      43.940 -17.849 -32.631  0.00  0.00    -0.010 C 
ATOM     46  C   UNL A   1      45.040 -17.495 -33.624  0.00  0.00    -0.047 C 
ATOM     47  C   UNL A   1      45.623 -18.766 -34.224  0.00  0.00    -0.049 C 
ATOM     48  C   UNL A   1      44.550 -19.536 -34.994  0.00  0.00    -0.024 C 
ENDBRANCH  33  35
ENDBRANCH  32  33
ENDBRANCH  31  32
ENDBRANCH  30  31
ENDBRANCH  29  30
ENDBRANCH  28  29
ENDBRANCH  27  28
ENDBRANCH  26  27
ENDBRANCH  25  26
ENDBRANCH   1  25
TORSDOF 17
ENDMDL
MODEL 12
REMARK VINA RESULT:    -5.642      1.905      3.695
REMARK INTER + INTRA:         -18.050
REMARK INTER:                 -13.163
REMARK INTRA:                  -4.887
REMARK UNBOUND:                -6.801
REMARK  Name = cpd28.pdb
REMARK  19 active torsions:
REMARK  status: ('A' for Active; 'I' for Inactive)
REMARK    1  A    between atoms: C_1  and  C_2
REMARK    2  A    between atoms: C_6  and  N_7
REMARK    3  A    between atoms: N_7  and  C_8
REMARK    4  A    between atoms: C_13  and  C_14
REMARK    5  A    between atoms: N_16  and  C_17
REMARK    6  A    between atoms: C_17  and  C_18
REMARK    7  A    between atoms: C_18  and  C_19
REMARK    8  A    between atoms: C_19  and  C_20
REMARK    9  A    between atoms: C_20  and  C_21
REMARK   10  A    between atoms: C_21  and  C_22
REMARK   11  A    between atoms: C_22  and  C_23
REMARK   12  A    between atoms: C_23  and  C_24
REMARK   13  A    between atoms: C_24  and  C_25
REMARK   14  A    between atoms: C_25  and  C_26
REMARK   15  A    between atoms: C_26  and  C_27
REMARK   16  A    between atoms: C_27  and  C_28
REMARK   17  A    between atoms: C_28  and  N_29
REMARK   18  A    between atoms: N_29  and  C_30
REMARK   19  A    between atoms: C_44  and  C_45
REMARK                            x       y       z     vdW  Elec       q    Type
REMARK                         _______ _______ _______ _____ _____    ______ ____
ROOT
ATOM      1  C   UNL A   1      42.395 -16.736 -39.840  0.00  0.00    -0.053 C 
ENDROOT
BRANCH   1   2
ATOM      2  C   UNL A   1      42.254 -15.293 -40.335  0.00  0.00    -0.052 C 
BRANCH   2   3
ATOM      3  C   UNL A   1      43.456 -14.874 -41.187  0.00  0.00    -0.037 C 
BRANCH   3   4
ATOM      4  C   UNL A   1      44.757 -14.819 -40.383  0.00  0.00    +0.012 C 
BRANCH   4   7
ATOM      5  C   UNL A   1      46.654 -16.492 -40.554  0.00  0.00    +0.246 C 
ATOM      6  O   UNL A   1      47.313 -17.200 -41.309  0.00  0.00    -0.270 OA
ATOM      7  N   UNL A   1      45.859 -15.491 -41.054  0.00  0.00    -0.311 N 
ATOM      8  H   UNL A   1      46.056 -15.195 -41.972  0.00  0.00    +0.000 HD
BRANCH   5  14
ATOM      9  C   UNL A   1      46.056 -17.790 -38.475  0.00  0.00    +0.044 A 
ATOM     10  C   UNL A   1      46.206 -17.926 -37.085  0.00  0.00    -0.040 A 
ATOM     11  C   UNL A   1      46.919 -16.985 -36.335  0.00  0.00    -0.060 A 
ATOM     12  C   UNL A   1      47.513 -15.893 -36.961  0.00  0.00    -0.061 A 
ATOM     13  C   UNL A   1      47.413 -15.753 -38.344  0.00  0.00    -0.048 A 
ATOM     14  C   UNL A   1      46.719 -16.713 -39.095  0.00  0.00    +0.058 A 
BRANCH   9  15
ATOM     15  N   UNL A   1      45.353 -18.773 -39.222  0.00  0.00    -0.314 N 
ATOM     16  H   UNL A   1      44.388 -18.624 -39.338  0.00  0.00    +0.000 HD
BRANCH  15  22
ATOM     17  C   UNL A   1      45.350 -22.106 -42.952  0.00  0.00    -0.039 C 
ATOM     18  C   UNL A   1      45.835 -21.605 -41.618  0.00  0.00    -0.046 A 
ATOM     19  C   UNL A   1      46.751 -22.388 -40.899  0.00  0.00    -0.058 A 
ATOM     20  C   UNL A   1      47.213 -21.978 -39.653  0.00  0.00    -0.060 A 
ATOM     21  C   UNL A   1      46.769 -20.774 -39.111  0.00  0.00    -0.040 A 
ATOM     22  C   UNL A   1      45.885 -19.947 -39.820  0.00  0.00    +0.035 A 
ATOM     23  C   UNL A   1      45.407 -20.366 -41.084  0.00  0.00    -0.026 A 
ATOM     24  C   UNL A   1      44.410 -19.512 -41.832  0.00  0.00    -0.038 C 
ENDBRANCH  15  22
ENDBRANCH   9  15
ENDBRANCH   5  14
ENDBRANCH   4   7
ENDBRANCH   3   4
ENDBRANCH   2   3
ENDBRANCH   1   2
BRANCH   1  25
ATOM     25  C   UNL A   1      42.402 -16.848 -38.311  0.00  0.00    -0.053 C 
BRANCH  25  26
ATOM     26  C   UNL A   1      42.535 -15.520 -37.557  0.00  0.00    -0.053 C 
BRANCH  26  27
ATOM     27  C   UNL A   1      42.293 -15.621 -36.053  0.00  0.00    -0.053 C 
BRANCH  27  28
ATOM     28  C   UNL A   1      43.586 -15.928 -35.293  0.00  0.00    -0.053 C 
BRANCH  28  29
ATOM     29  C   UNL A   1      43.296 -16.719 -34.018  0.00  0.00    -0.053 C 
BRANCH  29  30
ATOM     30  C   UNL A   1      44.474 -17.557 -33.510  0.00  0.00    -0.052 C 
BRANCH  30  31
ATOM     31  C   UNL A   1      44.446 -19.026 -33.945  0.00  0.00    -0.037 C 
BRANCH  31  32
ATOM     32  C   UNL A   1      43.390 -19.297 -35.021  0.00  0.00    +0.009 C 
BRANCH  32  33
ATOM     33  N   UNL A   1      43.390 -20.733 -35.341  0.00  0.00    -0.343 N 
ATOM     34  H   UNL A   1      44.183 -21.315 -35.283  0.00  0.00    +0.000 HD
BRANCH  33  35
ATOM     35  C   UNL A   1      42.093 -21.173 -35.748  0.00  0.00    +0.041 A 
ATOM     36  C   UNL A   1      41.154 -21.513 -34.755  0.00  0.00    -0.005 A 
ATOM     37  C   UNL A   1      39.905 -21.973 -35.175  0.00  0.00    +0.047 A 
ATOM     38  N   UNL A   1      39.581 -22.150 -36.478  0.00  0.00    -0.251 NA
ATOM     39  C   UNL A   1      40.482 -21.846 -37.421  0.00  0.00    +0.073 A 
ATOM     40  C   UNL A   1      40.117 -22.033 -38.748  0.00  0.00    -0.036 A 
ATOM     41  C   UNL A   1      40.986 -21.750 -39.803  0.00  0.00    -0.060 A 
ATOM     42  C   UNL A   1      42.256 -21.266 -39.529  0.00  0.00    -0.061 A 
ATOM     43  C   UNL A   1      42.645 -21.068 -38.205  0.00  0.00    -0.051 A 
ATOM     44  C   UNL A   1      41.767 -21.352 -37.124  0.00  0.00    +0.021 A 
ATOM     45  C   UNL A   1      38.832 -22.366 -34.192  0.00  0.00    -0.010 C 
ATOM     46  C   UNL A   1      39.024 -21.747 -32.813  0.00  0.00    -0.047 C 
ATOM     47  C   UNL A   1      40.456 -21.961 -32.345  0.00  0.00    -0.049 C 
ATOM     48  C   UNL A   1      41.438 -21.270 -33.291  0.00  0.00    -0.024 C 
ENDBRANCH  33  35
ENDBRANCH  32  33
ENDBRANCH  31  32
ENDBRANCH  30  31
ENDBRANCH  29  30
ENDBRANCH  28  29
ENDBRANCH  27  28
ENDBRANCH  26  27
ENDBRANCH  25  26
ENDBRANCH   1  25
TORSDOF 17
ENDMDL
MODEL 13
REMARK VINA RESULT:    -5.640      2.006      4.445
REMARK INTER + INTRA:         -18.046
REMARK INTER:                 -11.956
REMARK INTRA:                  -6.089
REMARK UNBOUND:                -6.801
REMARK  Name = cpd28.pdb
REMARK  19 active torsions:
REMARK  status: ('A' for Active; 'I' for Inactive)
REMARK    1  A    between atoms: C_1  and  C_2
REMARK    2  A    between atoms: C_6  and  N_7
REMARK    3  A    between atoms: N_7  and  C_8
REMARK    4  A    between atoms: C_13  and  C_14
REMARK    5  A    between atoms: N_16  and  C_17
REMARK    6  A    between atoms: C_17  and  C_18
REMARK    7  A    between atoms: C_18  and  C_19
REMARK    8  A    between atoms: C_19  and  C_20
REMARK    9  A    between atoms: C_20  and  C_21
REMARK   10  A    between atoms: C_21  and  C_22
REMARK   11  A    between atoms: C_22  and  C_23
REMARK   12  A    between atoms: C_23  and  C_24
REMARK   13  A    between atoms: C_24  and  C_25
REMARK   14  A    between atoms: C_25  and  C_26
REMARK   15  A    between atoms: C_26  and  C_27
REMARK   16  A    between atoms: C_27  and  C_28
REMARK   17  A    between atoms: C_28  and  N_29
REMARK   18  A    between atoms: N_29  and  C_30
REMARK   19  A    between atoms: C_44  and  C_45
REMARK                            x       y       z     vdW  Elec       q    Type
REMARK                         _______ _______ _______ _____ _____    ______ ____
ROOT
ATOM      1  C   UNL A   1      46.546 -19.244 -34.912  0.00  0.00    -0.053 C 
ENDROOT
BRANCH   1   2
ATOM      2  C   UNL A   1      45.757 -20.129 -35.884  0.00  0.00    -0.052 C 
BRANCH   2   3
ATOM      3  C   UNL A   1      44.275 -20.199 -35.500  0.00  0.00    -0.037 C 
BRANCH   3   4
ATOM      4  C   UNL A   1      43.381 -19.405 -36.456  0.00  0.00    +0.012 C 
BRANCH   4   7
ATOM      5  C   UNL A   1      42.469 -20.163 -38.697  0.00  0.00    +0.246 C 
ATOM      6  O   UNL A   1      42.073 -21.119 -39.357  0.00  0.00    -0.270 OA
ATOM      7  N   UNL A   1      42.601 -20.264 -37.334  0.00  0.00    -0.311 N 
ATOM      8  H   UNL A   1      42.113 -21.001 -36.903  0.00  0.00    +0.000 HD
BRANCH   5  14
ATOM      9  C   UNL A   1      43.625 -18.850 -40.515  0.00  0.00    +0.044 A 
ATOM     10  C   UNL A   1      43.858 -17.593 -41.096  0.00  0.00    -0.040 A 
ATOM     11  C   UNL A   1      43.360 -16.421 -40.518  0.00  0.00    -0.060 A 
ATOM     12  C   UNL A   1      42.603 -16.481 -39.351  0.00  0.00    -0.061 A 
ATOM     13  C   UNL A   1      42.324 -17.718 -38.774  0.00  0.00    -0.048 A 
ATOM     14  C   UNL A   1      42.804 -18.893 -39.372  0.00  0.00    +0.058 A 
BRANCH   9  15
ATOM     15  N   UNL A   1      44.115 -20.031 -41.135  0.00  0.00    -0.314 N 
ATOM     16  H   UNL A   1      43.563 -20.403 -41.860  0.00  0.00    +0.000 HD
BRANCH  15  22
ATOM     17  C   UNL A   1      47.398 -23.646 -42.216  0.00  0.00    -0.039 C 
ATOM     18  C   UNL A   1      46.878 -22.545 -41.332  0.00  0.00    -0.046 A 
ATOM     19  C   UNL A   1      47.531 -22.294 -40.116  0.00  0.00    -0.058 A 
ATOM     20  C   UNL A   1      47.075 -21.301 -39.255  0.00  0.00    -0.060 A 
ATOM     21  C   UNL A   1      45.962 -20.540 -39.603  0.00  0.00    -0.040 A 
ATOM     22  C   UNL A   1      45.310 -20.735 -40.829  0.00  0.00    +0.035 A 
ATOM     23  C   UNL A   1      45.766 -21.751 -41.703  0.00  0.00    -0.026 A 
ATOM     24  C   UNL A   1      45.038 -22.010 -43.000  0.00  0.00    -0.038 C 
ENDBRANCH  15  22
ENDBRANCH   9  15
ENDBRANCH   5  14
ENDBRANCH   4   7
ENDBRANCH   3   4
ENDBRANCH   2   3
ENDBRANCH   1   2
BRANCH   1  25
ATOM     25  C   UNL A   1      47.193 -18.034 -35.594  0.00  0.00    -0.053 C 
BRANCH  25  26
ATOM     26  C   UNL A   1      46.914 -17.900 -37.096  0.00  0.00    -0.053 C 
BRANCH  26  27
ATOM     27  C   UNL A   1      45.784 -16.934 -37.444  0.00  0.00    -0.053 C 
BRANCH  27  28
ATOM     28  C   UNL A   1      45.644 -15.828 -36.394  0.00  0.00    -0.053 C 
BRANCH  28  29
ATOM     29  C   UNL A   1      44.250 -15.842 -35.767  0.00  0.00    -0.053 C 
BRANCH  29  30
ATOM     30  C   UNL A   1      44.229 -16.203 -34.278  0.00  0.00    -0.052 C 
BRANCH  30  31
ATOM     31  C   UNL A   1      42.827 -16.351 -33.678  0.00  0.00    -0.037 C 
BRANCH  31  32
ATOM     32  C   UNL A   1      41.733 -16.387 -34.749  0.00  0.00    +0.009 C 
BRANCH  32  33
ATOM     33  N   UNL A   1      40.525 -17.003 -34.179  0.00  0.00    -0.343 N 
ATOM     34  H   UNL A   1      40.022 -16.637 -33.416  0.00  0.00    +0.000 HD
BRANCH  33  35
ATOM     35  C   UNL A   1      40.176 -18.202 -34.876  0.00  0.00    +0.041 A 
ATOM     36  C   UNL A   1      40.477 -19.441 -34.278  0.00  0.00    -0.005 A 
ATOM     37  C   UNL A   1      40.159 -20.598 -34.991  0.00  0.00    +0.047 A 
ATOM     38  N   UNL A   1      39.626 -20.577 -36.236  0.00  0.00    -0.251 NA
ATOM     39  C   UNL A   1      39.360 -19.398 -36.812  0.00  0.00    +0.073 A 
ATOM     40  C   UNL A   1      38.810 -19.411 -38.087  0.00  0.00    -0.036 A 
ATOM     41  C   UNL A   1      38.501 -18.235 -38.773  0.00  0.00    -0.060 A 
ATOM     42  C   UNL A   1      38.747 -17.010 -38.173  0.00  0.00    -0.061 A 
ATOM     43  C   UNL A   1      39.298 -16.972 -36.892  0.00  0.00    -0.051 A 
ATOM     44  C   UNL A   1      39.615 -18.162 -36.184  0.00  0.00    +0.021 A 
ATOM     45  C   UNL A   1      40.442 -21.972 -34.441  0.00  0.00    -0.010 C 
ATOM     46  C   UNL A   1      40.594 -21.994 -32.924  0.00  0.00    -0.047 C 
ATOM     47  C   UNL A   1      41.553 -20.898 -32.485  0.00  0.00    -0.049 C 
ATOM     48  C   UNL A   1      41.006 -19.522 -32.865  0.00  0.00    -0.024 C 
ENDBRANCH  33  35
ENDBRANCH  32  33
ENDBRANCH  31  32
ENDBRANCH  30  31
ENDBRANCH  29  30
ENDBRANCH  28  29
ENDBRANCH  27  28
ENDBRANCH  26  27
ENDBRANCH  25  26
ENDBRANCH   1  25
TORSDOF 17
ENDMDL
MODEL 14
REMARK VINA RESULT:    -5.621      1.671      3.923
REMARK INTER + INTRA:         -18.010
REMARK INTER:                 -12.849
REMARK INTRA:                  -5.161
REMARK UNBOUND:                -6.801
REMARK  Name = cpd28.pdb
REMARK  19 active torsions:
REMARK  status: ('A' for Active; 'I' for Inactive)
REMARK    1  A    between atoms: C_1  and  C_2
REMARK    2  A    between atoms: C_6  and  N_7
REMARK    3  A    between atoms: N_7  and  C_8
REMARK    4  A    between atoms: C_13  and  C_14
REMARK    5  A    between atoms: N_16  and  C_17
REMARK    6  A    between atoms: C_17  and  C_18
REMARK    7  A    between atoms: C_18  and  C_19
REMARK    8  A    between atoms: C_19  and  C_20
REMARK    9  A    between atoms: C_20  and  C_21
REMARK   10  A    between atoms: C_21  and  C_22
REMARK   11  A    between atoms: C_22  and  C_23
REMARK   12  A    between atoms: C_23  and  C_24
REMARK   13  A    between atoms: C_24  and  C_25
REMARK   14  A    between atoms: C_25  and  C_26
REMARK   15  A    between atoms: C_26  and  C_27
REMARK   16  A    between atoms: C_27  and  C_28
REMARK   17  A    between atoms: C_28  and  N_29
REMARK   18  A    between atoms: N_29  and  C_30
REMARK   19  A    between atoms: C_44  and  C_45
REMARK                            x       y       z     vdW  Elec       q    Type
REMARK                         _______ _______ _______ _____ _____    ______ ____
ROOT
ATOM      1  C   UNL A   1      41.043 -16.990 -36.906  0.00  0.00    -0.053 C 
ENDROOT
BRANCH   1   2
ATOM      2  C   UNL A   1      42.165 -17.945 -37.325  0.00  0.00    -0.052 C 
BRANCH   2   3
ATOM      3  C   UNL A   1      43.056 -17.322 -38.405  0.00  0.00    -0.037 C 
BRANCH   3   4
ATOM      4  C   UNL A   1      44.278 -16.609 -37.819  0.00  0.00    +0.012 C 
BRANCH   4   7
ATOM      5  C   UNL A   1      46.433 -17.660 -38.644  0.00  0.00    +0.246 C 
ATOM      6  O   UNL A   1      47.169 -17.832 -39.611  0.00  0.00    -0.270 OA
ATOM      7  N   UNL A   1      45.447 -16.705 -38.680  0.00  0.00    -0.311 N 
ATOM      8  H   UNL A   1      45.542 -16.006 -39.366  0.00  0.00    +0.000 HD
BRANCH   5  14
ATOM      9  C   UNL A   1      46.066 -19.777 -37.323  0.00  0.00    +0.044 A 
ATOM     10  C   UNL A   1      46.316 -20.486 -36.137  0.00  0.00    -0.040 A 
ATOM     11  C   UNL A   1      47.010 -19.901 -35.073  0.00  0.00    -0.060 A 
ATOM     12  C   UNL A   1      47.484 -18.596 -35.177  0.00  0.00    -0.061 A 
ATOM     13  C   UNL A   1      47.283 -17.882 -36.356  0.00  0.00    -0.048 A 
ATOM     14  C   UNL A   1      46.609 -18.482 -37.431  0.00  0.00    +0.058 A 
BRANCH   9  15
ATOM     15  N   UNL A   1      45.385 -20.401 -38.403  0.00  0.00    -0.314 N 
ATOM     16  H   UNL A   1      44.403 -20.343 -38.391  0.00  0.00    +0.000 HD
BRANCH  15  22
ATOM     17  C   UNL A   1      45.032 -22.165 -43.070  0.00  0.00    -0.039 C 
ATOM     18  C   UNL A   1      45.755 -22.011 -41.759  0.00  0.00    -0.046 A 
ATOM     19  C   UNL A   1      46.977 -22.678 -41.583  0.00  0.00    -0.058 A 
ATOM     20  C   UNL A   1      47.672 -22.583 -40.383  0.00  0.00    -0.060 A 
ATOM     21  C   UNL A   1      47.158 -21.814 -39.342  0.00  0.00    -0.040 A 
ATOM     22  C   UNL A   1      45.960 -21.100 -39.498  0.00  0.00    +0.035 A 
ATOM     23  C   UNL A   1      45.246 -21.202 -40.715  0.00  0.00    -0.026 A 
ATOM     24  C   UNL A   1      43.926 -20.485 -40.875  0.00  0.00    -0.038 C 
ENDBRANCH  15  22
ENDBRANCH   9  15
ENDBRANCH   5  14
ENDBRANCH   4   7
ENDBRANCH   3   4
ENDBRANCH   2   3
ENDBRANCH   1   2
BRANCH   1  25
ATOM     25  C   UNL A   1      39.672 -17.395 -37.460  0.00  0.00    -0.053 C 
BRANCH  25  26
ATOM     26  C   UNL A   1      39.698 -18.114 -38.813  0.00  0.00    -0.053 C 
BRANCH  26  27
ATOM     27  C   UNL A   1      39.179 -19.549 -38.774  0.00  0.00    -0.053 C 
BRANCH  27  28
ATOM     28  C   UNL A   1      40.093 -20.501 -39.553  0.00  0.00    -0.053 C 
BRANCH  28  29
ATOM     29  C   UNL A   1      41.011 -21.273 -38.605  0.00  0.00    -0.053 C 
BRANCH  29  30
ATOM     30  C   UNL A   1      40.279 -22.209 -37.637  0.00  0.00    -0.052 C 
BRANCH  30  31
ATOM     31  C   UNL A   1      41.094 -22.615 -36.405  0.00  0.00    -0.037 C 
BRANCH  31  32
ATOM     32  C   UNL A   1      42.005 -21.489 -35.909  0.00  0.00    +0.009 C 
BRANCH  32  33
ATOM     33  N   UNL A   1      41.981 -21.465 -34.439  0.00  0.00    -0.343 N 
ATOM     34  H   UNL A   1      42.395 -22.149 -33.865  0.00  0.00    +0.000 HD
BRANCH  33  35
ATOM     35  C   UNL A   1      41.278 -20.319 -33.951  0.00  0.00    +0.041 A 
ATOM     36  C   UNL A   1      41.997 -19.128 -33.735  0.00  0.00    -0.005 A 
ATOM     37  C   UNL A   1      41.298 -18.033 -33.226  0.00  0.00    +0.047 A 
ATOM     38  N   UNL A   1      39.986 -18.082 -32.892  0.00  0.00    -0.251 NA
ATOM     39  C   UNL A   1      39.308 -19.221 -33.079  0.00  0.00    +0.073 A 
ATOM     40  C   UNL A   1      37.964 -19.238 -32.731  0.00  0.00    -0.036 A 
ATOM     41  C   UNL A   1      37.172 -20.377 -32.884  0.00  0.00    -0.060 A 
ATOM     42  C   UNL A   1      37.735 -21.535 -33.398  0.00  0.00    -0.061 A 
ATOM     43  C   UNL A   1      39.083 -21.542 -33.757  0.00  0.00    -0.051 A 
ATOM     44  C   UNL A   1      39.897 -20.388 -33.606  0.00  0.00    +0.021 A 
ATOM     45  C   UNL A   1      41.976 -16.715 -32.956  0.00  0.00    -0.010 C 
ATOM     46  C   UNL A   1      43.271 -16.533 -33.738  0.00  0.00    -0.047 C 
ATOM     47  C   UNL A   1      44.146 -17.767 -33.583  0.00  0.00    -0.049 C 
ATOM     48  C   UNL A   1      43.443 -18.998 -34.154  0.00  0.00    -0.024 C 
ENDBRANCH  33  35
ENDBRANCH  32  33
ENDBRANCH  31  32
ENDBRANCH  30  31
ENDBRANCH  29  30
ENDBRANCH  28  29
ENDBRANCH  27  28
ENDBRANCH  26  27
ENDBRANCH  25  26
ENDBRANCH   1  25
TORSDOF 17
ENDMDL
MODEL 15
REMARK VINA RESULT:    -5.621      1.467      4.074
REMARK INTER + INTRA:         -18.008
REMARK INTER:                 -12.400
REMARK INTRA:                  -5.608
REMARK UNBOUND:                -6.801
REMARK  Name = cpd28.pdb
REMARK  19 active torsions:
REMARK  status: ('A' for Active; 'I' for Inactive)
REMARK    1  A    between atoms: C_1  and  C_2
REMARK    2  A    between atoms: C_6  and  N_7
REMARK    3  A    between atoms: N_7  and  C_8
REMARK    4  A    between atoms: C_13  and  C_14
REMARK    5  A    between atoms: N_16  and  C_17
REMARK    6  A    between atoms: C_17  and  C_18
REMARK    7  A    between atoms: C_18  and  C_19
REMARK    8  A    between atoms: C_19  and  C_20
REMARK    9  A    between atoms: C_20  and  C_21
REMARK   10  A    between atoms: C_21  and  C_22
REMARK   11  A    between atoms: C_22  and  C_23
REMARK   12  A    between atoms: C_23  and  C_24
REMARK   13  A    between atoms: C_24  and  C_25
REMARK   14  A    between atoms: C_25  and  C_26
REMARK   15  A    between atoms: C_26  and  C_27
REMARK   16  A    between atoms: C_27  and  C_28
REMARK   17  A    between atoms: C_28  and  N_29
REMARK   18  A    between atoms: N_29  and  C_30
REMARK   19  A    between atoms: C_44  and  C_45
REMARK                            x       y       z     vdW  Elec       q    Type
REMARK                         _______ _______ _______ _____ _____    ______ ____
ROOT
ATOM      1  C   UNL A   1      41.942 -17.314 -39.137  0.00  0.00    -0.053 C 
ENDROOT
BRANCH   1   2
ATOM      2  C   UNL A   1      42.744 -16.621 -38.030  0.00  0.00    -0.052 C 
BRANCH   2   3
ATOM      3  C   UNL A   1      43.721 -15.591 -38.608  0.00  0.00    -0.037 C 
BRANCH   3   4
ATOM      4  C   UNL A   1      44.624 -14.972 -37.538  0.00  0.00    +0.012 C 
BRANCH   4   7
ATOM      5  C   UNL A   1      46.884 -16.068 -37.880  0.00  0.00    +0.246 C 
ATOM      6  O   UNL A   1      47.929 -16.051 -38.524  0.00  0.00    -0.270 OA
ATOM      7  N   UNL A   1      46.029 -14.994 -37.912  0.00  0.00    -0.311 N 
ATOM      8  H   UNL A   1      46.411 -14.142 -38.223  0.00  0.00    +0.000 HD
BRANCH   5  14
ATOM      9  C   UNL A   1      46.624 -18.558 -37.575  0.00  0.00    +0.044 A 
ATOM     10  C   UNL A   1      46.304 -19.613 -36.704  0.00  0.00    -0.040 A 
ATOM     11  C   UNL A   1      45.849 -19.370 -35.404  0.00  0.00    -0.060 A 
ATOM     12  C   UNL A   1      45.716 -18.065 -34.939  0.00  0.00    -0.061 A 
ATOM     13  C   UNL A   1      46.062 -17.000 -35.768  0.00  0.00    -0.048 A 
ATOM     14  C   UNL A   1      46.543 -17.249 -37.062  0.00  0.00    +0.058 A 
BRANCH   9  15
ATOM     15  N   UNL A   1      47.113 -18.827 -38.881  0.00  0.00    -0.314 N 
ATOM     16  H   UNL A   1      47.919 -18.333 -39.155  0.00  0.00    +0.000 HD
BRANCH  15  22
ATOM     17  C   UNL A   1      44.300 -19.655 -42.933  0.00  0.00    -0.039 C 
ATOM     18  C   UNL A   1      45.146 -20.131 -41.784  0.00  0.00    -0.046 A 
ATOM     19  C   UNL A   1      45.303 -21.513 -41.592  0.00  0.00    -0.058 A 
ATOM     20  C   UNL A   1      46.059 -22.002 -40.531  0.00  0.00    -0.060 A 
ATOM     21  C   UNL A   1      46.675 -21.116 -39.651  0.00  0.00    -0.040 A 
ATOM     22  C   UNL A   1      46.573 -19.729 -39.837  0.00  0.00    +0.035 A 
ATOM     23  C   UNL A   1      45.797 -19.228 -40.910  0.00  0.00    -0.026 A 
ATOM     24  C   UNL A   1      45.632 -17.737 -41.087  0.00  0.00    -0.038 C 
ENDBRANCH  15  22
ENDBRANCH   9  15
ENDBRANCH   5  14
ENDBRANCH   4   7
ENDBRANCH   3   4
ENDBRANCH   2   3
ENDBRANCH   1   2
BRANCH   1  25
ATOM     25  C   UNL A   1      42.528 -18.671 -39.543  0.00  0.00    -0.053 C 
BRANCH  25  26
ATOM     26  C   UNL A   1      43.023 -19.543 -38.384  0.00  0.00    -0.053 C 
BRANCH  26  27
ATOM     27  C   UNL A   1      42.997 -21.044 -38.669  0.00  0.00    -0.053 C 
BRANCH  27  28
ATOM     28  C   UNL A   1      41.860 -21.741 -37.917  0.00  0.00    -0.053 C 
BRANCH  28  29
ATOM     29  C   UNL A   1      40.558 -21.680 -38.717  0.00  0.00    -0.053 C 
BRANCH  29  30
ATOM     30  C   UNL A   1      39.326 -21.294 -37.892  0.00  0.00    -0.052 C 
BRANCH  30  31
ATOM     31  C   UNL A   1      38.969 -19.805 -37.938  0.00  0.00    -0.037 C 
BRANCH  31  32
ATOM     32  C   UNL A   1      39.722 -18.989 -36.883  0.00  0.00    +0.009 C 
BRANCH  32  33
ATOM     33  N   UNL A   1      39.060 -19.164 -35.581  0.00  0.00    -0.343 N 
ATOM     34  H   UNL A   1      38.098 -19.022 -35.423  0.00  0.00    +0.000 HD
BRANCH  33  35
ATOM     35  C   UNL A   1      39.993 -19.566 -34.576  0.00  0.00    +0.041 A 
ATOM     36  C   UNL A   1      40.977 -18.646 -34.163  0.00  0.00    -0.005 A 
ATOM     37  C   UNL A   1      41.899 -19.072 -33.205  0.00  0.00    +0.047 A 
ATOM     38  N   UNL A   1      41.916 -20.328 -32.699  0.00  0.00    -0.251 NA
ATOM     39  C   UNL A   1      40.992 -21.207 -33.108  0.00  0.00    +0.073 A 
ATOM     40  C   UNL A   1      41.034 -22.486 -32.568  0.00  0.00    -0.036 A 
ATOM     41  C   UNL A   1      40.119 -23.475 -32.932  0.00  0.00    -0.060 A 
ATOM     42  C   UNL A   1      39.133 -23.183 -33.862  0.00  0.00    -0.061 A 
ATOM     43  C   UNL A   1      39.071 -21.905 -34.418  0.00  0.00    -0.051 A 
ATOM     44  C   UNL A   1      39.996 -20.891 -34.053  0.00  0.00    +0.021 A 
ATOM     45  C   UNL A   1      42.992 -18.166 -32.699  0.00  0.00    -0.010 C 
ATOM     46  C   UNL A   1      42.692 -16.686 -32.906  0.00  0.00    -0.047 C 
ATOM     47  C   UNL A   1      42.249 -16.445 -34.341  0.00  0.00    -0.049 C 
ATOM     48  C   UNL A   1      40.961 -17.214 -34.642  0.00  0.00    -0.024 C 
ENDBRANCH  33  35
ENDBRANCH  32  33
ENDBRANCH  31  32
ENDBRANCH  30  31
ENDBRANCH  29  30
ENDBRANCH  28  29
ENDBRANCH  27  28
ENDBRANCH  26  27
ENDBRANCH  25  26
ENDBRANCH   1  25
TORSDOF 17
ENDMDL
MODEL 16
REMARK VINA RESULT:    -5.597      2.023      5.046
REMARK INTER + INTRA:         -17.961
REMARK INTER:                 -13.239
REMARK INTRA:                  -4.721
REMARK UNBOUND:                -6.801
REMARK  Name = cpd28.pdb
REMARK  19 active torsions:
REMARK  status: ('A' for Active; 'I' for Inactive)
REMARK    1  A    between atoms: C_1  and  C_2
REMARK    2  A    between atoms: C_6  and  N_7
REMARK    3  A    between atoms: N_7  and  C_8
REMARK    4  A    between atoms: C_13  and  C_14
REMARK    5  A    between atoms: N_16  and  C_17
REMARK    6  A    between atoms: C_17  and  C_18
REMARK    7  A    between atoms: C_18  and  C_19
REMARK    8  A    between atoms: C_19  and  C_20
REMARK    9  A    between atoms: C_20  and  C_21
REMARK   10  A    between atoms: C_21  and  C_22
REMARK   11  A    between atoms: C_22  and  C_23
REMARK   12  A    between atoms: C_23  and  C_24
REMARK   13  A    between atoms: C_24  and  C_25
REMARK   14  A    between atoms: C_25  and  C_26
REMARK   15  A    between atoms: C_26  and  C_27
REMARK   16  A    between atoms: C_27  and  C_28
REMARK   17  A    between atoms: C_28  and  N_29
REMARK   18  A    between atoms: N_29  and  C_30
REMARK   19  A    between atoms: C_44  and  C_45
REMARK                            x       y       z     vdW  Elec       q    Type
REMARK                         _______ _______ _______ _____ _____    ______ ____
ROOT
ATOM      1  C   UNL A   1      40.296 -21.663 -38.805  0.00  0.00    -0.053 C 
ENDROOT
BRANCH   1   2
ATOM      2  C   UNL A   1      41.220 -21.282 -39.968  0.00  0.00    -0.052 C 
BRANCH   2   3
ATOM      3  C   UNL A   1      42.636 -21.827 -39.758  0.00  0.00    -0.037 C 
BRANCH   3   4
ATOM      4  C   UNL A   1      43.652 -20.722 -39.456  0.00  0.00    +0.012 C 
BRANCH   4   7
ATOM      5  C   UNL A   1      44.459 -19.772 -41.664  0.00  0.00    +0.246 C 
ATOM      6  O   UNL A   1      44.182 -19.047 -42.615  0.00  0.00    -0.270 OA
ATOM      7  N   UNL A   1      43.718 -19.720 -40.509  0.00  0.00    -0.311 N 
ATOM      8  H   UNL A   1      43.170 -18.913 -40.379  0.00  0.00    +0.000 HD
BRANCH   5  14
ATOM      9  C   UNL A   1      46.892 -20.348 -41.336  0.00  0.00    +0.044 A 
ATOM     10  C   UNL A   1      47.900 -21.321 -41.444  0.00  0.00    -0.040 A 
ATOM     11  C   UNL A   1      47.647 -22.568 -42.023  0.00  0.00    -0.060 A 
ATOM     12  C   UNL A   1      46.374 -22.878 -42.494  0.00  0.00    -0.061 A 
ATOM     13  C   UNL A   1      45.346 -21.946 -42.365  0.00  0.00    -0.048 A 
ATOM     14  C   UNL A   1      45.598 -20.706 -41.760  0.00  0.00    +0.058 A 
BRANCH   9  15
ATOM     15  N   UNL A   1      47.164 -19.098 -40.717  0.00  0.00    -0.314 N 
ATOM     16  H   UNL A   1      47.468 -18.375 -41.311  0.00  0.00    +0.000 HD
BRANCH  15  22
ATOM     17  C   UNL A   1      47.031 -15.665 -37.082  0.00  0.00    -0.039 C 
ATOM     18  C   UNL A   1      47.043 -17.091 -37.562  0.00  0.00    -0.046 A 
ATOM     19  C   UNL A   1      47.057 -18.122 -36.609  0.00  0.00    -0.058 A 
ATOM     20  C   UNL A   1      47.089 -19.454 -37.005  0.00  0.00    -0.060 A 
ATOM     21  C   UNL A   1      47.101 -19.777 -38.359  0.00  0.00    -0.040 A 
ATOM     22  C   UNL A   1      47.046 -18.773 -39.339  0.00  0.00    +0.035 A 
ATOM     23  C   UNL A   1      47.022 -17.416 -38.940  0.00  0.00    -0.026 A 
ATOM     24  C   UNL A   1      47.021 -16.325 -39.985  0.00  0.00    -0.038 C 
ENDBRANCH  15  22
ENDBRANCH   9  15
ENDBRANCH   5  14
ENDBRANCH   4   7
ENDBRANCH   3   4
ENDBRANCH   2   3
ENDBRANCH   1   2
BRANCH   1  25
ATOM     25  C   UNL A   1      39.742 -20.445 -38.056  0.00  0.00    -0.053 C 
BRANCH  25  26
ATOM     26  C   UNL A   1      40.776 -19.635 -37.267  0.00  0.00    -0.053 C 
BRANCH  26  27
ATOM     27  C   UNL A   1      41.068 -18.252 -37.844  0.00  0.00    -0.053 C 
BRANCH  27  28
ATOM     28  C   UNL A   1      41.941 -17.419 -36.900  0.00  0.00    -0.053 C 
BRANCH  28  29
ATOM     29  C   UNL A   1      43.391 -17.903 -36.928  0.00  0.00    -0.053 C 
BRANCH  29  30
ATOM     30  C   UNL A   1      43.649 -19.179 -36.119  0.00  0.00    -0.052 C 
BRANCH  30  31
ATOM     31  C   UNL A   1      43.917 -18.945 -34.629  0.00  0.00    -0.037 C 
BRANCH  31  32
ATOM     32  C   UNL A   1      43.435 -20.109 -33.758  0.00  0.00    +0.009 C 
BRANCH  32  33
ATOM     33  N   UNL A   1      42.512 -19.592 -32.736  0.00  0.00    -0.343 N 
ATOM     34  H   UNL A   1      42.772 -19.372 -31.812  0.00  0.00    +0.000 HD
BRANCH  33  35
ATOM     35  C   UNL A   1      41.188 -19.450 -33.258  0.00  0.00    +0.041 A 
ATOM     36  C   UNL A   1      40.448 -20.614 -33.544  0.00  0.00    -0.005 A 
ATOM     37  C   UNL A   1      39.172 -20.452 -34.085  0.00  0.00    +0.047 A 
ATOM     38  N   UNL A   1      38.642 -19.242 -34.385  0.00  0.00    -0.251 NA
ATOM     39  C   UNL A   1      39.355 -18.137 -34.130  0.00  0.00    +0.073 A 
ATOM     40  C   UNL A   1      38.783 -16.912 -34.445  0.00  0.00    -0.036 A 
ATOM     41  C   UNL A   1      39.446 -15.704 -34.222  0.00  0.00    -0.060 A 
ATOM     42  C   UNL A   1      40.718 -15.716 -33.670  0.00  0.00    -0.061 A 
ATOM     43  C   UNL A   1      41.313 -16.935 -33.344  0.00  0.00    -0.051 A 
ATOM     44  C   UNL A   1      40.646 -18.170 -33.566  0.00  0.00    +0.021 A 
ATOM     45  C   UNL A   1      38.301 -21.632 -34.430  0.00  0.00    -0.010 C 
ATOM     46  C   UNL A   1      38.691 -22.905 -33.688  0.00  0.00    -0.047 C 
ATOM     47  C   UNL A   1      40.190 -23.135 -33.808  0.00  0.00    -0.049 C 
ATOM     48  C   UNL A   1      40.962 -21.983 -33.166  0.00  0.00    -0.024 C 
ENDBRANCH  33  35
ENDBRANCH  32  33
ENDBRANCH  31  32
ENDBRANCH  30  31
ENDBRANCH  29  30
ENDBRANCH  28  29
ENDBRANCH  27  28
ENDBRANCH  26  27
ENDBRANCH  25  26
ENDBRANCH   1  25
TORSDOF 17
ENDMDL
MODEL 17
REMARK VINA RESULT:    -5.580      1.705      4.124
REMARK INTER + INTRA:         -17.927
REMARK INTER:                 -12.820
REMARK INTRA:                  -5.106
REMARK UNBOUND:                -6.801
REMARK  Name = cpd28.pdb
REMARK  19 active torsions:
REMARK  status: ('A' for Active; 'I' for Inactive)
REMARK    1  A    between atoms: C_1  and  C_2
REMARK    2  A    between atoms: C_6  and  N_7
REMARK    3  A    between atoms: N_7  and  C_8
REMARK    4  A    between atoms: C_13  and  C_14
REMARK    5  A    between atoms: N_16  and  C_17
REMARK    6  A    between atoms: C_17  and  C_18
REMARK    7  A    between atoms: C_18  and  C_19
REMARK    8  A    between atoms: C_19  and  C_20
REMARK    9  A    between atoms: C_20  and  C_21
REMARK   10  A    between atoms: C_21  and  C_22
REMARK   11  A    between atoms: C_22  and  C_23
REMARK   12  A    between atoms: C_23  and  C_24
REMARK   13  A    between atoms: C_24  and  C_25
REMARK   14  A    between atoms: C_25  and  C_26
REMARK   15  A    between atoms: C_26  and  C_27
REMARK   16  A    between atoms: C_27  and  C_28
REMARK   17  A    between atoms: C_28  and  N_29
REMARK   18  A    between atoms: N_29  and  C_30
REMARK   19  A    between atoms: C_44  and  C_45
REMARK                            x       y       z     vdW  Elec       q    Type
REMARK                         _______ _______ _______ _____ _____    ______ ____
ROOT
ATOM      1  C   UNL A   1      40.794 -16.058 -39.093  0.00  0.00    -0.053 C 
ENDROOT
BRANCH   1   2
ATOM      2  C   UNL A   1      41.838 -15.434 -40.026  0.00  0.00    -0.052 C 
BRANCH   2   3
ATOM      3  C   UNL A   1      43.122 -16.269 -40.067  0.00  0.00    -0.037 C 
BRANCH   3   4
ATOM      4  C   UNL A   1      44.201 -15.735 -39.122  0.00  0.00    +0.012 C 
BRANCH   4   7
ATOM      5  C   UNL A   1      46.570 -16.292 -39.834  0.00  0.00    +0.246 C 
ATOM      6  O   UNL A   1      47.430 -16.137 -40.695  0.00  0.00    -0.270 OA
ATOM      7  N   UNL A   1      45.462 -15.481 -39.801  0.00  0.00    -0.311 N 
ATOM      8  H   UNL A   1      45.530 -14.631 -40.293  0.00  0.00    +0.000 HD
BRANCH   5  14
ATOM      9  C   UNL A   1      46.934 -18.701 -39.180  0.00  0.00    +0.044 A 
ATOM     10  C   UNL A   1      47.100 -19.629 -38.138  0.00  0.00    -0.040 A 
ATOM     11  C   UNL A   1      46.985 -19.245 -36.798  0.00  0.00    -0.060 A 
ATOM     12  C   UNL A   1      46.716 -17.920 -36.468  0.00  0.00    -0.061 A 
ATOM     13  C   UNL A   1      46.585 -16.971 -37.479  0.00  0.00    -0.048 A 
ATOM     14  C   UNL A   1      46.727 -17.355 -38.821  0.00  0.00    +0.058 A 
BRANCH   9  15
ATOM     15  N   UNL A   1      47.085 -19.105 -40.533  0.00  0.00    -0.314 N 
ATOM     16  H   UNL A   1      47.753 -18.614 -41.063  0.00  0.00    +0.000 HD
BRANCH  15  22
ATOM     17  C   UNL A   1      46.981 -23.720 -42.459  0.00  0.00    -0.039 C 
ATOM     18  C   UNL A   1      46.360 -22.374 -42.202  0.00  0.00    -0.046 A 
ATOM     19  C   UNL A   1      45.098 -22.100 -42.751  0.00  0.00    -0.058 A 
ATOM     20  C   UNL A   1      44.492 -20.863 -42.559  0.00  0.00    -0.060 A 
ATOM     21  C   UNL A   1      45.138 -19.884 -41.808  0.00  0.00    -0.040 A 
ATOM     22  C   UNL A   1      46.381 -20.138 -41.210  0.00  0.00    +0.035 A 
ATOM     23  C   UNL A   1      47.004 -21.392 -41.411  0.00  0.00    -0.026 A 
ATOM     24  C   UNL A   1      48.369 -21.658 -40.821  0.00  0.00    -0.038 C 
ENDBRANCH  15  22
ENDBRANCH   9  15
ENDBRANCH   5  14
ENDBRANCH   4   7
ENDBRANCH   3   4
ENDBRANCH   2   3
ENDBRANCH   1   2
BRANCH   1  25
ATOM     25  C   UNL A   1      40.780 -15.421 -37.698  0.00  0.00    -0.053 C 
BRANCH  25  26
ATOM     26  C   UNL A   1      41.486 -16.228 -36.603  0.00  0.00    -0.053 C 
BRANCH  26  27
ATOM     27  C   UNL A   1      42.378 -15.397 -35.683  0.00  0.00    -0.053 C 
BRANCH  27  28
ATOM     28  C   UNL A   1      43.679 -16.130 -35.346  0.00  0.00    -0.053 C 
BRANCH  28  29
ATOM     29  C   UNL A   1      43.924 -16.142 -33.837  0.00  0.00    -0.053 C 
BRANCH  29  30
ATOM     30  C   UNL A   1      44.627 -17.402 -33.320  0.00  0.00    -0.052 C 
BRANCH  30  31
ATOM     31  C   UNL A   1      44.208 -18.698 -34.021  0.00  0.00    -0.037 C 
BRANCH  31  32
ATOM     32  C   UNL A   1      42.881 -19.249 -33.490  0.00  0.00    +0.009 C 
BRANCH  32  33
ATOM     33  N   UNL A   1      41.821 -18.974 -34.472  0.00  0.00    -0.343 N 
ATOM     34  H   UNL A   1      41.415 -18.089 -34.619  0.00  0.00    +0.000 HD
BRANCH  33  35
ATOM     35  C   UNL A   1      41.457 -20.158 -35.186  0.00  0.00    +0.041 A 
ATOM     36  C   UNL A   1      42.001 -20.366 -36.468  0.00  0.00    -0.005 A 
ATOM     37  C   UNL A   1      41.605 -21.511 -37.161  0.00  0.00    +0.047 A 
ATOM     38  N   UNL A   1      40.697 -22.392 -36.678  0.00  0.00    -0.251 NA
ATOM     39  C   UNL A   1      40.165 -22.182 -35.467  0.00  0.00    +0.073 A 
ATOM     40  C   UNL A   1      39.241 -23.106 -34.998  0.00  0.00    -0.036 A 
ATOM     41  C   UNL A   1      38.627 -22.974 -33.751  0.00  0.00    -0.060 A 
ATOM     42  C   UNL A   1      38.944 -21.890 -32.947  0.00  0.00    -0.061 A 
ATOM     43  C   UNL A   1      39.871 -20.950 -33.396  0.00  0.00    -0.051 A 
ATOM     44  C   UNL A   1      40.501 -21.075 -34.662  0.00  0.00    +0.021 A 
ATOM     45  C   UNL A   1      42.126 -21.823 -38.540  0.00  0.00    -0.010 C 
ATOM     46  C   UNL A   1      43.437 -21.117 -38.863  0.00  0.00    -0.047 C 
ATOM     47  C   UNL A   1      43.326 -19.639 -38.520  0.00  0.00    -0.049 C 
ATOM     48  C   UNL A   1      43.068 -19.453 -37.025  0.00  0.00    -0.024 C 
ENDBRANCH  33  35
ENDBRANCH  32  33
ENDBRANCH  31  32
ENDBRANCH  30  31
ENDBRANCH  29  30
ENDBRANCH  28  29
ENDBRANCH  27  28
ENDBRANCH  26  27
ENDBRANCH  25  26
ENDBRANCH   1  25
TORSDOF 17
ENDMDL
MODEL 18
REMARK VINA RESULT:    -5.551      1.899      3.441
REMARK INTER + INTRA:         -17.869
REMARK INTER:                 -10.445
REMARK INTRA:                  -7.424
REMARK UNBOUND:                -6.801
REMARK  Name = cpd28.pdb
REMARK  19 active torsions:
REMARK  status: ('A' for Active; 'I' for Inactive)
REMARK    1  A    between atoms: C_1  and  C_2
REMARK    2  A    between atoms: C_6  and  N_7
REMARK    3  A    between atoms: N_7  and  C_8
REMARK    4  A    between atoms: C_13  and  C_14
REMARK    5  A    between atoms: N_16  and  C_17
REMARK    6  A    between atoms: C_17  and  C_18
REMARK    7  A    between atoms: C_18  and  C_19
REMARK    8  A    between atoms: C_19  and  C_20
REMARK    9  A    between atoms: C_20  and  C_21
REMARK   10  A    between atoms: C_21  and  C_22
REMARK   11  A    between atoms: C_22  and  C_23
REMARK   12  A    between atoms: C_23  and  C_24
REMARK   13  A    between atoms: C_24  and  C_25
REMARK   14  A    between atoms: C_25  and  C_26
REMARK   15  A    between atoms: C_26  and  C_27
REMARK   16  A    between atoms: C_27  and  C_28
REMARK   17  A    between atoms: C_28  and  N_29
REMARK   18  A    between atoms: N_29  and  C_30
REMARK   19  A    between atoms: C_44  and  C_45
REMARK                            x       y       z     vdW  Elec       q    Type
REMARK                         _______ _______ _______ _____ _____    ______ ____
ROOT
ATOM      1  C   UNL A   1      41.966 -18.388 -33.981  0.00  0.00    -0.053 C 
ENDROOT
BRANCH   1   2
ATOM      2  C   UNL A   1      42.108 -19.428 -35.097  0.00  0.00    -0.052 C 
BRANCH   2   3
ATOM      3  C   UNL A   1      43.172 -20.476 -34.753  0.00  0.00    -0.037 C 
BRANCH   3   4
ATOM      4  C   UNL A   1      44.226 -19.946 -33.778  0.00  0.00    +0.012 C 
BRANCH   4   7
ATOM      5  C   UNL A   1      46.268 -19.182 -35.072  0.00  0.00    +0.246 C 
ATOM      6  O   UNL A   1      47.490 -19.242 -35.160  0.00  0.00    -0.270 OA
ATOM      7  N   UNL A   1      45.580 -20.079 -34.292  0.00  0.00    -0.311 N 
ATOM      8  H   UNL A   1      46.059 -20.905 -34.052  0.00  0.00    +0.000 HD
BRANCH   5  14
ATOM      9  C   UNL A   1      45.228 -18.275 -37.184  0.00  0.00    +0.044 A 
ATOM     10  C   UNL A   1      44.495 -17.240 -37.788  0.00  0.00    -0.040 A 
ATOM     11  C   UNL A   1      44.144 -16.088 -37.078  0.00  0.00    -0.060 A 
ATOM     12  C   UNL A   1      44.506 -15.949 -35.741  0.00  0.00    -0.061 A 
ATOM     13  C   UNL A   1      45.201 -16.976 -35.106  0.00  0.00    -0.048 A 
ATOM     14  C   UNL A   1      45.528 -18.142 -35.814  0.00  0.00    +0.058 A 
BRANCH   9  15
ATOM     15  N   UNL A   1      45.548 -19.450 -37.915  0.00  0.00    -0.314 N 
ATOM     16  H   UNL A   1      46.457 -19.806 -37.791  0.00  0.00    +0.000 HD
BRANCH  15  22
ATOM     17  C   UNL A   1      44.589 -21.187 -42.506  0.00  0.00    -0.039 C 
ATOM     18  C   UNL A   1      44.216 -20.964 -41.066  0.00  0.00    -0.046 A 
ATOM     19  C   UNL A   1      42.949 -21.380 -40.627  0.00  0.00    -0.058 A 
ATOM     20  C   UNL A   1      42.551 -21.177 -39.311  0.00  0.00    -0.060 A 
ATOM     21  C   UNL A   1      43.417 -20.561 -38.411  0.00  0.00    -0.040 A 
ATOM     22  C   UNL A   1      44.706 -20.171 -38.804  0.00  0.00    +0.035 A 
ATOM     23  C   UNL A   1      45.111 -20.368 -40.145  0.00  0.00    -0.026 A 
ATOM     24  C   UNL A   1      46.475 -19.900 -40.596  0.00  0.00    -0.038 C 
ENDBRANCH  15  22
ENDBRANCH   9  15
ENDBRANCH   5  14
ENDBRANCH   4   7
ENDBRANCH   3   4
ENDBRANCH   2   3
ENDBRANCH   1   2
BRANCH   1  25
ATOM     25  C   UNL A   1      41.173 -17.149 -34.413  0.00  0.00    -0.053 C 
BRANCH  25  26
ATOM     26  C   UNL A   1      40.837 -17.075 -35.907  0.00  0.00    -0.053 C 
BRANCH  26  27
ATOM     27  C   UNL A   1      40.341 -15.708 -36.374  0.00  0.00    -0.053 C 
BRANCH  27  28
ATOM     28  C   UNL A   1      40.173 -15.659 -37.895  0.00  0.00    -0.053 C 
BRANCH  28  29
ATOM     29  C   UNL A   1      40.365 -17.045 -38.511  0.00  0.00    -0.053 C 
BRANCH  29  30
ATOM     30  C   UNL A   1      39.336 -17.408 -39.587  0.00  0.00    -0.052 C 
BRANCH  30  31
ATOM     31  C   UNL A   1      38.850 -18.860 -39.540  0.00  0.00    -0.037 C 
BRANCH  31  32
ATOM     32  C   UNL A   1      39.338 -19.600 -38.291  0.00  0.00    +0.009 C 
BRANCH  32  33
ATOM     33  N   UNL A   1      38.174 -20.124 -37.560  0.00  0.00    -0.343 N 
ATOM     34  H   UNL A   1      37.455 -20.659 -37.969  0.00  0.00    +0.000 HD
BRANCH  33  35
ATOM     35  C   UNL A   1      38.222 -19.757 -36.179  0.00  0.00    +0.041 A 
ATOM     36  C   UNL A   1      38.746 -20.681 -35.253  0.00  0.00    -0.005 A 
ATOM     37  C   UNL A   1      38.750 -20.316 -33.907  0.00  0.00    +0.047 A 
ATOM     38  N   UNL A   1      38.237 -19.147 -33.454  0.00  0.00    -0.251 NA
ATOM     39  C   UNL A   1      37.721 -18.278 -34.333  0.00  0.00    +0.073 A 
ATOM     40  C   UNL A   1      37.206 -17.088 -33.838  0.00  0.00    -0.036 A 
ATOM     41  C   UNL A   1      36.643 -16.120 -34.672  0.00  0.00    -0.060 A 
ATOM     42  C   UNL A   1      36.590 -16.344 -36.039  0.00  0.00    -0.061 A 
ATOM     43  C   UNL A   1      37.102 -17.533 -36.560  0.00  0.00    -0.051 A 
ATOM     44  C   UNL A   1      37.678 -18.523 -35.720  0.00  0.00    +0.021 A 
ATOM     45  C   UNL A   1      39.285 -21.233 -32.838  0.00  0.00    -0.010 C 
ATOM     46  C   UNL A   1      40.245 -22.288 -33.375  0.00  0.00    -0.047 C 
ATOM     47  C   UNL A   1      39.633 -22.975 -34.586  0.00  0.00    -0.049 C 
ATOM     48  C   UNL A   1      39.394 -21.967 -35.710  0.00  0.00    -0.024 C 
ENDBRANCH  33  35
ENDBRANCH  32  33
ENDBRANCH  31  32
ENDBRANCH  30  31
ENDBRANCH  29  30
ENDBRANCH  28  29
ENDBRANCH  27  28
ENDBRANCH  26  27
ENDBRANCH  25  26
ENDBRANCH   1  25
TORSDOF 17
ENDMDL
MODEL 19
REMARK VINA RESULT:    -5.469      1.561      4.330
REMARK INTER + INTRA:         -17.706
REMARK INTER:                 -11.979
REMARK INTRA:                  -5.726
REMARK UNBOUND:                -6.801
REMARK  Name = cpd28.pdb
REMARK  19 active torsions:
REMARK  status: ('A' for Active; 'I' for Inactive)
REMARK    1  A    between atoms: C_1  and  C_2
REMARK    2  A    between atoms: C_6  and  N_7
REMARK    3  A    between atoms: N_7  and  C_8
REMARK    4  A    between atoms: C_13  and  C_14
REMARK    5  A    between atoms: N_16  and  C_17
REMARK    6  A    between atoms: C_17  and  C_18
REMARK    7  A    between atoms: C_18  and  C_19
REMARK    8  A    between atoms: C_19  and  C_20
REMARK    9  A    between atoms: C_20  and  C_21
REMARK   10  A    between atoms: C_21  and  C_22
REMARK   11  A    between atoms: C_22  and  C_23
REMARK   12  A    between atoms: C_23  and  C_24
REMARK   13  A    between atoms: C_24  and  C_25
REMARK   14  A    between atoms: C_25  and  C_26
REMARK   15  A    between atoms: C_26  and  C_27
REMARK   16  A    between atoms: C_27  and  C_28
REMARK   17  A    between atoms: C_28  and  N_29
REMARK   18  A    between atoms: N_29  and  C_30
REMARK   19  A    between atoms: C_44  and  C_45
REMARK                            x       y       z     vdW  Elec       q    Type
REMARK                         _______ _______ _______ _____ _____    ______ ____
ROOT
ATOM      1  C   UNL A   1      46.459 -18.941 -35.940  0.00  0.00    -0.053 C 
ENDROOT
BRANCH   1   2
ATOM      2  C   UNL A   1      46.662 -17.426 -36.058  0.00  0.00    -0.052 C 
BRANCH   2   3
ATOM      3  C   UNL A   1      46.420 -16.939 -37.491  0.00  0.00    -0.037 C 
BRANCH   3   4
ATOM      4  C   UNL A   1      45.252 -15.954 -37.588  0.00  0.00    +0.012 C 
BRANCH   4   7
ATOM      5  C   UNL A   1      43.609 -16.863 -39.292  0.00  0.00    +0.246 C 
ATOM      6  O   UNL A   1      42.905 -16.596 -40.261  0.00  0.00    -0.270 OA
ATOM      7  N   UNL A   1      44.593 -15.996 -38.884  0.00  0.00    -0.311 N 
ATOM      8  H   UNL A   1      44.884 -15.326 -39.544  0.00  0.00    +0.000 HD
BRANCH   5  14
ATOM      9  C   UNL A   1      43.971 -19.341 -38.993  0.00  0.00    +0.044 A 
ATOM     10  C   UNL A   1      43.735 -20.482 -38.208  0.00  0.00    -0.040 A 
ATOM     11  C   UNL A   1      42.903 -20.433 -37.085  0.00  0.00    -0.060 A 
ATOM     12  C   UNL A   1      42.298 -19.235 -36.712  0.00  0.00    -0.061 A 
ATOM     13  C   UNL A   1      42.545 -18.080 -37.450  0.00  0.00    -0.048 A 
ATOM     14  C   UNL A   1      43.402 -18.128 -38.560  0.00  0.00    +0.058 A 
BRANCH   9  15
ATOM     15  N   UNL A   1      44.844 -19.407 -40.112  0.00  0.00    -0.314 N 
ATOM     16  H   UNL A   1      45.211 -18.551 -40.429  0.00  0.00    +0.000 HD
BRANCH  15  22
ATOM     17  C   UNL A   1      48.176 -23.052 -40.909  0.00  0.00    -0.039 C 
ATOM     18  C   UNL A   1      46.911 -22.311 -41.249  0.00  0.00    -0.046 A 
ATOM     19  C   UNL A   1      46.178 -22.713 -42.376  0.00  0.00    -0.058 A 
ATOM     20  C   UNL A   1      45.014 -22.046 -42.742  0.00  0.00    -0.060 A 
ATOM     21  C   UNL A   1      44.562 -20.971 -41.982  0.00  0.00    -0.040 A 
ATOM     22  C   UNL A   1      45.247 -20.567 -40.826  0.00  0.00    +0.035 A 
ATOM     23  C   UNL A   1      46.437 -21.238 -40.455  0.00  0.00    -0.026 A 
ATOM     24  C   UNL A   1      47.215 -20.777 -39.245  0.00  0.00    -0.038 C 
ENDBRANCH  15  22
ENDBRANCH   9  15
ENDBRANCH   5  14
ENDBRANCH   4   7
ENDBRANCH   3   4
ENDBRANCH   2   3
ENDBRANCH   1   2
BRANCH   1  25
ATOM     25  C   UNL A   1      45.542 -19.334 -34.776  0.00  0.00    -0.053 C 
BRANCH  25  26
ATOM     26  C   UNL A   1      45.217 -18.208 -33.788  0.00  0.00    -0.053 C 
BRANCH  26  27
ATOM     27  C   UNL A   1      43.747 -17.793 -33.765  0.00  0.00    -0.053 C 
BRANCH  27  28
ATOM     28  C   UNL A   1      42.914 -18.721 -32.876  0.00  0.00    -0.053 C 
BRANCH  28  29
ATOM     29  C   UNL A   1      41.420 -18.542 -33.150  0.00  0.00    -0.053 C 
BRANCH  29  30
ATOM     30  C   UNL A   1      41.038 -17.165 -33.701  0.00  0.00    -0.052 C 
BRANCH  30  31
ATOM     31  C   UNL A   1      39.708 -17.129 -34.460  0.00  0.00    -0.037 C 
BRANCH  31  32
ATOM     32  C   UNL A   1      38.623 -17.969 -33.780  0.00  0.00    +0.009 C 
BRANCH  32  33
ATOM     33  N   UNL A   1      37.760 -18.564 -34.812  0.00  0.00    -0.343 N 
ATOM     34  H   UNL A   1      36.846 -18.260 -35.015  0.00  0.00    +0.000 HD
BRANCH  33  35
ATOM     35  C   UNL A   1      38.421 -19.640 -35.481  0.00  0.00    +0.041 A 
ATOM     36  C   UNL A   1      38.622 -19.547 -36.872  0.00  0.00    -0.005 A 
ATOM     37  C   UNL A   1      39.237 -20.624 -37.511  0.00  0.00    +0.047 A 
ATOM     38  N   UNL A   1      39.601 -21.758 -36.866  0.00  0.00    -0.251 NA
ATOM     39  C   UNL A   1      39.391 -21.854 -35.547  0.00  0.00    +0.073 A 
ATOM     40  C   UNL A   1      39.779 -23.028 -34.914  0.00  0.00    -0.036 A 
ATOM     41  C   UNL A   1      39.598 -23.226 -33.544  0.00  0.00    -0.060 A 
ATOM     42  C   UNL A   1      39.015 -22.227 -32.781  0.00  0.00    -0.061 A 
ATOM     43  C   UNL A   1      38.618 -21.038 -33.394  0.00  0.00    -0.051 A 
ATOM     44  C   UNL A   1      38.798 -20.826 -34.787  0.00  0.00    +0.021 A 
ATOM     45  C   UNL A   1      39.495 -20.624 -38.996  0.00  0.00    -0.010 C 
ATOM     46  C   UNL A   1      39.517 -19.227 -39.603  0.00  0.00    -0.047 C 
ATOM     47  C   UNL A   1      38.293 -18.447 -39.147  0.00  0.00    -0.049 C 
ATOM     48  C   UNL A   1      38.299 -18.279 -37.628  0.00  0.00    -0.024 C 
ENDBRANCH  33  35
ENDBRANCH  32  33
ENDBRANCH  31  32
ENDBRANCH  30  31
ENDBRANCH  29  30
ENDBRANCH  28  29
ENDBRANCH  27  28
ENDBRANCH  26  27
ENDBRANCH  25  26
ENDBRANCH   1  25
TORSDOF 17
ENDMDL
MODEL 20
REMARK VINA RESULT:    -5.415      2.223      5.874
REMARK INTER + INTRA:         -17.598
REMARK INTER:                 -10.927
REMARK INTRA:                  -6.671
REMARK UNBOUND:                -6.801
REMARK  Name = cpd28.pdb
REMARK  19 active torsions:
REMARK  status: ('A' for Active; 'I' for Inactive)
REMARK    1  A    between atoms: C_1  and  C_2
REMARK    2  A    between atoms: C_6  and  N_7
REMARK    3  A    between atoms: N_7  and  C_8
REMARK    4  A    between atoms: C_13  and  C_14
REMARK    5  A    between atoms: N_16  and  C_17
REMARK    6  A    between atoms: C_17  and  C_18
REMARK    7  A    between atoms: C_18  and  C_19
REMARK    8  A    between atoms: C_19  and  C_20
REMARK    9  A    between atoms: C_20  and  C_21
REMARK   10  A    between atoms: C_21  and  C_22
REMARK   11  A    between atoms: C_22  and  C_23
REMARK   12  A    between atoms: C_23  and  C_24
REMARK   13  A    between atoms: C_24  and  C_25
REMARK   14  A    between atoms: C_25  and  C_26
REMARK   15  A    between atoms: C_26  and  C_27
REMARK   16  A    between atoms: C_27  and  C_28
REMARK   17  A    between atoms: C_28  and  N_29
REMARK   18  A    between atoms: N_29  and  C_30
REMARK   19  A    between atoms: C_44  and  C_45
REMARK                            x       y       z     vdW  Elec       q    Type
REMARK                         _______ _______ _______ _____ _____    ______ ____
ROOT
ATOM      1  C   UNL A   1      45.711 -16.261 -37.274  0.00  0.00    -0.053 C 
ENDROOT
BRANCH   1   2
ATOM      2  C   UNL A   1      45.324 -17.417 -36.344  0.00  0.00    -0.052 C 
BRANCH   2   3
ATOM      3  C   UNL A   1      46.308 -18.585 -36.465  0.00  0.00    -0.037 C 
BRANCH   3   4
ATOM      4  C   UNL A   1      47.280 -18.417 -37.636  0.00  0.00    +0.012 C 
BRANCH   4   7
ATOM      5  C   UNL A   1      46.529 -19.597 -39.750  0.00  0.00    +0.246 C 
ATOM      6  O   UNL A   1      46.822 -20.431 -40.602  0.00  0.00    -0.270 OA
ATOM      7  N   UNL A   1      47.228 -19.531 -38.570  0.00  0.00    -0.311 N 
ATOM      8  H   UNL A   1      47.753 -20.327 -38.330  0.00  0.00    +0.000 HD
BRANCH   5  14
ATOM      9  C   UNL A   1      44.116 -18.905 -39.505  0.00  0.00    +0.044 A 
ATOM     10  C   UNL A   1      43.134 -17.935 -39.768  0.00  0.00    -0.040 A 
ATOM     11  C   UNL A   1      43.414 -16.810 -40.549  0.00  0.00    -0.060 A 
ATOM     12  C   UNL A   1      44.689 -16.620 -41.074  0.00  0.00    -0.061 A 
ATOM     13  C   UNL A   1      45.693 -17.546 -40.799  0.00  0.00    -0.048 A 
ATOM     14  C   UNL A   1      45.414 -18.660 -39.993  0.00  0.00    +0.058 A 
BRANCH   9  15
ATOM     15  N   UNL A   1      43.818 -20.025 -38.684  0.00  0.00    -0.314 N 
ATOM     16  H   UNL A   1      44.539 -20.333 -38.089  0.00  0.00    +0.000 HD
BRANCH  15  22
ATOM     17  C   UNL A   1      39.776 -21.483 -36.122  0.00  0.00    -0.039 C 
ATOM     18  C   UNL A   1      40.656 -21.509 -37.343  0.00  0.00    -0.046 A 
ATOM     19  C   UNL A   1      40.316 -22.368 -38.399  0.00  0.00    -0.058 A 
ATOM     20  C   UNL A   1      41.109 -22.443 -39.539  0.00  0.00    -0.060 A 
ATOM     21  C   UNL A   1      42.251 -21.653 -39.642  0.00  0.00    -0.040 A 
ATOM     22  C   UNL A   1      42.599 -20.752 -38.624  0.00  0.00    +0.035 A 
ATOM     23  C   UNL A   1      41.799 -20.680 -37.459  0.00  0.00    -0.026 A 
ATOM     24  C   UNL A   1      42.194 -19.757 -36.331  0.00  0.00    -0.038 C 
ENDBRANCH  15  22
ENDBRANCH   9  15
ENDBRANCH   5  14
ENDBRANCH   4   7
ENDBRANCH   3   4
ENDBRANCH   2   3
ENDBRANCH   1   2
BRANCH   1  25
ATOM     25  C   UNL A   1      44.578 -15.249 -37.477  0.00  0.00    -0.053 C 
BRANCH  25  26
ATOM     26  C   UNL A   1      43.228 -15.646 -36.868  0.00  0.00    -0.053 C 
BRANCH  26  27
ATOM     27  C   UNL A   1      42.139 -14.584 -37.000  0.00  0.00    -0.053 C 
BRANCH  27  28
ATOM     28  C   UNL A   1      40.841 -15.174 -37.560  0.00  0.00    -0.053 C 
BRANCH  28  29
ATOM     29  C   UNL A   1      40.706 -16.650 -37.185  0.00  0.00    -0.053 C 
BRANCH  29  30
ATOM     30  C   UNL A   1      39.283 -17.081 -36.816  0.00  0.00    -0.052 C 
BRANCH  30  31
ATOM     31  C   UNL A   1      39.116 -17.558 -35.370  0.00  0.00    -0.037 C 
BRANCH  31  32
ATOM     32  C   UNL A   1      39.519 -16.489 -34.351  0.00  0.00    +0.009 C 
BRANCH  32  33
ATOM     33  N   UNL A   1      39.527 -17.086 -33.007  0.00  0.00    -0.343 N 
ATOM     34  H   UNL A   1      38.888 -16.857 -32.293  0.00  0.00    +0.000 HD
BRANCH  33  35
ATOM     35  C   UNL A   1      40.580 -18.043 -32.871  0.00  0.00    +0.041 A 
ATOM     36  C   UNL A   1      41.913 -17.591 -32.931  0.00  0.00    -0.005 A 
ATOM     37  C   UNL A   1      42.925 -18.546 -32.831  0.00  0.00    +0.047 A 
ATOM     38  N   UNL A   1      42.683 -19.874 -32.727  0.00  0.00    -0.251 NA
ATOM     39  C   UNL A   1      41.415 -20.304 -32.690  0.00  0.00    +0.073 A 
ATOM     40  C   UNL A   1      41.200 -21.672 -32.579  0.00  0.00    -0.036 A 
ATOM     41  C   UNL A   1      39.916 -22.219 -32.537  0.00  0.00    -0.060 A 
ATOM     42  C   UNL A   1      38.814 -21.381 -32.608  0.00  0.00    -0.061 A 
ATOM     43  C   UNL A   1      39.006 -20.004 -32.718  0.00  0.00    -0.051 A 
ATOM     44  C   UNL A   1      40.307 -19.436 -32.761  0.00  0.00    +0.021 A 
ATOM     45  C   UNL A   1      44.382 -18.166 -32.888  0.00  0.00    -0.010 C 
ATOM     46  C   UNL A   1      44.637 -16.704 -32.543  0.00  0.00    -0.047 C 
ATOM     47  C   UNL A   1      43.694 -15.814 -33.338  0.00  0.00    -0.049 C 
ATOM     48  C   UNL A   1      42.239 -16.116 -32.976  0.00  0.00    -0.024 C 
ENDBRANCH  33  35
ENDBRANCH  32  33
ENDBRANCH  31  32
ENDBRANCH  30  31
ENDBRANCH  29  30
ENDBRANCH  28  29
ENDBRANCH  27  28
ENDBRANCH  26  27
ENDBRANCH  25  26
ENDBRANCH   1  25
TORSDOF 17
ENDMDL
