@<TRIPOS>MOLECULE
*****
 19 19 0 0 0
SMALL
GASTEIGER

@<TRIPOS>ATOM
      1 C           1.7321    4.0000    0.0000 C.3     1  UNL1        0.2557
      2 O           0.8660    4.5000    0.0000 O.3     1  UNL1       -0.4432
      3 C           0.0000    4.0000    0.0000 C.2     1  UNL1        0.3371
      4 O          -0.8660    4.5000    0.0000 O.2     1  UNL1       -0.2482
      5 C           0.0000    3.0000    0.0000 C.3     1  UNL1        0.1936
      6 C          -0.8660    2.5000    0.0000 C.3     1  UNL1        0.0355
      7 N           0.8660    2.5000    0.0000 N.am    1  UNL1       -0.1926
      8 C           0.8660    1.5000    0.0000 C.2     1  UNL1        0.2863
      9 O           0.0000    1.0000    0.0000 O.2     1  UNL1       -0.2693
     10 C           1.7321    1.0000    0.0000 C.3     1  UNL1        0.2911
     11 O           1.7321   -0.0000    0.0000 O.3     1  UNL1       -0.4656
     12 C           0.8660   -0.5000    0.0000 C.ar    1  UNL1        0.1393
     13 C           0.8660   -1.5000    0.0000 C.ar    1  UNL1        0.0370
     14 C           0.0000   -2.0000    0.0000 C.ar    1  UNL1        0.0064
     15 C          -0.8660   -1.5000    0.0000 C.ar    1  UNL1        0.0424
     16 C          -1.7321   -2.0000    0.0000 C.2     1  UNL1        0.2342
     17 O          -1.7321   -3.0000    0.0000 O.2     1  UNL1       -0.2831
     18 C          -0.8660   -0.5000    0.0000 C.ar    1  UNL1        0.0064
     19 C          -0.0000   -0.0000    0.0000 C.ar    1  UNL1        0.0370
@<TRIPOS>BOND
     1     1     2    1
     2     2     3    1
     3     3     4    2
     4     3     5    1
     5     5     6    1
     6     5     7    1
     7     7     8   am
     8     8     9    2
     9     8    10    1
    10    10    11    1
    11    11    12    1
    12    12    13   ar
    13    13    14   ar
    14    14    15   ar
    15    15    16    1
    16    16    17    2
    17    15    18   ar
    18    18    19   ar
    19    12    19   ar
