REMARK  Name = cpd99.pdb
REMARK  9 active torsions:
REMARK  status: ('A' for Active; 'I' for Inactive)
REMARK    1  A    between atoms: C_1  and  O_2
REMARK    2  A    between atoms: O_2  and  C_3
REMARK    3  A    between atoms: C_3  and  C_5
REMARK    4  A    between atoms: C_5  and  C_6
REMARK    5  A    between atoms: C_5  and  N_7
REMARK    6  A    between atoms: C_8  and  C_10
REMARK    7  A    between atoms: C_10  and  O_11
REMARK    8  A    between atoms: O_11  and  C_12
REMARK    9  A    between atoms: C_15  and  C_16
REMARK                            x       y       z     vdW  Elec       q    Type
REMARK                         _______ _______ _______ _____ _____    ______ ____
ROOT
ATOM      1  N   UNL A   1       0.749   3.187  -0.257  0.00  0.00    -0.300 N 
ATOM      2  C   UNL A   1       0.905   1.952   0.341  0.00  0.00    +0.251 C 
ATOM      3  O   UNL A   1       0.488   1.713   1.469  0.00  0.00    -0.272 OA
ATOM      4  H   UNL A   1       1.150   3.344  -1.142  0.00  0.00    +0.000 HD
ENDROOT
BRANCH   1   5
ATOM      5  C   UNL A   1       0.003   4.271   0.390  0.00  0.00    +0.118 C 
ATOM      6  C   UNL A   1      -1.478   4.152   0.040  0.00  0.00    -0.036 C 
BRANCH   5   7
ATOM      7  C   UNL A   1       0.532   5.668   0.010  0.00  0.00    +0.327 C 
ATOM      8  O   UNL A   1      -0.132   6.695   0.101  0.00  0.00    -0.249 OA
BRANCH   7  10
ATOM      9  C   UNL A   1       2.815   5.234   0.460  0.00  0.00    +0.082 C 
ATOM     10  O   UNL A   1       1.811   5.695  -0.453  0.00  0.00    -0.467 OA
ENDBRANCH   7  10
ENDBRANCH   5   7
ENDBRANCH   1   5
BRANCH   2  11
ATOM     11  C   UNL A   1       1.635   0.932  -0.544  0.00  0.00    +0.165 C 
BRANCH  11  12
ATOM     12  O   UNL A   1       1.819  -0.359   0.009  0.00  0.00    -0.483 OA
BRANCH  12  13
ATOM     13  C   UNL A   1       0.786  -1.250  -0.073  0.00  0.00    +0.121 A 
ATOM     14  C   UNL A   1       1.129  -2.567   0.251  0.00  0.00    -0.019 A 
ATOM     15  C   UNL A   1       0.173  -3.584   0.214  0.00  0.00    -0.048 A 
ATOM     16  C   UNL A   1      -1.141  -3.280  -0.142  0.00  0.00    +0.014 A 
ATOM     17  C   UNL A   1      -1.499  -1.967  -0.457  0.00  0.00    -0.048 A 
ATOM     18  C   UNL A   1      -0.533  -0.953  -0.422  0.00  0.00    -0.019 A 
BRANCH  16  19
ATOM     19  C   UNL A   1      -2.167  -4.341  -0.182  0.00  0.00    +0.150 C 
ATOM     20  O   UNL A   1      -1.904  -5.513   0.060  0.00  0.00    -0.296 OA
ENDBRANCH  16  19
ENDBRANCH  12  13
ENDBRANCH  11  12
ENDBRANCH   2  11
TORSDOF 7
