MODEL 1
REMARK VINA RESULT:    -7.489      0.000      0.000
REMARK INTER + INTRA:         -10.947
REMARK INTER:                 -10.554
REMARK INTRA:                  -0.393
REMARK UNBOUND:                -0.393
REMARK  Name = cpd99.pdb
REMARK  9 active torsions:
REMARK  status: ('A' for Active; 'I' for Inactive)
REMARK    1  A    between atoms: C_1  and  O_2
REMARK    2  A    between atoms: O_2  and  C_3
REMARK    3  A    between atoms: C_3  and  C_5
REMARK    4  A    between atoms: C_5  and  C_6
REMARK    5  A    between atoms: C_5  and  N_7
REMARK    6  A    between atoms: C_8  and  C_10
REMARK    7  A    between atoms: C_10  and  O_11
REMARK    8  A    between atoms: O_11  and  C_12
REMARK    9  A    between atoms: C_15  and  C_16
REMARK                            x       y       z     vdW  Elec       q    Type
REMARK                         _______ _______ _______ _____ _____    ______ ____
ROOT
ATOM      1  N   UNL A   1      46.765 -38.526 -29.158  0.00  0.00    -0.300 N 
ATOM      2  C   UNL A   1      45.988 -39.586 -29.581  0.00  0.00    +0.251 C 
ATOM      3  O   UNL A   1      46.377 -40.388 -30.424  0.00  0.00    -0.272 OA
ATOM      4  H   UNL A   1      46.386 -37.879 -28.520  0.00  0.00    +0.000 HD
ENDROOT
BRANCH   1   5
ATOM      5  C   UNL A   1      48.139 -38.336 -29.633  0.00  0.00    +0.118 C 
ATOM      6  C   UNL A   1      49.120 -38.798 -28.559  0.00  0.00    -0.036 C 
BRANCH   5   7
ATOM      7  C   UNL A   1      48.435 -36.877 -30.035  0.00  0.00    +0.327 C 
ATOM      8  O   UNL A   1      49.446 -36.270 -29.700  0.00  0.00    -0.249 OA
BRANCH   7  10
ATOM      9  C   UNL A   1      46.628 -35.350 -30.116  0.00  0.00    +0.082 C 
ATOM     10  O   UNL A   1      47.477 -36.282 -30.796  0.00  0.00    -0.467 OA
ENDBRANCH   7  10
ENDBRANCH   5   7
ENDBRANCH   1   5
BRANCH   2  11
ATOM     11  C   UNL A   1      44.618 -39.654 -28.891  0.00  0.00    +0.165 C 
BRANCH  11  12
ATOM     12  O   UNL A   1      43.524 -40.034 -29.707  0.00  0.00    -0.483 OA
BRANCH  12  13
ATOM     13  C   UNL A   1      42.660 -39.061 -30.123  0.00  0.00    +0.121 A 
ATOM     14  C   UNL A   1      42.984 -38.486 -31.356  0.00  0.00    -0.019 A 
ATOM     15  C   UNL A   1      42.187 -37.481 -31.907  0.00  0.00    -0.048 A 
ATOM     16  C   UNL A   1      41.050 -37.052 -31.223  0.00  0.00    +0.014 A 
ATOM     17  C   UNL A   1      40.709 -37.626 -29.996  0.00  0.00    -0.048 A 
ATOM     18  C   UNL A   1      41.516 -38.631 -29.447  0.00  0.00    -0.019 A 
BRANCH  16  19
ATOM     19  C   UNL A   1      40.192 -35.994 -31.792  0.00  0.00    +0.150 C 
ATOM     20  O   UNL A   1      40.600 -35.207 -32.638  0.00  0.00    -0.296 OA
ENDBRANCH  16  19
ENDBRANCH  12  13
ENDBRANCH  11  12
ENDBRANCH   2  11
TORSDOF 7
ENDMDL
MODEL 2
REMARK VINA RESULT:    -7.488      2.003      2.796
REMARK INTER + INTRA:         -10.946
REMARK INTER:                 -10.471
REMARK INTRA:                  -0.475
REMARK UNBOUND:                -0.393
REMARK  Name = cpd99.pdb
REMARK  9 active torsions:
REMARK  status: ('A' for Active; 'I' for Inactive)
REMARK    1  A    between atoms: C_1  and  O_2
REMARK    2  A    between atoms: O_2  and  C_3
REMARK    3  A    between atoms: C_3  and  C_5
REMARK    4  A    between atoms: C_5  and  C_6
REMARK    5  A    between atoms: C_5  and  N_7
REMARK    6  A    between atoms: C_8  and  C_10
REMARK    7  A    between atoms: C_10  and  O_11
REMARK    8  A    between atoms: O_11  and  C_12
REMARK    9  A    between atoms: C_15  and  C_16
REMARK                            x       y       z     vdW  Elec       q    Type
REMARK                         _______ _______ _______ _____ _____    ______ ____
ROOT
ATOM      1  N   UNL A   1      46.060 -39.515 -29.429  0.00  0.00    -0.300 N 
ATOM      2  C   UNL A   1      45.216 -39.949 -28.426  0.00  0.00    +0.251 C 
ATOM      3  O   UNL A   1      45.570 -40.760 -27.578  0.00  0.00    -0.272 OA
ATOM      4  H   UNL A   1      45.710 -38.905 -30.118  0.00  0.00    +0.000 HD
ENDROOT
BRANCH   1   5
ATOM      5  C   UNL A   1      47.462 -39.938 -29.497  0.00  0.00    +0.118 C 
ATOM      6  C   UNL A   1      48.368 -38.709 -29.499  0.00  0.00    -0.036 C 
BRANCH   5   7
ATOM      7  C   UNL A   1      47.759 -40.822 -30.724  0.00  0.00    +0.327 C 
ATOM      8  O   UNL A   1      48.812 -40.784 -31.352  0.00  0.00    -0.249 OA
BRANCH   7  10
ATOM      9  C   UNL A   1      47.073 -42.611 -32.114  0.00  0.00    +0.082 C 
ATOM     10  O   UNL A   1      46.755 -41.666 -31.085  0.00  0.00    -0.467 OA
ENDBRANCH   7  10
ENDBRANCH   5   7
ENDBRANCH   1   5
BRANCH   2  11
ATOM     11  C   UNL A   1      43.820 -39.314 -28.485  0.00  0.00    +0.165 C 
BRANCH  11  12
ATOM     12  O   UNL A   1      42.997 -39.707 -29.568  0.00  0.00    -0.483 OA
BRANCH  12  13
ATOM     13  C   UNL A   1      42.319 -38.737 -30.251  0.00  0.00    +0.121 A 
ATOM     14  C   UNL A   1      42.847 -38.438 -31.511  0.00  0.00    -0.019 A 
ATOM     15  C   UNL A   1      42.254 -37.468 -32.322  0.00  0.00    -0.048 A 
ATOM     16  C   UNL A   1      41.118 -36.796 -31.872  0.00  0.00    +0.014 A 
ATOM     17  C   UNL A   1      40.574 -37.093 -30.620  0.00  0.00    -0.048 A 
ATOM     18  C   UNL A   1      41.177 -38.064 -29.810  0.00  0.00    -0.019 A 
BRANCH  16  19
ATOM     19  C   UNL A   1      40.474 -35.770 -32.717  0.00  0.00    +0.150 C 
ATOM     20  O   UNL A   1      40.286 -34.625 -32.325  0.00  0.00    -0.296 OA
ENDBRANCH  16  19
ENDBRANCH  12  13
ENDBRANCH  11  12
ENDBRANCH   2  11
TORSDOF 7
ENDMDL
MODEL 3
REMARK VINA RESULT:    -7.094      3.001      4.663
REMARK INTER + INTRA:         -10.390
REMARK INTER:                  -9.986
REMARK INTRA:                  -0.404
REMARK UNBOUND:                -0.393
REMARK  Name = cpd99.pdb
REMARK  9 active torsions:
REMARK  status: ('A' for Active; 'I' for Inactive)
REMARK    1  A    between atoms: C_1  and  O_2
REMARK    2  A    between atoms: O_2  and  C_3
REMARK    3  A    between atoms: C_3  and  C_5
REMARK    4  A    between atoms: C_5  and  C_6
REMARK    5  A    between atoms: C_5  and  N_7
REMARK    6  A    between atoms: C_8  and  C_10
REMARK    7  A    between atoms: C_10  and  O_11
REMARK    8  A    between atoms: O_11  and  C_12
REMARK    9  A    between atoms: C_15  and  C_16
REMARK                            x       y       z     vdW  Elec       q    Type
REMARK                         _______ _______ _______ _____ _____    ______ ____
ROOT
ATOM      1  N   UNL A   1      43.462 -39.618 -29.880  0.00  0.00    -0.300 N 
ATOM      2  C   UNL A   1      43.305 -38.399 -30.510  0.00  0.00    +0.251 C 
ATOM      3  O   UNL A   1      44.249 -37.645 -30.723  0.00  0.00    -0.272 OA
ATOM      4  H   UNL A   1      42.665 -40.161 -29.684  0.00  0.00    +0.000 HD
ENDROOT
BRANCH   1   5
ATOM      5  C   UNL A   1      44.783 -40.124 -29.493  0.00  0.00    +0.118 C 
ATOM      6  C   UNL A   1      45.163 -41.297 -30.393  0.00  0.00    -0.036 C 
BRANCH   5   7
ATOM      7  C   UNL A   1      44.851 -40.542 -28.011  0.00  0.00    +0.327 C 
ATOM      8  O   UNL A   1      45.036 -41.695 -27.637  0.00  0.00    -0.249 OA
BRANCH   7  10
ATOM      9  C   UNL A   1      43.664 -39.737 -26.129  0.00  0.00    +0.082 C 
ATOM     10  O   UNL A   1      44.681 -39.531 -27.118  0.00  0.00    -0.467 OA
ENDBRANCH   7  10
ENDBRANCH   5   7
ENDBRANCH   1   5
BRANCH   2  11
ATOM     11  C   UNL A   1      41.854 -38.102 -30.913  0.00  0.00    +0.165 C 
BRANCH  11  12
ATOM     12  O   UNL A   1      41.554 -36.752 -31.223  0.00  0.00    -0.483 OA
BRANCH  12  13
ATOM     13  C   UNL A   1      40.241 -36.375 -31.259  0.00  0.00    +0.121 A 
ATOM     14  C   UNL A   1      39.436 -36.981 -30.288  0.00  0.00    -0.019 A 
ATOM     15  C   UNL A   1      38.074 -36.687 -30.204  0.00  0.00    -0.048 A 
ATOM     16  C   UNL A   1      37.512 -35.771 -31.094  0.00  0.00    +0.014 A 
ATOM     17  C   UNL A   1      38.307 -35.150 -32.061  0.00  0.00    -0.048 A 
ATOM     18  C   UNL A   1      39.672 -35.454 -32.141  0.00  0.00    -0.019 A 
BRANCH  16  19
ATOM     19  C   UNL A   1      36.074 -35.443 -31.018  0.00  0.00    +0.150 C 
ATOM     20  O   UNL A   1      35.286 -35.755 -31.902  0.00  0.00    -0.296 OA
ENDBRANCH  16  19
ENDBRANCH  12  13
ENDBRANCH  11  12
ENDBRANCH   2  11
TORSDOF 7
ENDMDL
MODEL 4
REMARK VINA RESULT:    -5.829      5.119      9.958
REMARK INTER + INTRA:          -8.608
REMARK INTER:                  -8.143
REMARK INTRA:                  -0.464
REMARK UNBOUND:                -0.393
REMARK  Name = cpd99.pdb
REMARK  9 active torsions:
REMARK  status: ('A' for Active; 'I' for Inactive)
REMARK    1  A    between atoms: C_1  and  O_2
REMARK    2  A    between atoms: O_2  and  C_3
REMARK    3  A    between atoms: C_3  and  C_5
REMARK    4  A    between atoms: C_5  and  C_6
REMARK    5  A    between atoms: C_5  and  N_7
REMARK    6  A    between atoms: C_8  and  C_10
REMARK    7  A    between atoms: C_10  and  O_11
REMARK    8  A    between atoms: O_11  and  C_12
REMARK    9  A    between atoms: C_15  and  C_16
REMARK                            x       y       z     vdW  Elec       q    Type
REMARK                         _______ _______ _______ _____ _____    ______ ____
ROOT
ATOM      1  N   UNL A   1      35.620 -35.247 -31.605  0.00  0.00    -0.300 N 
ATOM      2  C   UNL A   1      36.674 -36.043 -31.202  0.00  0.00    +0.251 C 
ATOM      3  O   UNL A   1      36.600 -36.784 -30.227  0.00  0.00    -0.272 OA
ATOM      4  H   UNL A   1      35.749 -34.630 -32.361  0.00  0.00    +0.000 HD
ENDROOT
BRANCH   1   5
ATOM      5  C   UNL A   1      34.315 -35.296 -30.939  0.00  0.00    +0.118 C 
ATOM      6  C   UNL A   1      33.264 -35.827 -31.911  0.00  0.00    -0.036 C 
BRANCH   5   7
ATOM      7  C   UNL A   1      33.881 -33.927 -30.378  0.00  0.00    +0.327 C 
ATOM      8  O   UNL A   1      34.025 -33.596 -29.206  0.00  0.00    -0.249 OA
BRANCH   7  10
ATOM      9  C   UNL A   1      33.788 -31.739 -31.274  0.00  0.00    +0.082 C 
ATOM     10  O   UNL A   1      33.306 -33.088 -31.281  0.00  0.00    -0.467 OA
ENDBRANCH   7  10
ENDBRANCH   5   7
ENDBRANCH   1   5
BRANCH   2  11
ATOM     11  C   UNL A   1      37.918 -35.908 -32.091  0.00  0.00    +0.165 C 
BRANCH  11  12
ATOM     12  O   UNL A   1      39.107 -35.488 -31.445  0.00  0.00    -0.483 OA
BRANCH  12  13
ATOM     13  C   UNL A   1      40.065 -36.427 -31.181  0.00  0.00    +0.121 A 
ATOM     14  C   UNL A   1      40.999 -36.606 -32.207  0.00  0.00    -0.019 A 
ATOM     15  C   UNL A   1      42.037 -37.530 -32.074  0.00  0.00    -0.048 A 
ATOM     16  C   UNL A   1      42.147 -38.277 -30.901  0.00  0.00    +0.014 A 
ATOM     17  C   UNL A   1      41.227 -38.100 -29.865  0.00  0.00    -0.048 A 
ATOM     18  C   UNL A   1      40.186 -37.173 -30.008  0.00  0.00    -0.019 A 
BRANCH  16  19
ATOM     19  C   UNL A   1      43.241 -39.256 -30.741  0.00  0.00    +0.150 C 
ATOM     20  O   UNL A   1      43.279 -40.044 -29.803  0.00  0.00    -0.296 OA
ENDBRANCH  16  19
ENDBRANCH  12  13
ENDBRANCH  11  12
ENDBRANCH   2  11
TORSDOF 7
ENDMDL
MODEL 5
REMARK VINA RESULT:    -5.679      5.865     10.759
REMARK INTER + INTRA:          -8.396
REMARK INTER:                  -7.925
REMARK INTRA:                  -0.471
REMARK UNBOUND:                -0.393
REMARK  Name = cpd99.pdb
REMARK  9 active torsions:
REMARK  status: ('A' for Active; 'I' for Inactive)
REMARK    1  A    between atoms: C_1  and  O_2
REMARK    2  A    between atoms: O_2  and  C_3
REMARK    3  A    between atoms: C_3  and  C_5
REMARK    4  A    between atoms: C_5  and  C_6
REMARK    5  A    between atoms: C_5  and  N_7
REMARK    6  A    between atoms: C_8  and  C_10
REMARK    7  A    between atoms: C_10  and  O_11
REMARK    8  A    between atoms: O_11  and  C_12
REMARK    9  A    between atoms: C_15  and  C_16
REMARK                            x       y       z     vdW  Elec       q    Type
REMARK                         _______ _______ _______ _____ _____    ______ ____
ROOT
ATOM      1  N   UNL A   1      34.576 -35.068 -30.561  0.00  0.00    -0.300 N 
ATOM      2  C   UNL A   1      35.868 -34.830 -30.987  0.00  0.00    +0.251 C 
ATOM      3  O   UNL A   1      36.324 -33.697 -31.095  0.00  0.00    -0.272 OA
ATOM      4  H   UNL A   1      34.241 -35.993 -30.544  0.00  0.00    +0.000 HD
ENDROOT
BRANCH   1   5
ATOM      5  C   UNL A   1      33.690 -33.980 -30.133  0.00  0.00    +0.118 C 
ATOM      6  C   UNL A   1      32.795 -34.467 -28.996  0.00  0.00    -0.036 C 
BRANCH   5   7
ATOM      7  C   UNL A   1      32.834 -33.421 -31.286  0.00  0.00    +0.327 C 
ATOM      8  O   UNL A   1      33.184 -32.490 -32.004  0.00  0.00    -0.249 OA
BRANCH   7  10
ATOM      9  C   UNL A   1      31.580 -35.031 -32.485  0.00  0.00    +0.082 C 
ATOM     10  O   UNL A   1      31.630 -34.030 -31.460  0.00  0.00    -0.467 OA
ENDBRANCH   7  10
ENDBRANCH   5   7
ENDBRANCH   1   5
BRANCH   2  11
ATOM     11  C   UNL A   1      36.655 -36.111 -31.298  0.00  0.00    +0.165 C 
BRANCH  11  12
ATOM     12  O   UNL A   1      37.537 -36.565 -30.286  0.00  0.00    -0.483 OA
BRANCH  12  13
ATOM     13  C   UNL A   1      38.877 -36.576 -30.555  0.00  0.00    +0.121 A 
ATOM     14  C   UNL A   1      39.630 -37.401 -29.713  0.00  0.00    -0.019 A 
ATOM     15  C   UNL A   1      41.013 -37.513 -29.873  0.00  0.00    -0.048 A 
ATOM     16  C   UNL A   1      41.647 -36.801 -30.891  0.00  0.00    +0.014 A 
ATOM     17  C   UNL A   1      40.905 -35.982 -31.745  0.00  0.00    -0.048 A 
ATOM     18  C   UNL A   1      39.519 -35.871 -31.575  0.00  0.00    -0.019 A 
BRANCH  16  19
ATOM     19  C   UNL A   1      43.107 -36.910 -31.079  0.00  0.00    +0.150 C 
ATOM     20  O   UNL A   1      43.901 -36.226 -30.444  0.00  0.00    -0.296 OA
ENDBRANCH  16  19
ENDBRANCH  12  13
ENDBRANCH  11  12
ENDBRANCH   2  11
TORSDOF 7
ENDMDL
MODEL 6
REMARK VINA RESULT:    -5.568      6.570     10.249
REMARK INTER + INTRA:          -8.240
REMARK INTER:                  -7.766
REMARK INTRA:                  -0.473
REMARK UNBOUND:                -0.393
REMARK  Name = cpd99.pdb
REMARK  9 active torsions:
REMARK  status: ('A' for Active; 'I' for Inactive)
REMARK    1  A    between atoms: C_1  and  O_2
REMARK    2  A    between atoms: O_2  and  C_3
REMARK    3  A    between atoms: C_3  and  C_5
REMARK    4  A    between atoms: C_5  and  C_6
REMARK    5  A    between atoms: C_5  and  N_7
REMARK    6  A    between atoms: C_8  and  C_10
REMARK    7  A    between atoms: C_10  and  O_11
REMARK    8  A    between atoms: O_11  and  C_12
REMARK    9  A    between atoms: C_15  and  C_16
REMARK                            x       y       z     vdW  Elec       q    Type
REMARK                         _______ _______ _______ _____ _____    ______ ____
ROOT
ATOM      1  N   UNL A   1      35.401 -39.188 -27.451  0.00  0.00    -0.300 N 
ATOM      2  C   UNL A   1      35.932 -39.738 -28.601  0.00  0.00    +0.251 C 
ATOM      3  O   UNL A   1      35.228 -40.122 -29.529  0.00  0.00    -0.272 OA
ATOM      4  H   UNL A   1      36.006 -38.946 -26.713  0.00  0.00    +0.000 HD
ENDROOT
BRANCH   1   5
ATOM      5  C   UNL A   1      33.962 -38.953 -27.299  0.00  0.00    +0.118 C 
ATOM      6  C   UNL A   1      33.724 -37.520 -26.832  0.00  0.00    -0.036 C 
BRANCH   5   7
ATOM      7  C   UNL A   1      33.295 -39.949 -26.329  0.00  0.00    +0.327 C 
ATOM      8  O   UNL A   1      32.159 -40.386 -26.477  0.00  0.00    -0.249 OA
BRANCH   7  10
ATOM      9  C   UNL A   1      33.520 -40.014 -23.974  0.00  0.00    +0.082 C 
ATOM     10  O   UNL A   1      34.059 -40.320 -25.266  0.00  0.00    -0.467 OA
ENDBRANCH   7  10
ENDBRANCH   5   7
ENDBRANCH   1   5
BRANCH   2  11
ATOM     11  C   UNL A   1      37.466 -39.810 -28.593  0.00  0.00    +0.165 C 
BRANCH  11  12
ATOM     12  O   UNL A   1      38.144 -38.650 -28.144  0.00  0.00    -0.483 OA
BRANCH  12  13
ATOM     13  C   UNL A   1      38.857 -37.925 -29.057  0.00  0.00    +0.121 A 
ATOM     14  C   UNL A   1      38.088 -37.040 -29.822  0.00  0.00    -0.019 A 
ATOM     15  C   UNL A   1      38.683 -36.232 -30.792  0.00  0.00    -0.048 A 
ATOM     16  C   UNL A   1      40.062 -36.301 -30.994  0.00  0.00    +0.014 A 
ATOM     17  C   UNL A   1      40.842 -37.172 -30.230  0.00  0.00    -0.048 A 
ATOM     18  C   UNL A   1      40.237 -37.984 -29.262  0.00  0.00    -0.019 A 
BRANCH  16  19
ATOM     19  C   UNL A   1      40.710 -35.451 -32.012  0.00  0.00    +0.150 C 
ATOM     20  O   UNL A   1      40.674 -34.227 -31.960  0.00  0.00    -0.296 OA
ENDBRANCH  16  19
ENDBRANCH  12  13
ENDBRANCH  11  12
ENDBRANCH   2  11
TORSDOF 7
ENDMDL
MODEL 7
REMARK VINA RESULT:    -5.377      5.738      9.611
REMARK INTER + INTRA:          -7.971
REMARK INTER:                  -8.024
REMARK INTRA:                   0.053
REMARK UNBOUND:                -0.393
REMARK  Name = cpd99.pdb
REMARK  9 active torsions:
REMARK  status: ('A' for Active; 'I' for Inactive)
REMARK    1  A    between atoms: C_1  and  O_2
REMARK    2  A    between atoms: O_2  and  C_3
REMARK    3  A    between atoms: C_3  and  C_5
REMARK    4  A    between atoms: C_5  and  C_6
REMARK    5  A    between atoms: C_5  and  N_7
REMARK    6  A    between atoms: C_8  and  C_10
REMARK    7  A    between atoms: C_10  and  O_11
REMARK    8  A    between atoms: O_11  and  C_12
REMARK    9  A    between atoms: C_15  and  C_16
REMARK                            x       y       z     vdW  Elec       q    Type
REMARK                         _______ _______ _______ _____ _____    ______ ____
ROOT
ATOM      1  N   UNL A   1      36.272 -39.637 -29.452  0.00  0.00    -0.300 N 
ATOM      2  C   UNL A   1      35.944 -38.683 -28.510  0.00  0.00    +0.251 C 
ATOM      3  O   UNL A   1      35.028 -38.839 -27.710  0.00  0.00    -0.272 OA
ATOM      4  H   UNL A   1      36.980 -39.440 -30.107  0.00  0.00    +0.000 HD
ENDROOT
BRANCH   1   5
ATOM      5  C   UNL A   1      35.594 -40.936 -29.506  0.00  0.00    +0.118 C 
ATOM      6  C   UNL A   1      34.122 -40.730 -29.854  0.00  0.00    -0.036 C 
BRANCH   5   7
ATOM      7  C   UNL A   1      35.728 -41.733 -28.193  0.00  0.00    +0.327 C 
ATOM      8  O   UNL A   1      36.802 -42.012 -27.673  0.00  0.00    -0.249 OA
BRANCH   7  10
ATOM      9  C   UNL A   1      34.539 -43.442 -27.067  0.00  0.00    +0.082 C 
ATOM     10  O   UNL A   1      34.551 -42.126 -27.634  0.00  0.00    -0.467 OA
ENDBRANCH   7  10
ENDBRANCH   5   7
ENDBRANCH   1   5
BRANCH   2  11
ATOM     11  C   UNL A   1      36.837 -37.435 -28.567  0.00  0.00    +0.165 C 
BRANCH  11  12
ATOM     12  O   UNL A   1      37.237 -37.009 -29.857  0.00  0.00    -0.483 OA
BRANCH  12  13
ATOM     13  C   UNL A   1      38.574 -36.959 -30.135  0.00  0.00    +0.121 A 
ATOM     14  C   UNL A   1      38.923 -36.057 -31.146  0.00  0.00    -0.019 A 
ATOM     15  C   UNL A   1      40.255 -35.898 -31.533  0.00  0.00    -0.048 A 
ATOM     16  C   UNL A   1      41.249 -36.641 -30.898  0.00  0.00    +0.014 A 
ATOM     17  C   UNL A   1      40.916 -37.537 -29.879  0.00  0.00    -0.048 A 
ATOM     18  C   UNL A   1      39.576 -37.695 -29.499  0.00  0.00    -0.019 A 
BRANCH  16  19
ATOM     19  C   UNL A   1      42.664 -36.483 -31.290  0.00  0.00    +0.150 C 
ATOM     20  O   UNL A   1      43.548 -36.261 -30.471  0.00  0.00    -0.296 OA
ENDBRANCH  16  19
ENDBRANCH  12  13
ENDBRANCH  11  12
ENDBRANCH   2  11
TORSDOF 7
ENDMDL
MODEL 8
REMARK VINA RESULT:    -5.338      5.789      9.942
REMARK INTER + INTRA:          -7.915
REMARK INTER:                  -7.379
REMARK INTRA:                  -0.536
REMARK UNBOUND:                -0.393
REMARK  Name = cpd99.pdb
REMARK  9 active torsions:
REMARK  status: ('A' for Active; 'I' for Inactive)
REMARK    1  A    between atoms: C_1  and  O_2
REMARK    2  A    between atoms: O_2  and  C_3
REMARK    3  A    between atoms: C_3  and  C_5
REMARK    4  A    between atoms: C_5  and  C_6
REMARK    5  A    between atoms: C_5  and  N_7
REMARK    6  A    between atoms: C_8  and  C_10
REMARK    7  A    between atoms: C_10  and  O_11
REMARK    8  A    between atoms: O_11  and  C_12
REMARK    9  A    between atoms: C_15  and  C_16
REMARK                            x       y       z     vdW  Elec       q    Type
REMARK                         _______ _______ _______ _____ _____    ______ ____
ROOT
ATOM      1  N   UNL A   1      35.369 -38.204 -28.279  0.00  0.00    -0.300 N 
ATOM      2  C   UNL A   1      35.776 -37.784 -29.530  0.00  0.00    +0.251 C 
ATOM      3  O   UNL A   1      35.231 -38.167 -30.559  0.00  0.00    -0.272 OA
ATOM      4  H   UNL A   1      35.874 -37.910 -27.487  0.00  0.00    +0.000 HD
ENDROOT
BRANCH   1   5
ATOM      5  C   UNL A   1      34.205 -39.078 -28.097  0.00  0.00    +0.118 C 
ATOM      6  C   UNL A   1      33.333 -38.539 -26.967  0.00  0.00    -0.036 C 
BRANCH   5   7
ATOM      7  C   UNL A   1      34.598 -40.543 -27.819  0.00  0.00    +0.327 C 
ATOM      8  O   UNL A   1      34.598 -41.046 -26.701  0.00  0.00    -0.249 OA
BRANCH   7  10
ATOM      9  C   UNL A   1      33.948 -41.433 -29.913  0.00  0.00    +0.082 C 
ATOM     10  O   UNL A   1      34.962 -41.261 -28.915  0.00  0.00    -0.467 OA
ENDBRANCH   7  10
ENDBRANCH   5   7
ENDBRANCH   1   5
BRANCH   2  11
ATOM     11  C   UNL A   1      36.954 -36.800 -29.491  0.00  0.00    +0.165 C 
BRANCH  11  12
ATOM     12  O   UNL A   1      37.456 -36.374 -30.745  0.00  0.00    -0.483 OA
BRANCH  12  13
ATOM     13  C   UNL A   1      38.808 -36.240 -30.887  0.00  0.00    +0.121 A 
ATOM     14  C   UNL A   1      39.564 -37.111 -30.095  0.00  0.00    -0.019 A 
ATOM     15  C   UNL A   1      40.959 -37.088 -30.140  0.00  0.00    -0.048 A 
ATOM     16  C   UNL A   1      41.606 -36.193 -30.992  0.00  0.00    +0.014 A 
ATOM     17  C   UNL A   1      40.863 -35.326 -31.797  0.00  0.00    -0.048 A 
ATOM     18  C   UNL A   1      39.463 -35.351 -31.742  0.00  0.00    -0.019 A 
BRANCH  16  19
ATOM     19  C   UNL A   1      43.080 -36.158 -31.057  0.00  0.00    +0.150 C 
ATOM     20  O   UNL A   1      43.754 -37.177 -31.154  0.00  0.00    -0.296 OA
ENDBRANCH  16  19
ENDBRANCH  12  13
ENDBRANCH  11  12
ENDBRANCH   2  11
TORSDOF 7
ENDMDL
MODEL 9
REMARK VINA RESULT:    -5.336      7.721     12.635
REMARK INTER + INTRA:          -7.912
REMARK INTER:                  -7.500
REMARK INTRA:                  -0.413
REMARK UNBOUND:                -0.393
REMARK  Name = cpd99.pdb
REMARK  9 active torsions:
REMARK  status: ('A' for Active; 'I' for Inactive)
REMARK    1  A    between atoms: C_1  and  O_2
REMARK    2  A    between atoms: O_2  and  C_3
REMARK    3  A    between atoms: C_3  and  C_5
REMARK    4  A    between atoms: C_5  and  C_6
REMARK    5  A    between atoms: C_5  and  N_7
REMARK    6  A    between atoms: C_8  and  C_10
REMARK    7  A    between atoms: C_10  and  O_11
REMARK    8  A    between atoms: O_11  and  C_12
REMARK    9  A    between atoms: C_15  and  C_16
REMARK                            x       y       z     vdW  Elec       q    Type
REMARK                         _______ _______ _______ _____ _____    ______ ____
ROOT
ATOM      1  N   UNL A   1      32.617 -33.618 -30.702  0.00  0.00    -0.300 N 
ATOM      2  C   UNL A   1      33.923 -33.552 -31.147  0.00  0.00    +0.251 C 
ATOM      3  O   UNL A   1      34.468 -32.488 -31.419  0.00  0.00    -0.272 OA
ATOM      4  H   UNL A   1      32.208 -34.501 -30.549  0.00  0.00    +0.000 HD
ENDROOT
BRANCH   1   5
ATOM      5  C   UNL A   1      31.823 -32.412 -30.451  0.00  0.00    +0.118 C 
ATOM      6  C   UNL A   1      31.193 -32.493 -29.063  0.00  0.00    -0.036 C 
BRANCH   5   7
ATOM      7  C   UNL A   1      30.735 -32.181 -31.519  0.00  0.00    +0.327 C 
ATOM      8  O   UNL A   1      30.179 -33.087 -32.131  0.00  0.00    -0.249 OA
BRANCH   7  10
ATOM      9  C   UNL A   1      29.084 -30.487 -31.435  0.00  0.00    +0.082 C 
ATOM     10  O   UNL A   1      30.425 -30.878 -31.756  0.00  0.00    -0.467 OA
ENDBRANCH   7  10
ENDBRANCH   5   7
ENDBRANCH   1   5
BRANCH   2  11
ATOM     11  C   UNL A   1      34.603 -34.924 -31.254  0.00  0.00    +0.165 C 
BRANCH  11  12
ATOM     12  O   UNL A   1      35.180 -35.432 -30.064  0.00  0.00    -0.483 OA
BRANCH  12  13
ATOM     13  C   UNL A   1      36.460 -35.905 -30.118  0.00  0.00    +0.121 A 
ATOM     14  C   UNL A   1      37.220 -35.403 -31.180  0.00  0.00    -0.019 A 
ATOM     15  C   UNL A   1      38.548 -35.798 -31.358  0.00  0.00    -0.048 A 
ATOM     16  C   UNL A   1      39.124 -36.696 -30.460  0.00  0.00    +0.014 A 
ATOM     17  C   UNL A   1      38.380 -37.196 -29.389  0.00  0.00    -0.048 A 
ATOM     18  C   UNL A   1      37.047 -36.799 -29.220  0.00  0.00    -0.019 A 
BRANCH  16  19
ATOM     19  C   UNL A   1      40.528 -37.121 -30.629  0.00  0.00    +0.150 C 
ATOM     20  O   UNL A   1      41.384 -36.900 -29.780  0.00  0.00    -0.296 OA
ENDBRANCH  16  19
ENDBRANCH  12  13
ENDBRANCH  11  12
ENDBRANCH   2  11
TORSDOF 7
ENDMDL
MODEL 10
REMARK VINA RESULT:    -5.321      6.296      9.267
REMARK INTER + INTRA:          -7.892
REMARK INTER:                  -7.607
REMARK INTRA:                  -0.285
REMARK UNBOUND:                -0.393
REMARK  Name = cpd99.pdb
REMARK  9 active torsions:
REMARK  status: ('A' for Active; 'I' for Inactive)
REMARK    1  A    between atoms: C_1  and  O_2
REMARK    2  A    between atoms: O_2  and  C_3
REMARK    3  A    between atoms: C_3  and  C_5
REMARK    4  A    between atoms: C_5  and  C_6
REMARK    5  A    between atoms: C_5  and  N_7
REMARK    6  A    between atoms: C_8  and  C_10
REMARK    7  A    between atoms: C_10  and  O_11
REMARK    8  A    between atoms: O_11  and  C_12
REMARK    9  A    between atoms: C_15  and  C_16
REMARK                            x       y       z     vdW  Elec       q    Type
REMARK                         _______ _______ _______ _____ _____    ______ ____
ROOT
ATOM      1  N   UNL A   1      38.660 -35.940 -31.055  0.00  0.00    -0.300 N 
ATOM      2  C   UNL A   1      37.311 -36.225 -30.971  0.00  0.00    +0.251 C 
ATOM      3  O   UNL A   1      36.883 -37.374 -30.975  0.00  0.00    -0.272 OA
ATOM      4  H   UNL A   1      38.949 -35.000 -31.104  0.00  0.00    +0.000 HD
ENDROOT
BRANCH   1   5
ATOM      5  C   UNL A   1      39.675 -36.999 -31.073  0.00  0.00    +0.118 C 
ATOM      6  C   UNL A   1      40.001 -37.419 -29.642  0.00  0.00    -0.036 C 
BRANCH   5   7
ATOM      7  C   UNL A   1      40.960 -36.580 -31.814  0.00  0.00    +0.327 C 
ATOM      8  O   UNL A   1      41.121 -35.478 -32.327  0.00  0.00    -0.249 OA
BRANCH   7  10
ATOM      9  C   UNL A   1      43.243 -37.114 -31.486  0.00  0.00    +0.082 C 
ATOM     10  O   UNL A   1      41.928 -37.534 -31.874  0.00  0.00    -0.467 OA
ENDBRANCH   7  10
ENDBRANCH   5   7
ENDBRANCH   1   5
BRANCH   2  11
ATOM     11  C   UNL A   1      36.428 -34.974 -30.870  0.00  0.00    +0.165 C 
BRANCH  11  12
ATOM     12  O   UNL A   1      35.030 -35.186 -30.952  0.00  0.00    -0.483 OA
BRANCH  12  13
ATOM     13  C   UNL A   1      34.205 -34.101 -30.852  0.00  0.00    +0.121 A 
ATOM     14  C   UNL A   1      33.108 -34.125 -31.720  0.00  0.00    -0.019 A 
ATOM     15  C   UNL A   1      32.178 -33.083 -31.726  0.00  0.00    -0.048 A 
ATOM     16  C   UNL A   1      32.342 -32.011 -30.849  0.00  0.00    +0.014 A 
ATOM     17  C   UNL A   1      33.427 -31.980 -29.970  0.00  0.00    -0.048 A 
ATOM     18  C   UNL A   1      34.358 -33.027 -29.973  0.00  0.00    -0.019 A 
BRANCH  16  19
ATOM     19  C   UNL A   1      31.367 -30.902 -30.837  0.00  0.00    +0.150 C 
ATOM     20  O   UNL A   1      30.454 -30.827 -31.650  0.00  0.00    -0.296 OA
ENDBRANCH  16  19
ENDBRANCH  12  13
ENDBRANCH  11  12
ENDBRANCH   2  11
TORSDOF 7
ENDMDL
MODEL 11
REMARK VINA RESULT:    -5.274      5.636      9.880
REMARK INTER + INTRA:          -7.826
REMARK INTER:                  -7.468
REMARK INTRA:                  -0.358
REMARK UNBOUND:                -0.393
REMARK  Name = cpd99.pdb
REMARK  9 active torsions:
REMARK  status: ('A' for Active; 'I' for Inactive)
REMARK    1  A    between atoms: C_1  and  O_2
REMARK    2  A    between atoms: O_2  and  C_3
REMARK    3  A    between atoms: C_3  and  C_5
REMARK    4  A    between atoms: C_5  and  C_6
REMARK    5  A    between atoms: C_5  and  N_7
REMARK    6  A    between atoms: C_8  and  C_10
REMARK    7  A    between atoms: C_10  and  O_11
REMARK    8  A    between atoms: O_11  and  C_12
REMARK    9  A    between atoms: C_15  and  C_16
REMARK                            x       y       z     vdW  Elec       q    Type
REMARK                         _______ _______ _______ _____ _____    ______ ____
ROOT
ATOM      1  N   UNL A   1      35.727 -38.158 -30.320  0.00  0.00    -0.300 N 
ATOM      2  C   UNL A   1      36.572 -37.491 -29.454  0.00  0.00    +0.251 C 
ATOM      3  O   UNL A   1      36.899 -37.957 -28.368  0.00  0.00    -0.272 OA
ATOM      4  H   UNL A   1      35.452 -37.717 -31.155  0.00  0.00    +0.000 HD
ENDROOT
BRANCH   1   5
ATOM      5  C   UNL A   1      35.228 -39.506 -30.028  0.00  0.00    +0.118 C 
ATOM      6  C   UNL A   1      35.254 -40.347 -31.301  0.00  0.00    -0.036 C 
BRANCH   5   7
ATOM      7  C   UNL A   1      33.811 -39.498 -29.421  0.00  0.00    +0.327 C 
ATOM      8  O   UNL A   1      33.304 -40.466 -28.864  0.00  0.00    -0.249 OA
BRANCH   7  10
ATOM      9  C   UNL A   1      31.716 -38.399 -29.361  0.00  0.00    +0.082 C 
ATOM     10  O   UNL A   1      33.135 -38.325 -29.549  0.00  0.00    -0.467 OA
ENDBRANCH   7  10
ENDBRANCH   5   7
ENDBRANCH   1   5
BRANCH   2  11
ATOM     11  C   UNL A   1      37.052 -36.136 -29.992  0.00  0.00    +0.165 C 
BRANCH  11  12
ATOM     12  O   UNL A   1      37.726 -36.160 -31.238  0.00  0.00    -0.483 OA
BRANCH  12  13
ATOM     13  C   UNL A   1      39.087 -36.032 -31.240  0.00  0.00    +0.121 A 
ATOM     14  C   UNL A   1      39.765 -37.056 -30.570  0.00  0.00    -0.019 A 
ATOM     15  C   UNL A   1      41.160 -37.058 -30.494  0.00  0.00    -0.048 A 
ATOM     16  C   UNL A   1      41.883 -36.031 -31.100  0.00  0.00    +0.014 A 
ATOM     17  C   UNL A   1      41.218 -35.009 -31.781  0.00  0.00    -0.048 A 
ATOM     18  C   UNL A   1      39.818 -35.011 -31.849  0.00  0.00    -0.019 A 
BRANCH  16  19
ATOM     19  C   UNL A   1      43.358 -36.019 -31.035  0.00  0.00    +0.150 C 
ATOM     20  O   UNL A   1      44.005 -37.004 -30.701  0.00  0.00    -0.296 OA
ENDBRANCH  16  19
ENDBRANCH  12  13
ENDBRANCH  11  12
ENDBRANCH   2  11
TORSDOF 7
ENDMDL
MODEL 12
REMARK VINA RESULT:    -5.255     16.281     18.512
REMARK INTER + INTRA:          -7.799
REMARK INTER:                  -7.367
REMARK INTRA:                  -0.432
REMARK UNBOUND:                -0.393
REMARK  Name = cpd99.pdb
REMARK  9 active torsions:
REMARK  status: ('A' for Active; 'I' for Inactive)
REMARK    1  A    between atoms: C_1  and  O_2
REMARK    2  A    between atoms: O_2  and  C_3
REMARK    3  A    between atoms: C_3  and  C_5
REMARK    4  A    between atoms: C_5  and  C_6
REMARK    5  A    between atoms: C_5  and  N_7
REMARK    6  A    between atoms: C_8  and  C_10
REMARK    7  A    between atoms: C_10  and  O_11
REMARK    8  A    between atoms: O_11  and  C_12
REMARK    9  A    between atoms: C_15  and  C_16
REMARK                            x       y       z     vdW  Elec       q    Type
REMARK                         _______ _______ _______ _____ _____    ______ ____
ROOT
ATOM      1  N   UNL A   1      43.532 -21.544 -41.007  0.00  0.00    -0.300 N 
ATOM      2  C   UNL A   1      43.204 -21.492 -39.666  0.00  0.00    +0.251 C 
ATOM      3  O   UNL A   1      43.954 -21.007 -38.826  0.00  0.00    -0.272 OA
ATOM      4  H   UNL A   1      42.919 -21.993 -41.632  0.00  0.00    +0.000 HD
ENDROOT
BRANCH   1   5
ATOM      5  C   UNL A   1      44.768 -20.948 -41.524  0.00  0.00    +0.118 C 
ATOM      6  C   UNL A   1      44.470 -20.195 -42.817  0.00  0.00    -0.036 C 
BRANCH   5   7
ATOM      7  C   UNL A   1      45.880 -21.990 -41.756  0.00  0.00    +0.327 C 
ATOM      8  O   UNL A   1      45.811 -22.885 -42.592  0.00  0.00    -0.249 OA
BRANCH   7  10
ATOM      9  C   UNL A   1      47.787 -23.031 -40.816  0.00  0.00    +0.082 C 
ATOM     10  O   UNL A   1      46.969 -21.862 -40.951  0.00  0.00    -0.467 OA
ENDBRANCH   7  10
ENDBRANCH   5   7
ENDBRANCH   1   5
BRANCH   2  11
ATOM     11  C   UNL A   1      41.825 -22.090 -39.351  0.00  0.00    +0.165 C 
BRANCH  11  12
ATOM     12  O   UNL A   1      40.983 -21.315 -38.516  0.00  0.00    -0.483 OA
BRANCH  12  13
ATOM     13  C   UNL A   1      40.594 -21.846 -37.319  0.00  0.00    +0.121 A 
ATOM     14  C   UNL A   1      41.386 -21.464 -36.231  0.00  0.00    -0.019 A 
ATOM     15  C   UNL A   1      41.104 -21.928 -34.944  0.00  0.00    -0.048 A 
ATOM     16  C   UNL A   1      40.015 -22.775 -34.742  0.00  0.00    +0.014 A 
ATOM     17  C   UNL A   1      39.210 -23.155 -35.818  0.00  0.00    -0.048 A 
ATOM     18  C   UNL A   1      39.502 -22.689 -37.107  0.00  0.00    -0.019 A 
BRANCH  16  19
ATOM     19  C   UNL A   1      39.698 -23.272 -33.388  0.00  0.00    +0.150 C 
ATOM     20  O   UNL A   1      38.754 -24.022 -33.172  0.00  0.00    -0.296 OA
ENDBRANCH  16  19
ENDBRANCH  12  13
ENDBRANCH  11  12
ENDBRANCH   2  11
TORSDOF 7
ENDMDL
MODEL 13
REMARK VINA RESULT:    -5.243     18.853     20.526
REMARK INTER + INTRA:          -7.782
REMARK INTER:                  -7.365
REMARK INTRA:                  -0.417
REMARK UNBOUND:                -0.393
REMARK  Name = cpd99.pdb
REMARK  9 active torsions:
REMARK  status: ('A' for Active; 'I' for Inactive)
REMARK    1  A    between atoms: C_1  and  O_2
REMARK    2  A    between atoms: O_2  and  C_3
REMARK    3  A    between atoms: C_3  and  C_5
REMARK    4  A    between atoms: C_5  and  C_6
REMARK    5  A    between atoms: C_5  and  N_7
REMARK    6  A    between atoms: C_8  and  C_10
REMARK    7  A    between atoms: C_10  and  O_11
REMARK    8  A    between atoms: O_11  and  C_12
REMARK    9  A    between atoms: C_15  and  C_16
REMARK                            x       y       z     vdW  Elec       q    Type
REMARK                         _______ _______ _______ _____ _____    ______ ____
ROOT
ATOM      1  N   UNL A   1      45.663 -20.188 -40.615  0.00  0.00    -0.300 N 
ATOM      2  C   UNL A   1      46.449 -19.127 -40.211  0.00  0.00    +0.251 C 
ATOM      3  O   UNL A   1      47.344 -18.670 -40.914  0.00  0.00    -0.272 OA
ATOM      4  H   UNL A   1      44.994 -20.552 -39.991  0.00  0.00    +0.000 HD
ENDROOT
BRANCH   1   5
ATOM      5  C   UNL A   1      45.797 -20.788 -41.946  0.00  0.00    +0.118 C 
ATOM      6  C   UNL A   1      44.488 -20.624 -42.714  0.00  0.00    -0.036 C 
BRANCH   5   7
ATOM      7  C   UNL A   1      46.204 -22.273 -41.893  0.00  0.00    +0.327 C 
ATOM      8  O   UNL A   1      46.042 -23.057 -42.822  0.00  0.00    -0.249 OA
BRANCH   7  10
ATOM      9  C   UNL A   1      48.112 -23.149 -40.799  0.00  0.00    +0.082 C 
ATOM     10  O   UNL A   1      46.761 -22.678 -40.719  0.00  0.00    -0.467 OA
ENDBRANCH   7  10
ENDBRANCH   5   7
ENDBRANCH   1   5
BRANCH   2  11
ATOM     11  C   UNL A   1      46.083 -18.589 -38.820  0.00  0.00    +0.165 C 
BRANCH  11  12
ATOM     12  O   UNL A   1      46.637 -19.281 -37.716  0.00  0.00    -0.483 OA
BRANCH  12  13
ATOM     13  C   UNL A   1      46.042 -19.129 -36.494  0.00  0.00    +0.121 A 
ATOM     14  C   UNL A   1      46.254 -17.881 -35.898  0.00  0.00    -0.019 A 
ATOM     15  C   UNL A   1      45.703 -17.584 -34.650  0.00  0.00    -0.048 A 
ATOM     16  C   UNL A   1      44.926 -18.540 -33.995  0.00  0.00    +0.014 A 
ATOM     17  C   UNL A   1      44.698 -19.785 -34.585  0.00  0.00    -0.048 A 
ATOM     18  C   UNL A   1      45.258 -20.078 -35.836  0.00  0.00    -0.019 A 
BRANCH  16  19
ATOM     19  C   UNL A   1      44.331 -18.242 -32.677  0.00  0.00    +0.150 C 
ATOM     20  O   UNL A   1      45.017 -18.018 -31.687  0.00  0.00    -0.296 OA
ENDBRANCH  16  19
ENDBRANCH  12  13
ENDBRANCH  11  12
ENDBRANCH   2  11
TORSDOF 7
ENDMDL
MODEL 14
REMARK VINA RESULT:    -5.224     15.650     18.569
REMARK INTER + INTRA:          -7.755
REMARK INTER:                  -7.350
REMARK INTRA:                  -0.405
REMARK UNBOUND:                -0.393
REMARK  Name = cpd99.pdb
REMARK  9 active torsions:
REMARK  status: ('A' for Active; 'I' for Inactive)
REMARK    1  A    between atoms: C_1  and  O_2
REMARK    2  A    between atoms: O_2  and  C_3
REMARK    3  A    between atoms: C_3  and  C_5
REMARK    4  A    between atoms: C_5  and  C_6
REMARK    5  A    between atoms: C_5  and  N_7
REMARK    6  A    between atoms: C_8  and  C_10
REMARK    7  A    between atoms: C_10  and  O_11
REMARK    8  A    between atoms: O_11  and  C_12
REMARK    9  A    between atoms: C_15  and  C_16
REMARK                            x       y       z     vdW  Elec       q    Type
REMARK                         _______ _______ _______ _____ _____    ______ ____
ROOT
ATOM      1  N   UNL A   1      41.043 -22.025 -35.034  0.00  0.00    -0.300 N 
ATOM      2  C   UNL A   1      40.344 -21.730 -36.187  0.00  0.00    +0.251 C 
ATOM      3  O   UNL A   1      39.178 -21.350 -36.168  0.00  0.00    -0.272 OA
ATOM      4  H   UNL A   1      41.959 -22.379 -35.107  0.00  0.00    +0.000 HD
ENDROOT
BRANCH   1   5
ATOM      5  C   UNL A   1      40.459 -21.828 -33.703  0.00  0.00    +0.118 C 
ATOM      6  C   UNL A   1      41.411 -20.997 -32.846  0.00  0.00    -0.036 C 
BRANCH   5   7
ATOM      7  C   UNL A   1      40.124 -23.156 -32.997  0.00  0.00    +0.327 C 
ATOM      8  O   UNL A   1      39.438 -24.040 -33.499  0.00  0.00    -0.249 OA
BRANCH   7  10
ATOM      9  C   UNL A   1      41.471 -24.437 -31.532  0.00  0.00    +0.082 C 
ATOM     10  O   UNL A   1      40.639 -23.290 -31.745  0.00  0.00    -0.467 OA
ENDBRANCH   7  10
ENDBRANCH   5   7
ENDBRANCH   1   5
BRANCH   2  11
ATOM     11  C   UNL A   1      41.169 -21.918 -37.468  0.00  0.00    +0.165 C 
BRANCH  11  12
ATOM     12  O   UNL A   1      42.174 -20.951 -37.713  0.00  0.00    -0.483 OA
BRANCH  12  13
ATOM     13  C   UNL A   1      42.942 -21.087 -38.836  0.00  0.00    +0.121 A 
ATOM     14  C   UNL A   1      42.224 -21.406 -39.994  0.00  0.00    -0.019 A 
ATOM     15  C   UNL A   1      42.878 -21.572 -41.216  0.00  0.00    -0.048 A 
ATOM     16  C   UNL A   1      44.262 -21.410 -41.284  0.00  0.00    +0.014 A 
ATOM     17  C   UNL A   1      44.989 -21.081 -40.137  0.00  0.00    -0.048 A 
ATOM     18  C   UNL A   1      44.326 -20.920 -38.914  0.00  0.00    -0.019 A 
BRANCH  16  19
ATOM     19  C   UNL A   1      44.970 -21.577 -42.569  0.00  0.00    +0.150 C 
ATOM     20  O   UNL A   1      45.549 -22.615 -42.865  0.00  0.00    -0.296 OA
ENDBRANCH  16  19
ENDBRANCH  12  13
ENDBRANCH  11  12
ENDBRANCH   2  11
TORSDOF 7
ENDMDL
MODEL 15
REMARK VINA RESULT:    -5.223     15.380     18.393
REMARK INTER + INTRA:          -7.753
REMARK INTER:                  -7.333
REMARK INTRA:                  -0.419
REMARK UNBOUND:                -0.393
REMARK  Name = cpd99.pdb
REMARK  9 active torsions:
REMARK  status: ('A' for Active; 'I' for Inactive)
REMARK    1  A    between atoms: C_1  and  O_2
REMARK    2  A    between atoms: O_2  and  C_3
REMARK    3  A    between atoms: C_3  and  C_5
REMARK    4  A    between atoms: C_5  and  C_6
REMARK    5  A    between atoms: C_5  and  N_7
REMARK    6  A    between atoms: C_8  and  C_10
REMARK    7  A    between atoms: C_10  and  O_11
REMARK    8  A    between atoms: O_11  and  C_12
REMARK    9  A    between atoms: C_15  and  C_16
REMARK                            x       y       z     vdW  Elec       q    Type
REMARK                         _______ _______ _______ _____ _____    ______ ____
ROOT
ATOM      1  N   UNL A   1      39.320 -21.980 -35.001  0.00  0.00    -0.300 N 
ATOM      2  C   UNL A   1      39.232 -22.854 -36.066  0.00  0.00    +0.251 C 
ATOM      3  O   UNL A   1      39.065 -24.059 -35.913  0.00  0.00    -0.272 OA
ATOM      4  H   UNL A   1      39.509 -21.030 -35.175  0.00  0.00    +0.000 HD
ENDROOT
BRANCH   1   5
ATOM      5  C   UNL A   1      39.139 -22.428 -33.616  0.00  0.00    +0.118 C 
ATOM      6  C   UNL A   1      38.102 -21.546 -32.925  0.00  0.00    -0.036 C 
BRANCH   5   7
ATOM      7  C   UNL A   1      40.455 -22.434 -32.814  0.00  0.00    +0.327 C 
ATOM      8  O   UNL A   1      41.428 -21.744 -33.099  0.00  0.00    -0.249 OA
BRANCH   7  10
ATOM      9  C   UNL A   1      41.542 -24.239 -31.736  0.00  0.00    +0.082 C 
ATOM     10  O   UNL A   1      40.479 -23.278 -31.748  0.00  0.00    -0.467 OA
ENDBRANCH   7  10
ENDBRANCH   5   7
ENDBRANCH   1   5
BRANCH   2  11
ATOM     11  C   UNL A   1      39.358 -22.167 -37.433  0.00  0.00    +0.165 C 
BRANCH  11  12
ATOM     12  O   UNL A   1      40.061 -22.883 -38.432  0.00  0.00    -0.483 OA
BRANCH  12  13
ATOM     13  C   UNL A   1      41.040 -22.229 -39.127  0.00  0.00    +0.121 A 
ATOM     14  C   UNL A   1      41.957 -21.539 -38.327  0.00  0.00    -0.019 A 
ATOM     15  C   UNL A   1      43.013 -20.829 -38.901  0.00  0.00    -0.048 A 
ATOM     16  C   UNL A   1      43.159 -20.815 -40.288  0.00  0.00    +0.014 A 
ATOM     17  C   UNL A   1      42.257 -21.510 -41.098  0.00  0.00    -0.048 A 
ATOM     18  C   UNL A   1      41.197 -22.216 -40.514  0.00  0.00    -0.019 A 
BRANCH  16  19
ATOM     19  C   UNL A   1      44.273 -20.074 -40.913  0.00  0.00    +0.150 C 
ATOM     20  O   UNL A   1      44.880 -20.506 -41.885  0.00  0.00    -0.296 OA
ENDBRANCH  16  19
ENDBRANCH  12  13
ENDBRANCH  11  12
ENDBRANCH   2  11
TORSDOF 7
ENDMDL
MODEL 16
REMARK VINA RESULT:    -5.209      7.353     12.056
REMARK INTER + INTRA:          -7.734
REMARK INTER:                  -7.410
REMARK INTRA:                  -0.323
REMARK UNBOUND:                -0.393
REMARK  Name = cpd99.pdb
REMARK  9 active torsions:
REMARK  status: ('A' for Active; 'I' for Inactive)
REMARK    1  A    between atoms: C_1  and  O_2
REMARK    2  A    between atoms: O_2  and  C_3
REMARK    3  A    between atoms: C_3  and  C_5
REMARK    4  A    between atoms: C_5  and  C_6
REMARK    5  A    between atoms: C_5  and  N_7
REMARK    6  A    between atoms: C_8  and  C_10
REMARK    7  A    between atoms: C_10  and  O_11
REMARK    8  A    between atoms: O_11  and  C_12
REMARK    9  A    between atoms: C_15  and  C_16
REMARK                            x       y       z     vdW  Elec       q    Type
REMARK                         _______ _______ _______ _____ _____    ______ ____
ROOT
ATOM      1  N   UNL A   1      33.326 -33.926 -29.856  0.00  0.00    -0.300 N 
ATOM      2  C   UNL A   1      33.816 -35.161 -30.232  0.00  0.00    +0.251 C 
ATOM      3  O   UNL A   1      33.108 -36.017 -30.751  0.00  0.00    -0.272 OA
ATOM      4  H   UNL A   1      33.923 -33.295 -29.393  0.00  0.00    +0.000 HD
ENDROOT
BRANCH   1   5
ATOM      5  C   UNL A   1      31.940 -33.529 -30.125  0.00  0.00    +0.118 C 
ATOM      6  C   UNL A   1      31.868 -32.801 -31.465  0.00  0.00    -0.036 C 
BRANCH   5   7
ATOM      7  C   UNL A   1      31.343 -32.653 -29.007  0.00  0.00    +0.327 C 
ATOM      8  O   UNL A   1      31.409 -32.932 -27.814  0.00  0.00    -0.249 OA
BRANCH   7  10
ATOM      9  C   UNL A   1      29.478 -31.213 -28.773  0.00  0.00    +0.082 C 
ATOM     10  O   UNL A   1      30.713 -31.524 -29.432  0.00  0.00    -0.467 OA
ENDBRANCH   7  10
ENDBRANCH   5   7
ENDBRANCH   1   5
BRANCH   2  11
ATOM     11  C   UNL A   1      35.314 -35.338 -29.943  0.00  0.00    +0.165 C 
BRANCH  11  12
ATOM     12  O   UNL A   1      36.172 -35.351 -31.070  0.00  0.00    -0.483 OA
BRANCH  12  13
ATOM     13  C   UNL A   1      37.431 -35.861 -30.917  0.00  0.00    +0.121 A 
ATOM     14  C   UNL A   1      38.389 -35.306 -31.771  0.00  0.00    -0.019 A 
ATOM     15  C   UNL A   1      39.719 -35.729 -31.724  0.00  0.00    -0.048 A 
ATOM     16  C   UNL A   1      40.096 -36.710 -30.807  0.00  0.00    +0.014 A 
ATOM     17  C   UNL A   1      39.151 -37.264 -29.940  0.00  0.00    -0.048 A 
ATOM     18  C   UNL A   1      37.818 -36.838 -29.997  0.00  0.00    -0.019 A 
BRANCH  16  19
ATOM     19  C   UNL A   1      41.499 -37.166 -30.739  0.00  0.00    +0.150 C 
ATOM     20  O   UNL A   1      42.384 -36.484 -30.237  0.00  0.00    -0.296 OA
ENDBRANCH  16  19
ENDBRANCH  12  13
ENDBRANCH  11  12
ENDBRANCH   2  11
TORSDOF 7
ENDMDL
MODEL 17
REMARK VINA RESULT:    -5.181     16.637     18.964
REMARK INTER + INTRA:          -7.694
REMARK INTER:                  -7.237
REMARK INTRA:                  -0.457
REMARK UNBOUND:                -0.393
REMARK  Name = cpd99.pdb
REMARK  9 active torsions:
REMARK  status: ('A' for Active; 'I' for Inactive)
REMARK    1  A    between atoms: C_1  and  O_2
REMARK    2  A    between atoms: O_2  and  C_3
REMARK    3  A    between atoms: C_3  and  C_5
REMARK    4  A    between atoms: C_5  and  C_6
REMARK    5  A    between atoms: C_5  and  N_7
REMARK    6  A    between atoms: C_8  and  C_10
REMARK    7  A    between atoms: C_10  and  O_11
REMARK    8  A    between atoms: O_11  and  C_12
REMARK    9  A    between atoms: C_15  and  C_16
REMARK                            x       y       z     vdW  Elec       q    Type
REMARK                         _______ _______ _______ _____ _____    ______ ____
ROOT
ATOM      1  N   UNL A   1      39.682 -21.892 -35.253  0.00  0.00    -0.300 N 
ATOM      2  C   UNL A   1      40.434 -22.222 -36.363  0.00  0.00    +0.251 C 
ATOM      3  O   UNL A   1      41.165 -23.206 -36.391  0.00  0.00    -0.272 OA
ATOM      4  H   UNL A   1      39.153 -21.062 -35.263  0.00  0.00    +0.000 HD
ENDROOT
BRANCH   1   5
ATOM      5  C   UNL A   1      39.650 -22.744 -34.060  0.00  0.00    +0.118 C 
ATOM      6  C   UNL A   1      38.258 -23.352 -33.904  0.00  0.00    -0.036 C 
BRANCH   5   7
ATOM      7  C   UNL A   1      40.051 -21.989 -32.777  0.00  0.00    +0.327 C 
ATOM      8  O   UNL A   1      39.283 -21.774 -31.846  0.00  0.00    -0.249 OA
BRANCH   7  10
ATOM      9  C   UNL A   1      41.518 -20.136 -32.651  0.00  0.00    +0.082 C 
ATOM     10  O   UNL A   1      41.340 -21.555 -32.742  0.00  0.00    -0.467 OA
ENDBRANCH   7  10
ENDBRANCH   5   7
ENDBRANCH   1   5
BRANCH   2  11
ATOM     11  C   UNL A   1      40.253 -21.248 -37.536  0.00  0.00    +0.165 C 
BRANCH  11  12
ATOM     12  O   UNL A   1      40.271 -21.818 -38.832  0.00  0.00    -0.483 OA
BRANCH  12  13
ATOM     13  C   UNL A   1      41.334 -21.539 -39.645  0.00  0.00    +0.121 A 
ATOM     14  C   UNL A   1      41.239 -22.083 -40.930  0.00  0.00    -0.019 A 
ATOM     15  C   UNL A   1      42.252 -21.877 -41.870  0.00  0.00    -0.048 A 
ATOM     16  C   UNL A   1      43.366 -21.112 -41.524  0.00  0.00    +0.014 A 
ATOM     17  C   UNL A   1      43.467 -20.554 -40.247  0.00  0.00    -0.048 A 
ATOM     18  C   UNL A   1      42.450 -20.769 -39.309  0.00  0.00    -0.019 A 
BRANCH  16  19
ATOM     19  C   UNL A   1      44.444 -20.879 -42.505  0.00  0.00    +0.150 C 
ATOM     20  O   UNL A   1      44.771 -19.753 -42.860  0.00  0.00    -0.296 OA
ENDBRANCH  16  19
ENDBRANCH  12  13
ENDBRANCH  11  12
ENDBRANCH   2  11
TORSDOF 7
ENDMDL
MODEL 18
REMARK VINA RESULT:    -5.014      7.064     11.908
REMARK INTER + INTRA:          -7.458
REMARK INTER:                  -6.992
REMARK INTRA:                  -0.466
REMARK UNBOUND:                -0.393
REMARK  Name = cpd99.pdb
REMARK  9 active torsions:
REMARK  status: ('A' for Active; 'I' for Inactive)
REMARK    1  A    between atoms: C_1  and  O_2
REMARK    2  A    between atoms: O_2  and  C_3
REMARK    3  A    between atoms: C_3  and  C_5
REMARK    4  A    between atoms: C_5  and  C_6
REMARK    5  A    between atoms: C_5  and  N_7
REMARK    6  A    between atoms: C_8  and  C_10
REMARK    7  A    between atoms: C_10  and  O_11
REMARK    8  A    between atoms: O_11  and  C_12
REMARK    9  A    between atoms: C_15  and  C_16
REMARK                            x       y       z     vdW  Elec       q    Type
REMARK                         _______ _______ _______ _____ _____    ______ ____
ROOT
ATOM      1  N   UNL A   1      33.257 -34.592 -29.922  0.00  0.00    -0.300 N 
ATOM      2  C   UNL A   1      34.509 -34.201 -30.352  0.00  0.00    +0.251 C 
ATOM      3  O   UNL A   1      34.948 -33.074 -30.152  0.00  0.00    -0.272 OA
ATOM      4  H   UNL A   1      32.930 -35.491 -30.155  0.00  0.00    +0.000 HD
ENDROOT
BRANCH   1   5
ATOM      5  C   UNL A   1      32.400 -33.706 -29.127  0.00  0.00    +0.118 C 
ATOM      6  C   UNL A   1      32.078 -34.370 -27.791  0.00  0.00    -0.036 C 
BRANCH   5   7
ATOM      7  C   UNL A   1      31.101 -33.319 -29.860  0.00  0.00    +0.327 C 
ATOM      8  O   UNL A   1      30.436 -32.325 -29.587  0.00  0.00    -0.249 OA
BRANCH   7  10
ATOM      9  C   UNL A   1      29.631 -35.048 -30.532  0.00  0.00    +0.082 C 
ATOM     10  O   UNL A   1      30.720 -34.172 -30.849  0.00  0.00    -0.467 OA
ENDBRANCH   7  10
ENDBRANCH   5   7
ENDBRANCH   1   5
BRANCH   2  11
ATOM     11  C   UNL A   1      35.278 -35.310 -31.085  0.00  0.00    +0.165 C 
BRANCH  11  12
ATOM     12  O   UNL A   1      36.316 -35.940 -30.356  0.00  0.00    -0.483 OA
BRANCH  12  13
ATOM     13  C   UNL A   1      37.603 -35.759 -30.779  0.00  0.00    +0.121 A 
ATOM     14  C   UNL A   1      38.488 -36.771 -30.391  0.00  0.00    -0.019 A 
ATOM     15  C   UNL A   1      39.835 -36.721 -30.755  0.00  0.00    -0.048 A 
ATOM     16  C   UNL A   1      40.301 -35.652 -31.521  0.00  0.00    +0.014 A 
ATOM     17  C   UNL A   1      39.425 -34.640 -31.924  0.00  0.00    -0.048 A 
ATOM     18  C   UNL A   1      38.076 -34.696 -31.551  0.00  0.00    -0.019 A 
BRANCH  16  19
ATOM     19  C   UNL A   1      41.721 -35.583 -31.920  0.00  0.00    +0.150 C 
ATOM     20  O   UNL A   1      42.465 -36.554 -31.856  0.00  0.00    -0.296 OA
ENDBRANCH  16  19
ENDBRANCH  12  13
ENDBRANCH  11  12
ENDBRANCH   2  11
TORSDOF 7
ENDMDL
MODEL 19
REMARK VINA RESULT:    -4.975      6.181     11.075
REMARK INTER + INTRA:          -7.404
REMARK INTER:                  -6.963
REMARK INTRA:                  -0.441
REMARK UNBOUND:                -0.393
REMARK  Name = cpd99.pdb
REMARK  9 active torsions:
REMARK  status: ('A' for Active; 'I' for Inactive)
REMARK    1  A    between atoms: C_1  and  O_2
REMARK    2  A    between atoms: O_2  and  C_3
REMARK    3  A    between atoms: C_3  and  C_5
REMARK    4  A    between atoms: C_5  and  C_6
REMARK    5  A    between atoms: C_5  and  N_7
REMARK    6  A    between atoms: C_8  and  C_10
REMARK    7  A    between atoms: C_10  and  O_11
REMARK    8  A    between atoms: O_11  and  C_12
REMARK    9  A    between atoms: C_15  and  C_16
REMARK                            x       y       z     vdW  Elec       q    Type
REMARK                         _______ _______ _______ _____ _____    ______ ____
ROOT
ATOM      1  N   UNL A   1      34.152 -36.420 -30.677  0.00  0.00    -0.300 N 
ATOM      2  C   UNL A   1      34.935 -35.704 -29.793  0.00  0.00    +0.251 C 
ATOM      3  O   UNL A   1      34.459 -34.904 -28.995  0.00  0.00    -0.272 OA
ATOM      4  H   UNL A   1      34.588 -37.009 -31.334  0.00  0.00    +0.000 HD
ENDROOT
BRANCH   1   5
ATOM      5  C   UNL A   1      32.689 -36.327 -30.664  0.00  0.00    +0.118 C 
ATOM      6  C   UNL A   1      32.097 -37.648 -30.177  0.00  0.00    -0.036 C 
BRANCH   5   7
ATOM      7  C   UNL A   1      32.103 -35.954 -32.040  0.00  0.00    +0.327 C 
ATOM      8  O   UNL A   1      32.144 -34.823 -32.512  0.00  0.00    -0.249 OA
BRANCH   7  10
ATOM      9  C   UNL A   1      32.128 -37.341 -33.958  0.00  0.00    +0.082 C 
ATOM     10  O   UNL A   1      31.514 -36.978 -32.714  0.00  0.00    -0.467 OA
ENDBRANCH   7  10
ENDBRANCH   5   7
ENDBRANCH   1   5
BRANCH   2  11
ATOM     11  C   UNL A   1      36.433 -36.017 -29.911  0.00  0.00    +0.165 C 
BRANCH  11  12
ATOM     12  O   UNL A   1      37.001 -35.884 -31.202  0.00  0.00    -0.483 OA
BRANCH  12  13
ATOM     13  C   UNL A   1      38.323 -36.194 -31.361  0.00  0.00    +0.121 A 
ATOM     14  C   UNL A   1      38.853 -37.007 -30.354  0.00  0.00    -0.019 A 
ATOM     15  C   UNL A   1      40.191 -37.406 -30.388  0.00  0.00    -0.048 A 
ATOM     16  C   UNL A   1      41.004 -36.995 -31.444  0.00  0.00    +0.014 A 
ATOM     17  C   UNL A   1      40.484 -36.192 -32.462  0.00  0.00    -0.048 A 
ATOM     18  C   UNL A   1      39.142 -35.792 -32.418  0.00  0.00    -0.019 A 
BRANCH  16  19
ATOM     19  C   UNL A   1      42.420 -37.411 -31.501  0.00  0.00    +0.150 C 
ATOM     20  O   UNL A   1      43.337 -36.600 -31.557  0.00  0.00    -0.296 OA
ENDBRANCH  16  19
ENDBRANCH  12  13
ENDBRANCH  11  12
ENDBRANCH   2  11
TORSDOF 7
ENDMDL
MODEL 20
REMARK VINA RESULT:    -4.734     16.428     19.000
REMARK INTER + INTRA:          -7.064
REMARK INTER:                  -6.333
REMARK INTRA:                  -0.731
REMARK UNBOUND:                -0.393
REMARK  Name = cpd99.pdb
REMARK  9 active torsions:
REMARK  status: ('A' for Active; 'I' for Inactive)
REMARK    1  A    between atoms: C_1  and  O_2
REMARK    2  A    between atoms: O_2  and  C_3
REMARK    3  A    between atoms: C_3  and  C_5
REMARK    4  A    between atoms: C_5  and  C_6
REMARK    5  A    between atoms: C_5  and  N_7
REMARK    6  A    between atoms: C_8  and  C_10
REMARK    7  A    between atoms: C_10  and  O_11
REMARK    8  A    between atoms: O_11  and  C_12
REMARK    9  A    between atoms: C_15  and  C_16
REMARK                            x       y       z     vdW  Elec       q    Type
REMARK                         _______ _______ _______ _____ _____    ______ ____
ROOT
ATOM      1  N   UNL A   1      40.216 -21.853 -35.923  0.00  0.00    -0.300 N 
ATOM      2  C   UNL A   1      39.856 -22.993 -35.231  0.00  0.00    +0.251 C 
ATOM      3  O   UNL A   1      39.257 -23.921 -35.763  0.00  0.00    -0.272 OA
ATOM      4  H   UNL A   1      40.646 -21.114 -35.437  0.00  0.00    +0.000 HD
ENDROOT
BRANCH   1   5
ATOM      5  C   UNL A   1      39.973 -21.714 -37.362  0.00  0.00    +0.118 C 
ATOM      6  C   UNL A   1      41.307 -21.697 -38.106  0.00  0.00    -0.036 C 
BRANCH   5   7
ATOM      7  C   UNL A   1      39.151 -20.457 -37.710  0.00  0.00    +0.327 C 
ATOM      8  O   UNL A   1      39.147 -19.932 -38.818  0.00  0.00    -0.249 OA
BRANCH   7  10
ATOM      9  C   UNL A   1      38.695 -18.583 -36.337  0.00  0.00    +0.082 C 
ATOM     10  O   UNL A   1      38.418 -19.946 -36.684  0.00  0.00    -0.467 OA
ENDBRANCH   7  10
ENDBRANCH   5   7
ENDBRANCH   1   5
BRANCH   2  11
ATOM     11  C   UNL A   1      40.284 -22.973 -33.757  0.00  0.00    +0.165 C 
BRANCH  11  12
ATOM     12  O   UNL A   1      39.247 -22.809 -32.805  0.00  0.00    -0.483 OA
BRANCH  12  13
ATOM     13  C   UNL A   1      38.609 -21.602 -32.748  0.00  0.00    +0.121 A 
ATOM     14  C   UNL A   1      37.214 -21.680 -32.826  0.00  0.00    -0.019 A 
ATOM     15  C   UNL A   1      36.431 -20.525 -32.777  0.00  0.00    -0.048 A 
ATOM     16  C   UNL A   1      37.047 -19.281 -32.639  0.00  0.00    +0.014 A 
ATOM     17  C   UNL A   1      38.438 -19.191 -32.548  0.00  0.00    -0.048 A 
ATOM     18  C   UNL A   1      39.217 -20.354 -32.603  0.00  0.00    -0.019 A 
BRANCH  16  19
ATOM     19  C   UNL A   1      36.234 -18.050 -32.580  0.00  0.00    +0.150 C 
ATOM     20  O   UNL A   1      35.136 -17.966 -33.115  0.00  0.00    -0.296 OA
ENDBRANCH  16  19
ENDBRANCH  12  13
ENDBRANCH  11  12
ENDBRANCH   2  11
TORSDOF 7
ENDMDL
