MODEL 1
REMARK VINA RESULT:    -4.419      0.000      0.000
REMARK INTER + INTRA:          -3.313
REMARK INTER:                  -4.936
REMARK INTRA:                   1.623
REMARK UNBOUND:                 1.623
REMARK  Name = cpd220.pdb
REMARK  7 active torsions:
REMARK  status: ('A' for Active; 'I' for Inactive)
REMARK    1  A    between atoms: C_1  and  N_2
REMARK    2  A    between atoms: N_2  and  C_3
REMARK    3  A    between atoms: N_2  and  C_4
REMARK    4  A    between atoms: N_2  and  C_5
REMARK    5  A    between atoms: C_5  and  C_6
REMARK    6  A    between atoms: C_6  and  C_7
REMARK    7  A    between atoms: C_7  and  C_8
REMARK                            x       y       z     vdW  Elec       q    Type
REMARK                         _______ _______ _______ _____ _____    ______ ____
ROOT
ATOM      1  C   UNL     1      40.692 -35.962 -31.332  0.00  0.00    -0.089 C 
ENDROOT
BRANCH   1   3
ATOM      2  C   UNL     1      39.330 -36.307 -31.171  0.00  0.00    -0.101 C 
ATOM      3  N   UNL     1      39.821 -35.502 -31.504  0.00  0.00    +0.374 N 
ATOM      4  C   UNL     1      38.950 -35.042 -31.677  0.00  0.00    -0.101 C 
ATOM      5  C   UNL     1      40.312 -34.697 -31.837  0.00  0.00    -0.101 C 
ENDBRANCH   1   3
BRANCH   1   6
ATOM      6  C   UNL     1      41.662 -37.273 -32.027  0.00  0.00    -0.067 C 
BRANCH   6   7
ATOM      7  C   UNL     1      42.822 -37.650 -31.085  0.00  0.00    -0.046 C 
BRANCH   7   8
ATOM      8  C   UNL     1      42.472 -38.869 -30.230  0.00  0.00    -0.000 C 
ATOM      9  I   UNL     1      44.226 -40.010 -29.815  0.00  0.00    -0.085 I 
ENDBRANCH   7   8
ENDBRANCH   6   7
ENDBRANCH   1   6
TORSDOF 4
ENDMDL
MODEL 2
REMARK VINA RESULT:    -4.313      2.768      3.972
REMARK INTER + INTRA:          -3.195
REMARK INTER:                  -4.753
REMARK INTRA:                   1.559
REMARK UNBOUND:                 1.623
REMARK  Name = cpd220.pdb
REMARK  7 active torsions:
REMARK  status: ('A' for Active; 'I' for Inactive)
REMARK    1  A    between atoms: C_1  and  N_2
REMARK    2  A    between atoms: N_2  and  C_3
REMARK    3  A    between atoms: N_2  and  C_4
REMARK    4  A    between atoms: N_2  and  C_5
REMARK    5  A    between atoms: C_5  and  C_6
REMARK    6  A    between atoms: C_6  and  C_7
REMARK    7  A    between atoms: C_7  and  C_8
REMARK                            x       y       z     vdW  Elec       q    Type
REMARK                         _______ _______ _______ _____ _____    ______ ____
ROOT
ATOM      1  C   UNL     1      40.308 -35.815 -31.282  0.00  0.00    -0.089 C 
ENDROOT
BRANCH   1   3
ATOM      2  C   UNL     1      41.561 -35.872 -30.628  0.00  0.00    -0.101 C 
ATOM      3  N   UNL     1      41.260 -35.875 -31.582  0.00  0.00    +0.374 N 
ATOM      4  C   UNL     1      42.212 -35.934 -31.882  0.00  0.00    -0.101 C 
ATOM      5  C   UNL     1      40.960 -35.878 -32.536  0.00  0.00    -0.101 C 
ENDBRANCH   1   3
BRANCH   1   6
ATOM      6  C   UNL     1      39.032 -36.896 -30.691  0.00  0.00    -0.067 C 
BRANCH   6   7
ATOM      7  C   UNL     1      37.692 -36.143 -30.579  0.00  0.00    -0.046 C 
BRANCH   7   8
ATOM      8  C   UNL     1      36.934 -36.538 -29.311  0.00  0.00    -0.000 C 
ATOM      9  I   UNL     1      37.866 -38.217 -28.382  0.00  0.00    -0.085 I 
ENDBRANCH   7   8
ENDBRANCH   6   7
ENDBRANCH   1   6
TORSDOF 4
ENDMDL
MODEL 3
REMARK VINA RESULT:    -4.308      2.837      4.304
REMARK INTER + INTRA:          -3.189
REMARK INTER:                  -4.797
REMARK INTRA:                   1.608
REMARK UNBOUND:                 1.623
REMARK  Name = cpd220.pdb
REMARK  7 active torsions:
REMARK  status: ('A' for Active; 'I' for Inactive)
REMARK    1  A    between atoms: C_1  and  N_2
REMARK    2  A    between atoms: N_2  and  C_3
REMARK    3  A    between atoms: N_2  and  C_4
REMARK    4  A    between atoms: N_2  and  C_5
REMARK    5  A    between atoms: C_5  and  C_6
REMARK    6  A    between atoms: C_6  and  C_7
REMARK    7  A    between atoms: C_7  and  C_8
REMARK                            x       y       z     vdW  Elec       q    Type
REMARK                         _______ _______ _______ _____ _____    ______ ____
ROOT
ATOM      1  C   UNL     1      41.236 -37.050 -31.637  0.00  0.00    -0.089 C 
ENDROOT
BRANCH   1   3
ATOM      2  C   UNL     1      42.228 -36.045 -31.707  0.00  0.00    -0.101 C 
ATOM      3  N   UNL     1      42.228 -37.027 -31.519  0.00  0.00    +0.374 N 
ATOM      4  C   UNL     1      43.221 -37.004 -31.401  0.00  0.00    -0.101 C 
ATOM      5  C   UNL     1      42.229 -38.009 -31.331  0.00  0.00    -0.101 C 
ENDBRANCH   1   3
BRANCH   1   6
ATOM      6  C   UNL     1      39.776 -36.890 -30.644  0.00  0.00    -0.067 C 
BRANCH   6   7
ATOM      7  C   UNL     1      38.638 -36.238 -31.452  0.00  0.00    -0.046 C 
BRANCH   7   8
ATOM      8  C   UNL     1      37.321 -36.254 -30.675  0.00  0.00    -0.000 C 
ATOM      9  I   UNL     1      37.469 -37.556 -28.991  0.00  0.00    -0.085 I 
ENDBRANCH   7   8
ENDBRANCH   6   7
ENDBRANCH   1   6
TORSDOF 4
ENDMDL
MODEL 4
REMARK VINA RESULT:    -4.233      7.357      7.778
REMARK INTER + INTRA:          -3.105
REMARK INTER:                  -4.909
REMARK INTRA:                   1.803
REMARK UNBOUND:                 1.623
REMARK  Name = cpd220.pdb
REMARK  7 active torsions:
REMARK  status: ('A' for Active; 'I' for Inactive)
REMARK    1  A    between atoms: C_1  and  N_2
REMARK    2  A    between atoms: N_2  and  C_3
REMARK    3  A    between atoms: N_2  and  C_4
REMARK    4  A    between atoms: N_2  and  C_5
REMARK    5  A    between atoms: C_5  and  C_6
REMARK    6  A    between atoms: C_6  and  C_7
REMARK    7  A    between atoms: C_7  and  C_8
REMARK                            x       y       z     vdW  Elec       q    Type
REMARK                         _______ _______ _______ _____ _____    ______ ____
ROOT
ATOM      1  C   UNL     1      46.188 -40.822 -29.528  0.00  0.00    -0.089 C 
ENDROOT
BRANCH   1   3
ATOM      2  C   UNL     1      45.368 -41.800 -28.919  0.00  0.00    -0.101 C 
ATOM      3  N   UNL     1      45.778 -41.685 -29.824  0.00  0.00    +0.374 N 
ATOM      4  C   UNL     1      45.368 -42.548 -30.119  0.00  0.00    -0.101 C 
ATOM      5  C   UNL     1      46.189 -41.570 -30.728  0.00  0.00    -0.101 C 
ENDBRANCH   1   3
BRANCH   1   6
ATOM      6  C   UNL     1      47.730 -39.961 -29.688  0.00  0.00    -0.067 C 
BRANCH   6   7
ATOM      7  C   UNL     1      47.573 -38.486 -29.272  0.00  0.00    -0.046 C 
BRANCH   7   8
ATOM      8  C   UNL     1      48.819 -37.671 -29.623  0.00  0.00    -0.000 C 
ATOM      9  I   UNL     1      50.226 -38.883 -30.673  0.00  0.00    -0.085 I 
ENDBRANCH   7   8
ENDBRANCH   6   7
ENDBRANCH   1   6
TORSDOF 4
ENDMDL
MODEL 5
REMARK VINA RESULT:    -4.233     33.788     34.683
REMARK INTER + INTRA:          -3.105
REMARK INTER:                  -4.732
REMARK INTRA:                   1.627
REMARK UNBOUND:                 1.623
REMARK  Name = cpd220.pdb
REMARK  7 active torsions:
REMARK  status: ('A' for Active; 'I' for Inactive)
REMARK    1  A    between atoms: C_1  and  N_2
REMARK    2  A    between atoms: N_2  and  C_3
REMARK    3  A    between atoms: N_2  and  C_4
REMARK    4  A    between atoms: N_2  and  C_5
REMARK    5  A    between atoms: C_5  and  C_6
REMARK    6  A    between atoms: C_6  and  C_7
REMARK    7  A    between atoms: C_7  and  C_8
REMARK                            x       y       z     vdW  Elec       q    Type
REMARK                         _______ _______ _______ _____ _____    ______ ____
ROOT
ATOM      1  C   UNL     1      63.194 -26.283  -6.962  0.00  0.00    -0.089 C 
ENDROOT
BRANCH   1   3
ATOM      2  C   UNL     1      63.891 -26.968  -5.939  0.00  0.00    -0.101 C 
ATOM      3  N   UNL     1      63.099 -27.173  -6.515  0.00  0.00    +0.374 N 
ATOM      4  C   UNL     1      63.005 -28.062  -6.068  0.00  0.00    -0.101 C 
ATOM      5  C   UNL     1      62.308 -27.378  -7.091  0.00  0.00    -0.101 C 
ENDBRANCH   1   3
BRANCH   1   6
ATOM      6  C   UNL     1      62.353 -24.723  -7.005  0.00  0.00    -0.067 C 
BRANCH   6   7
ATOM      7  C   UNL     1      63.360 -23.560  -6.912  0.00  0.00    -0.046 C 
BRANCH   7   8
ATOM      8  C   UNL     1      63.177 -22.571  -8.064  0.00  0.00    -0.000 C 
ATOM      9  I   UNL     1      63.426 -23.558  -9.938  0.00  0.00    -0.085 I 
ENDBRANCH   7   8
ENDBRANCH   6   7
ENDBRANCH   1   6
TORSDOF 4
ENDMDL
MODEL 6
REMARK VINA RESULT:    -4.059     18.731     19.793
REMARK INTER + INTRA:          -2.911
REMARK INTER:                  -4.410
REMARK INTRA:                   1.499
REMARK UNBOUND:                 1.623
REMARK  Name = cpd220.pdb
REMARK  7 active torsions:
REMARK  status: ('A' for Active; 'I' for Inactive)
REMARK    1  A    between atoms: C_1  and  N_2
REMARK    2  A    between atoms: N_2  and  C_3
REMARK    3  A    between atoms: N_2  and  C_4
REMARK    4  A    between atoms: N_2  and  C_5
REMARK    5  A    between atoms: C_5  and  C_6
REMARK    6  A    between atoms: C_6  and  C_7
REMARK    7  A    between atoms: C_7  and  C_8
REMARK                            x       y       z     vdW  Elec       q    Type
REMARK                         _______ _______ _______ _____ _____    ______ ____
ROOT
ATOM      1  C   UNL     1      47.220 -22.340 -41.820  0.00  0.00    -0.089 C 
ENDROOT
BRANCH   1   3
ATOM      2  C   UNL     1      47.843 -23.282 -40.969  0.00  0.00    -0.101 C 
ATOM      3  N   UNL     1      48.079 -22.372 -41.307  0.00  0.00    +0.374 N 
ATOM      4  C   UNL     1      48.937 -22.403 -40.795  0.00  0.00    -0.101 C 
ATOM      5  C   UNL     1      48.315 -21.461 -41.646  0.00  0.00    -0.101 C 
ENDBRANCH   1   3
BRANCH   1   6
ATOM      6  C   UNL     1      45.531 -21.873 -41.552  0.00  0.00    -0.067 C 
BRANCH   6   7
ATOM      7  C   UNL     1      44.808 -21.658 -42.895  0.00  0.00    -0.046 C 
BRANCH   7   8
ATOM      8  C   UNL     1      44.457 -20.186 -43.112  0.00  0.00    -0.000 C 
ATOM      9  I   UNL     1      44.941 -19.045 -41.376  0.00  0.00    -0.085 I 
ENDBRANCH   7   8
ENDBRANCH   6   7
ENDBRANCH   1   6
TORSDOF 4
ENDMDL
MODEL 7
REMARK VINA RESULT:    -4.040     18.400     19.457
REMARK INTER + INTRA:          -2.889
REMARK INTER:                  -4.434
REMARK INTRA:                   1.545
REMARK UNBOUND:                 1.623
REMARK  Name = cpd220.pdb
REMARK  7 active torsions:
REMARK  status: ('A' for Active; 'I' for Inactive)
REMARK    1  A    between atoms: C_1  and  N_2
REMARK    2  A    between atoms: N_2  and  C_3
REMARK    3  A    between atoms: N_2  and  C_4
REMARK    4  A    between atoms: N_2  and  C_5
REMARK    5  A    between atoms: C_5  and  C_6
REMARK    6  A    between atoms: C_6  and  C_7
REMARK    7  A    between atoms: C_7  and  C_8
REMARK                            x       y       z     vdW  Elec       q    Type
REMARK                         _______ _______ _______ _____ _____    ______ ____
ROOT
ATOM      1  C   UNL     1      46.786 -22.072 -42.079  0.00  0.00    -0.089 C 
ENDROOT
BRANCH   1   3
ATOM      2  C   UNL     1      47.172 -22.266 -40.733  0.00  0.00    -0.101 C 
ATOM      3  N   UNL     1      47.346 -22.744 -41.594  0.00  0.00    +0.374 N 
ATOM      4  C   UNL     1      47.906 -23.415 -41.108  0.00  0.00    -0.101 C 
ATOM      5  C   UNL     1      47.520 -23.221 -42.455  0.00  0.00    -0.101 C 
ENDBRANCH   1   3
BRANCH   1   6
ATOM      6  C   UNL     1      45.101 -21.871 -42.594  0.00  0.00    -0.067 C 
BRANCH   6   7
ATOM      7  C   UNL     1      44.823 -20.406 -42.980  0.00  0.00    -0.046 C 
BRANCH   7   8
ATOM      8  C   UNL     1      44.302 -19.603 -41.787  0.00  0.00    -0.000 C 
ATOM      9  I   UNL     1      43.344 -20.894 -40.385  0.00  0.00    -0.085 I 
ENDBRANCH   7   8
ENDBRANCH   6   7
ENDBRANCH   1   6
TORSDOF 4
ENDMDL
MODEL 8
REMARK VINA RESULT:    -3.986      2.420      3.339
REMARK INTER + INTRA:          -2.830
REMARK INTER:                  -4.650
REMARK INTRA:                   1.821
REMARK UNBOUND:                 1.623
REMARK  Name = cpd220.pdb
REMARK  7 active torsions:
REMARK  status: ('A' for Active; 'I' for Inactive)
REMARK    1  A    between atoms: C_1  and  N_2
REMARK    2  A    between atoms: N_2  and  C_3
REMARK    3  A    between atoms: N_2  and  C_4
REMARK    4  A    between atoms: N_2  and  C_5
REMARK    5  A    between atoms: C_5  and  C_6
REMARK    6  A    between atoms: C_6  and  C_7
REMARK    7  A    between atoms: C_7  and  C_8
REMARK                            x       y       z     vdW  Elec       q    Type
REMARK                         _______ _______ _______ _____ _____    ______ ____
ROOT
ATOM      1  C   UNL     1      38.302 -36.677 -30.928  0.00  0.00    -0.089 C 
ENDROOT
BRANCH   1   3
ATOM      2  C   UNL     1      38.549 -37.224 -29.647  0.00  0.00    -0.101 C 
ATOM      3  N   UNL     1      37.797 -36.714 -30.065  0.00  0.00    +0.374 N 
ATOM      4  C   UNL     1      37.292 -36.751 -29.203  0.00  0.00    -0.101 C 
ATOM      5  C   UNL     1      37.045 -36.204 -30.484  0.00  0.00    -0.101 C 
ENDBRANCH   1   3
BRANCH   1   6
ATOM      6  C   UNL     1      38.767 -35.474 -32.144  0.00  0.00    -0.067 C 
BRANCH   6   7
ATOM      7  C   UNL     1      40.274 -35.166 -32.054  0.00  0.00    -0.046 C 
BRANCH   7   8
ATOM      8  C   UNL     1      41.093 -36.131 -32.912  0.00  0.00    -0.000 C 
ATOM      9  I   UNL     1      42.358 -37.329 -31.682  0.00  0.00    -0.085 I 
ENDBRANCH   7   8
ENDBRANCH   6   7
ENDBRANCH   1   6
TORSDOF 4
ENDMDL
MODEL 9
REMARK VINA RESULT:    -3.889     19.021     19.812
REMARK INTER + INTRA:          -2.720
REMARK INTER:                  -4.254
REMARK INTRA:                   1.534
REMARK UNBOUND:                 1.623
REMARK  Name = cpd220.pdb
REMARK  7 active torsions:
REMARK  status: ('A' for Active; 'I' for Inactive)
REMARK    1  A    between atoms: C_1  and  N_2
REMARK    2  A    between atoms: N_2  and  C_3
REMARK    3  A    between atoms: N_2  and  C_4
REMARK    4  A    between atoms: N_2  and  C_5
REMARK    5  A    between atoms: C_5  and  C_6
REMARK    6  A    between atoms: C_6  and  C_7
REMARK    7  A    between atoms: C_7  and  C_8
REMARK                            x       y       z     vdW  Elec       q    Type
REMARK                         _______ _______ _______ _____ _____    ______ ____
ROOT
ATOM      1  C   UNL     1      47.053 -21.914 -41.902  0.00  0.00    -0.089 C 
ENDROOT
BRANCH   1   3
ATOM      2  C   UNL     1      47.436 -21.825 -40.544  0.00  0.00    -0.101 C 
ATOM      3  N   UNL     1      47.685 -22.415 -41.311  0.00  0.00    +0.374 N 
ATOM      4  C   UNL     1      48.317 -22.917 -40.720  0.00  0.00    -0.101 C 
ATOM      5  C   UNL     1      47.935 -23.006 -42.078  0.00  0.00    -0.101 C 
ENDBRANCH   1   3
BRANCH   1   6
ATOM      6  C   UNL     1      45.390 -22.065 -42.499  0.00  0.00    -0.067 C 
BRANCH   6   7
ATOM      7  C   UNL     1      44.843 -20.691 -42.933  0.00  0.00    -0.046 C 
BRANCH   7   8
ATOM      8  C   UNL     1      44.009 -20.047 -41.825  0.00  0.00    -0.000 C 
ATOM      9  I   UNL     1      45.013 -18.336 -41.040  0.00  0.00    -0.085 I 
ENDBRANCH   7   8
ENDBRANCH   6   7
ENDBRANCH   1   6
TORSDOF 4
ENDMDL
MODEL 10
REMARK VINA RESULT:    -3.867     34.036     34.695
REMARK INTER + INTRA:          -2.696
REMARK INTER:                  -4.274
REMARK INTRA:                   1.578
REMARK UNBOUND:                 1.623
REMARK  Name = cpd220.pdb
REMARK  7 active torsions:
REMARK  status: ('A' for Active; 'I' for Inactive)
REMARK    1  A    between atoms: C_1  and  N_2
REMARK    2  A    between atoms: N_2  and  C_3
REMARK    3  A    between atoms: N_2  and  C_4
REMARK    4  A    between atoms: N_2  and  C_5
REMARK    5  A    between atoms: C_5  and  C_6
REMARK    6  A    between atoms: C_6  and  C_7
REMARK    7  A    between atoms: C_7  and  C_8
REMARK                            x       y       z     vdW  Elec       q    Type
REMARK                         _______ _______ _______ _____ _____    ______ ____
ROOT
ATOM      1  C   UNL     1      62.816 -25.807  -6.912  0.00  0.00    -0.089 C 
ENDROOT
BRANCH   1   3
ATOM      2  C   UNL     1      62.411 -27.162  -6.955  0.00  0.00    -0.101 C 
ATOM      3  N   UNL     1      63.039 -26.629  -6.388  0.00  0.00    +0.374 N 
ATOM      4  C   UNL     1      63.263 -27.451  -5.864  0.00  0.00    -0.101 C 
ATOM      5  C   UNL     1      63.668 -26.097  -5.820  0.00  0.00    -0.101 C 
ENDBRANCH   1   3
BRANCH   1   6
ATOM      6  C   UNL     1      63.493 -24.861  -8.250  0.00  0.00    -0.067 C 
BRANCH   6   7
ATOM      7  C   UNL     1      62.484 -23.799  -8.728  0.00  0.00    -0.046 C 
BRANCH   7   8
ATOM      8  C   UNL     1      63.182 -22.665  -9.481  0.00  0.00    -0.000 C 
ATOM      9  I   UNL     1      63.144 -20.873  -8.326  0.00  0.00    -0.085 I 
ENDBRANCH   7   8
ENDBRANCH   6   7
ENDBRANCH   1   6
TORSDOF 4
ENDMDL
MODEL 11
REMARK VINA RESULT:    -3.813     18.991     19.781
REMARK INTER + INTRA:          -2.636
REMARK INTER:                  -4.151
REMARK INTRA:                   1.515
REMARK UNBOUND:                 1.623
REMARK  Name = cpd220.pdb
REMARK  7 active torsions:
REMARK  status: ('A' for Active; 'I' for Inactive)
REMARK    1  A    between atoms: C_1  and  N_2
REMARK    2  A    between atoms: N_2  and  C_3
REMARK    3  A    between atoms: N_2  and  C_4
REMARK    4  A    between atoms: N_2  and  C_5
REMARK    5  A    between atoms: C_5  and  C_6
REMARK    6  A    between atoms: C_6  and  C_7
REMARK    7  A    between atoms: C_7  and  C_8
REMARK                            x       y       z     vdW  Elec       q    Type
REMARK                         _______ _______ _______ _____ _____    ______ ____
ROOT
ATOM      1  C   UNL     1      47.320 -22.147 -41.057  0.00  0.00    -0.089 C 
ENDROOT
BRANCH   1   3
ATOM      2  C   UNL     1      48.506 -22.887 -40.844  0.00  0.00    -0.101 C 
ATOM      3  N   UNL     1      47.772 -22.908 -41.522  0.00  0.00    +0.374 N 
ATOM      4  C   UNL     1      48.223 -23.670 -41.987  0.00  0.00    -0.101 C 
ATOM      5  C   UNL     1      47.037 -22.929 -42.201  0.00  0.00    -0.101 C 
ENDBRANCH   1   3
BRANCH   1   6
ATOM      6  C   UNL     1      47.277 -20.376 -41.143  0.00  0.00    -0.067 C 
BRANCH   6   7
ATOM      7  C   UNL     1      46.171 -19.815 -40.229  0.00  0.00    -0.046 C 
BRANCH   7   8
ATOM      8  C   UNL     1      45.204 -18.922 -41.007  0.00  0.00    -0.000 C 
ATOM      9  I   UNL     1      44.345 -20.000 -42.635  0.00  0.00    -0.085 I 
ENDBRANCH   7   8
ENDBRANCH   6   7
ENDBRANCH   1   6
TORSDOF 4
ENDMDL
MODEL 12
REMARK VINA RESULT:    -3.776     18.342     19.031
REMARK INTER + INTRA:          -2.594
REMARK INTER:                  -4.121
REMARK INTRA:                   1.527
REMARK UNBOUND:                 1.623
REMARK  Name = cpd220.pdb
REMARK  7 active torsions:
REMARK  status: ('A' for Active; 'I' for Inactive)
REMARK    1  A    between atoms: C_1  and  N_2
REMARK    2  A    between atoms: N_2  and  C_3
REMARK    3  A    between atoms: N_2  and  C_4
REMARK    4  A    between atoms: N_2  and  C_5
REMARK    5  A    between atoms: C_5  and  C_6
REMARK    6  A    between atoms: C_6  and  C_7
REMARK    7  A    between atoms: C_7  and  C_8
REMARK                            x       y       z     vdW  Elec       q    Type
REMARK                         _______ _______ _______ _____ _____    ______ ____
ROOT
ATOM      1  C   UNL     1      47.009 -22.352 -41.637  0.00  0.00    -0.089 C 
ENDROOT
BRANCH   1   3
ATOM      2  C   UNL     1      46.954 -23.393 -42.594  0.00  0.00    -0.101 C 
ATOM      3  N   UNL     1      47.622 -23.093 -41.912  0.00  0.00    +0.374 N 
ATOM      4  C   UNL     1      48.235 -23.834 -42.186  0.00  0.00    -0.101 C 
ATOM      5  C   UNL     1      48.289 -22.793 -41.230  0.00  0.00    -0.101 C 
ENDBRANCH   1   3
BRANCH   1   6
ATOM      6  C   UNL     1      45.753 -22.049 -40.423  0.00  0.00    -0.067 C 
BRANCH   6   7
ATOM      7  C   UNL     1      44.914 -20.814 -40.805  0.00  0.00    -0.046 C 
BRANCH   7   8
ATOM      8  C   UNL     1      45.203 -19.634 -39.877  0.00  0.00    -0.000 C 
ATOM      9  I   UNL     1      46.251 -20.294 -38.140  0.00  0.00    -0.085 I 
ENDBRANCH   7   8
ENDBRANCH   6   7
ENDBRANCH   1   6
TORSDOF 4
ENDMDL
MODEL 13
REMARK VINA RESULT:    -3.755      3.444      4.171
REMARK INTER + INTRA:          -2.571
REMARK INTER:                  -4.191
REMARK INTRA:                   1.620
REMARK UNBOUND:                 1.623
REMARK  Name = cpd220.pdb
REMARK  7 active torsions:
REMARK  status: ('A' for Active; 'I' for Inactive)
REMARK    1  A    between atoms: C_1  and  N_2
REMARK    2  A    between atoms: N_2  and  C_3
REMARK    3  A    between atoms: N_2  and  C_4
REMARK    4  A    between atoms: N_2  and  C_5
REMARK    5  A    between atoms: C_5  and  C_6
REMARK    6  A    between atoms: C_6  and  C_7
REMARK    7  A    between atoms: C_7  and  C_8
REMARK                            x       y       z     vdW  Elec       q    Type
REMARK                         _______ _______ _______ _____ _____    ______ ____
ROOT
ATOM      1  C   UNL     1      39.683 -36.923 -30.659  0.00  0.00    -0.089 C 
ENDROOT
BRANCH   1   3
ATOM      2  C   UNL     1      39.488 -36.018 -31.728  0.00  0.00    -0.101 C 
ATOM      3  N   UNL     1      40.245 -36.230 -31.110  0.00  0.00    +0.374 N 
ATOM      4  C   UNL     1      40.807 -35.537 -31.562  0.00  0.00    -0.101 C 
ATOM      5  C   UNL     1      41.003 -36.441 -30.493  0.00  0.00    -0.101 C 
ENDBRANCH   1   3
BRANCH   1   6
ATOM      6  C   UNL     1      38.193 -37.007 -29.702  0.00  0.00    -0.067 C 
BRANCH   6   7
ATOM      7  C   UNL     1      38.320 -38.069 -28.592  0.00  0.00    -0.046 C 
BRANCH   7   8
ATOM      8  C   UNL     1      37.280 -39.178 -28.759  0.00  0.00    -0.000 C 
ATOM      9  I   UNL     1      35.951 -38.714 -30.361  0.00  0.00    -0.085 I 
ENDBRANCH   7   8
ENDBRANCH   6   7
ENDBRANCH   1   6
TORSDOF 4
ENDMDL
MODEL 14
REMARK VINA RESULT:    -3.751     20.843     21.612
REMARK INTER + INTRA:          -2.567
REMARK INTER:                  -4.065
REMARK INTRA:                   1.499
REMARK UNBOUND:                 1.623
REMARK  Name = cpd220.pdb
REMARK  7 active torsions:
REMARK  status: ('A' for Active; 'I' for Inactive)
REMARK    1  A    between atoms: C_1  and  N_2
REMARK    2  A    between atoms: N_2  and  C_3
REMARK    3  A    between atoms: N_2  and  C_4
REMARK    4  A    between atoms: N_2  and  C_5
REMARK    5  A    between atoms: C_5  and  C_6
REMARK    6  A    between atoms: C_6  and  C_7
REMARK    7  A    between atoms: C_7  and  C_8
REMARK                            x       y       z     vdW  Elec       q    Type
REMARK                         _______ _______ _______ _____ _____    ______ ____
ROOT
ATOM      1  C   UNL     1      55.189 -35.830 -46.637  0.00  0.00    -0.089 C 
ENDROOT
BRANCH   1   3
ATOM      2  C   UNL     1      53.793 -35.829 -46.865  0.00  0.00    -0.101 C 
ATOM      3  N   UNL     1      54.406 -35.358 -46.231  0.00  0.00    +0.374 N 
ATOM      4  C   UNL     1      53.623 -34.885 -45.826  0.00  0.00    -0.101 C 
ATOM      5  C   UNL     1      55.019 -34.886 -45.598  0.00  0.00    -0.101 C 
ENDBRANCH   1   3
BRANCH   1   6
ATOM      6  C   UNL     1      56.388 -35.558 -47.915  0.00  0.00    -0.067 C 
BRANCH   6   7
ATOM      7  C   UNL     1      57.038 -36.888 -48.340  0.00  0.00    -0.046 C 
BRANCH   7   8
ATOM      8  C   UNL     1      56.507 -37.362 -49.694  0.00  0.00    -0.000 C 
ATOM      9  I   UNL     1      55.006 -38.852 -49.421  0.00  0.00    -0.085 I 
ENDBRANCH   7   8
ENDBRANCH   6   7
ENDBRANCH   1   6
TORSDOF 4
ENDMDL
MODEL 15
REMARK VINA RESULT:    -3.745      3.750      4.842
REMARK INTER + INTRA:          -2.560
REMARK INTER:                  -4.245
REMARK INTRA:                   1.685
REMARK UNBOUND:                 1.623
REMARK  Name = cpd220.pdb
REMARK  7 active torsions:
REMARK  status: ('A' for Active; 'I' for Inactive)
REMARK    1  A    between atoms: C_1  and  N_2
REMARK    2  A    between atoms: N_2  and  C_3
REMARK    3  A    between atoms: N_2  and  C_4
REMARK    4  A    between atoms: N_2  and  C_5
REMARK    5  A    between atoms: C_5  and  C_6
REMARK    6  A    between atoms: C_6  and  C_7
REMARK    7  A    between atoms: C_7  and  C_8
REMARK                            x       y       z     vdW  Elec       q    Type
REMARK                         _______ _______ _______ _____ _____    ______ ____
ROOT
ATOM      1  C   UNL     1      40.738 -36.304 -30.858  0.00  0.00    -0.089 C 
ENDROOT
BRANCH   1   3
ATOM      2  C   UNL     1      41.712 -37.328 -30.818  0.00  0.00    -0.101 C 
ATOM      3  N   UNL     1      41.570 -36.509 -31.373  0.00  0.00    +0.374 N 
ATOM      4  C   UNL     1      42.403 -36.713 -31.888  0.00  0.00    -0.101 C 
ATOM      5  C   UNL     1      41.428 -35.689 -31.928  0.00  0.00    -0.101 C 
ENDBRANCH   1   3
BRANCH   1   6
ATOM      6  C   UNL     1      39.113 -36.980 -30.639  0.00  0.00    -0.067 C 
BRANCH   6   7
ATOM      7  C   UNL     1      38.038 -35.920 -30.947  0.00  0.00    -0.046 C 
BRANCH   7   8
ATOM      8  C   UNL     1      36.820 -36.079 -30.035  0.00  0.00    -0.000 C 
ATOM      9  I   UNL     1      35.319 -34.652 -30.547  0.00  0.00    -0.085 I 
ENDBRANCH   7   8
ENDBRANCH   6   7
ENDBRANCH   1   6
TORSDOF 4
ENDMDL
MODEL 16
REMARK VINA RESULT:    -3.657     21.210     21.992
REMARK INTER + INTRA:          -2.462
REMARK INTER:                  -4.021
REMARK INTRA:                   1.559
REMARK UNBOUND:                 1.623
REMARK  Name = cpd220.pdb
REMARK  7 active torsions:
REMARK  status: ('A' for Active; 'I' for Inactive)
REMARK    1  A    between atoms: C_1  and  N_2
REMARK    2  A    between atoms: N_2  and  C_3
REMARK    3  A    between atoms: N_2  and  C_4
REMARK    4  A    between atoms: N_2  and  C_5
REMARK    5  A    between atoms: C_5  and  C_6
REMARK    6  A    between atoms: C_6  and  C_7
REMARK    7  A    between atoms: C_7  and  C_8
REMARK                            x       y       z     vdW  Elec       q    Type
REMARK                         _______ _______ _______ _____ _____    ______ ____
ROOT
ATOM      1  C   UNL     1      55.221 -35.778 -46.704  0.00  0.00    -0.089 C 
ENDROOT
BRANCH   1   3
ATOM      2  C   UNL     1      55.085 -34.892 -45.610  0.00  0.00    -0.101 C 
ATOM      3  N   UNL     1      54.451 -35.337 -46.242  0.00  0.00    +0.374 N 
ATOM      4  C   UNL     1      53.681 -34.897 -45.780  0.00  0.00    -0.101 C 
ATOM      5  C   UNL     1      53.817 -35.783 -46.874  0.00  0.00    -0.101 C 
ENDBRANCH   1   3
BRANCH   1   6
ATOM      6  C   UNL     1      56.462 -35.367 -47.901  0.00  0.00    -0.067 C 
BRANCH   6   7
ATOM      7  C   UNL     1      56.745 -36.567 -48.824  0.00  0.00    -0.046 C 
BRANCH   7   8
ATOM      8  C   UNL     1      56.518 -36.207 -50.294  0.00  0.00    -0.000 C 
ATOM      9  I   UNL     1      55.945 -34.161 -50.476  0.00  0.00    -0.085 I 
ENDBRANCH   7   8
ENDBRANCH   6   7
ENDBRANCH   1   6
TORSDOF 4
ENDMDL
MODEL 17
REMARK VINA RESULT:    -3.584     34.958     35.784
REMARK INTER + INTRA:          -2.380
REMARK INTER:                  -3.889
REMARK INTRA:                   1.509
REMARK UNBOUND:                 1.623
REMARK  Name = cpd220.pdb
REMARK  7 active torsions:
REMARK  status: ('A' for Active; 'I' for Inactive)
REMARK    1  A    between atoms: C_1  and  N_2
REMARK    2  A    between atoms: N_2  and  C_3
REMARK    3  A    between atoms: N_2  and  C_4
REMARK    4  A    between atoms: N_2  and  C_5
REMARK    5  A    between atoms: C_5  and  C_6
REMARK    6  A    between atoms: C_6  and  C_7
REMARK    7  A    between atoms: C_7  and  C_8
REMARK                            x       y       z     vdW  Elec       q    Type
REMARK                         _______ _______ _______ _____ _____    ______ ____
ROOT
ATOM      1  C   UNL     1      63.138 -25.266  -6.874  0.00  0.00    -0.089 C 
ENDROOT
BRANCH   1   3
ATOM      2  C   UNL     1      62.043 -26.094  -7.215  0.00  0.00    -0.101 C 
ATOM      3  N   UNL     1      62.928 -26.238  -6.772  0.00  0.00    +0.374 N 
ATOM      4  C   UNL     1      62.718 -27.211  -6.671  0.00  0.00    -0.101 C 
ATOM      5  C   UNL     1      63.813 -26.383  -6.330  0.00  0.00    -0.101 C 
ENDBRANCH   1   3
BRANCH   1   6
ATOM      6  C   UNL     1      62.979 -23.769  -5.937  0.00  0.00    -0.067 C 
BRANCH   6   7
ATOM      7  C   UNL     1      63.868 -22.659  -6.532  0.00  0.00    -0.046 C 
BRANCH   7   8
ATOM      8  C   UNL     1      64.939 -22.210  -5.538  0.00  0.00    -0.000 C 
ATOM      9  I   UNL     1      64.903 -23.444  -3.799  0.00  0.00    -0.085 I 
ENDBRANCH   7   8
ENDBRANCH   6   7
ENDBRANCH   1   6
TORSDOF 4
ENDMDL
MODEL 18
REMARK VINA RESULT:    -3.551      5.025      6.348
REMARK INTER + INTRA:          -2.343
REMARK INTER:                  -3.928
REMARK INTRA:                   1.585
REMARK UNBOUND:                 1.623
REMARK  Name = cpd220.pdb
REMARK  7 active torsions:
REMARK  status: ('A' for Active; 'I' for Inactive)
REMARK    1  A    between atoms: C_1  and  N_2
REMARK    2  A    between atoms: N_2  and  C_3
REMARK    3  A    between atoms: N_2  and  C_4
REMARK    4  A    between atoms: N_2  and  C_5
REMARK    5  A    between atoms: C_5  and  C_6
REMARK    6  A    between atoms: C_6  and  C_7
REMARK    7  A    between atoms: C_7  and  C_8
REMARK                            x       y       z     vdW  Elec       q    Type
REMARK                         _______ _______ _______ _____ _____    ______ ____
ROOT
ATOM      1  C   UNL     1      34.775 -33.689 -30.631  0.00  0.00    -0.089 C 
ENDROOT
BRANCH   1   3
ATOM      2  C   UNL     1      34.517 -32.764 -29.593  0.00  0.00    -0.101 C 
ATOM      3  N   UNL     1      34.295 -32.814 -30.567  0.00  0.00    +0.374 N 
ATOM      4  C   UNL     1      33.815 -31.939 -30.502  0.00  0.00    -0.101 C 
ATOM      5  C   UNL     1      34.073 -32.864 -31.540  0.00  0.00    -0.101 C 
ENDBRANCH   1   3
BRANCH   1   6
ATOM      6  C   UNL     1      36.403 -34.287 -31.001  0.00  0.00    -0.067 C 
BRANCH   6   7
ATOM      7  C   UNL     1      36.633 -35.669 -30.360  0.00  0.00    -0.046 C 
BRANCH   7   8
ATOM      8  C   UNL     1      37.659 -36.486 -31.148  0.00  0.00    -0.000 C 
ATOM      9  I   UNL     1      39.047 -35.193 -32.122  0.00  0.00    -0.085 I 
ENDBRANCH   7   8
ENDBRANCH   6   7
ENDBRANCH   1   6
TORSDOF 4
ENDMDL
MODEL 19
REMARK VINA RESULT:    -3.544     30.825     31.602
REMARK INTER + INTRA:          -2.336
REMARK INTER:                  -3.863
REMARK INTRA:                   1.527
REMARK UNBOUND:                 1.623
REMARK  Name = cpd220.pdb
REMARK  7 active torsions:
REMARK  status: ('A' for Active; 'I' for Inactive)
REMARK    1  A    between atoms: C_1  and  N_2
REMARK    2  A    between atoms: N_2  and  C_3
REMARK    3  A    between atoms: N_2  and  C_4
REMARK    4  A    between atoms: N_2  and  C_5
REMARK    5  A    between atoms: C_5  and  C_6
REMARK    6  A    between atoms: C_6  and  C_7
REMARK    7  A    between atoms: C_7  and  C_8
REMARK                            x       y       z     vdW  Elec       q    Type
REMARK                         _______ _______ _______ _____ _____    ______ ____
ROOT
ATOM      1  C   UNL     1      63.337 -14.766 -30.600  0.00  0.00    -0.089 C 
ENDROOT
BRANCH   1   3
ATOM      2  C   UNL     1      64.335 -15.729 -30.876  0.00  0.00    -0.101 C 
ATOM      3  N   UNL     1      64.286 -14.902 -30.316  0.00  0.00    +0.374 N 
ATOM      4  C   UNL     1      65.235 -15.038 -30.032  0.00  0.00    -0.101 C 
ATOM      5  C   UNL     1      64.236 -14.075 -29.755  0.00  0.00    -0.101 C 
ENDBRANCH   1   3
BRANCH   1   6
ATOM      6  C   UNL     1      62.436 -13.866 -31.834  0.00  0.00    -0.067 C 
BRANCH   6   7
ATOM      7  C   UNL     1      60.934 -14.201 -31.761  0.00  0.00    -0.046 C 
BRANCH   7   8
ATOM      8  C   UNL     1      60.086 -12.935 -31.621  0.00  0.00    -0.000 C 
ATOM      9  I   UNL     1      59.984 -12.333 -29.578  0.00  0.00    -0.085 I 
ENDBRANCH   7   8
ENDBRANCH   6   7
ENDBRANCH   1   6
TORSDOF 4
ENDMDL
MODEL 20
REMARK VINA RESULT:    -3.522     18.546     19.011
REMARK INTER + INTRA:          -2.310
REMARK INTER:                  -3.880
REMARK INTRA:                   1.570
REMARK UNBOUND:                 1.623
REMARK  Name = cpd220.pdb
REMARK  7 active torsions:
REMARK  status: ('A' for Active; 'I' for Inactive)
REMARK    1  A    between atoms: C_1  and  N_2
REMARK    2  A    between atoms: N_2  and  C_3
REMARK    3  A    between atoms: N_2  and  C_4
REMARK    4  A    between atoms: N_2  and  C_5
REMARK    5  A    between atoms: C_5  and  C_6
REMARK    6  A    between atoms: C_6  and  C_7
REMARK    7  A    between atoms: C_7  and  C_8
REMARK                            x       y       z     vdW  Elec       q    Type
REMARK                         _______ _______ _______ _____ _____    ______ ____
ROOT
ATOM      1  C   UNL     1      47.349 -21.609 -40.441  0.00  0.00    -0.089 C 
ENDROOT
BRANCH   1   3
ATOM      2  C   UNL     1      48.168 -22.755 -40.566  0.00  0.00    -0.101 C 
ATOM      3  N   UNL     1      47.456 -22.330 -41.126  0.00  0.00    +0.374 N 
ATOM      4  C   UNL     1      47.563 -23.051 -41.810  0.00  0.00    -0.101 C 
ATOM      5  C   UNL     1      46.744 -21.905 -41.685  0.00  0.00    -0.101 C 
ENDBRANCH   1   3
BRANCH   1   6
ATOM      6  C   UNL     1      46.451 -21.327 -38.939  0.00  0.00    -0.067 C 
BRANCH   6   7
ATOM      7  C   UNL     1      46.921 -20.027 -38.260  0.00  0.00    -0.046 C 
BRANCH   7   8
ATOM      8  C   UNL     1      46.504 -19.981 -36.790  0.00  0.00    -0.000 C 
ATOM      9  I   UNL     1      47.782 -18.670 -35.695  0.00  0.00    -0.085 I 
ENDBRANCH   7   8
ENDBRANCH   6   7
ENDBRANCH   1   6
TORSDOF 4
ENDMDL
