REMARK  Name = cpd220.pdb
REMARK  7 active torsions:
REMARK  status: ('A' for Active; 'I' for Inactive)
REMARK    1  A    between atoms: C_1  and  N_2
REMARK    2  A    between atoms: N_2  and  C_3
REMARK    3  A    between atoms: N_2  and  C_4
REMARK    4  A    between atoms: N_2  and  C_5
REMARK    5  A    between atoms: C_5  and  C_6
REMARK    6  A    between atoms: C_6  and  C_7
REMARK    7  A    between atoms: C_7  and  C_8
REMARK                            x       y       z     vdW  Elec       q    Type
REMARK                         _______ _______ _______ _____ _____    ______ ____
ROOT
ATOM      1  C   UNL     1       0.000   0.000   0.000  0.00  0.00    -0.089 C 
ENDROOT
BRANCH   1   3
ATOM      2  C   UNL     1       1.000  -1.000   0.000  0.00  0.00    -0.101 C 
ATOM      3  N   UNL     1       1.000   0.000   0.000  0.00  0.00    +0.374 N 
ATOM      4  C   UNL     1       2.000   0.000   0.000  0.00  0.00    -0.101 C 
ATOM      5  C   UNL     1       1.000   1.000   0.000  0.00  0.00    -0.101 C 
ENDBRANCH   1   3
BRANCH   1   6
ATOM      6  C   UNL     1      -1.328  -1.175  -0.004  0.00  0.00    -0.067 C 
BRANCH   6   7
ATOM      7  C   UNL     1      -2.690  -0.455   0.004  0.00  0.00    -0.046 C 
BRANCH   7   8
ATOM      8  C   UNL     1      -3.849  -1.453  -0.001  0.00  0.00    -0.000 C 
ATOM      9  I   UNL     1      -5.716  -0.422   0.013  0.00  0.00    -0.085 I 
ENDBRANCH   7   8
ENDBRANCH   6   7
ENDBRANCH   1   6
TORSDOF 4
