@<TRIPOS>MOLECULE
*****
 35 38 0 0 0
SMALL
GASTEIGER

@<TRIPOS>ATOM
      1 C          -1.7321   -2.0000    0.0000 C.3     1  UNL1        0.2526
      2 O          -0.8660   -1.5000    0.0000 O.3     1  UNL1       -0.4683
      3 C          -0.8660   -0.5000    0.0000 C.ar    1  UNL1        0.1756
      4 C          -1.7321   -0.0000    0.0000 C.ar    1  UNL1        0.0448
      5 C          -1.7321    1.0000    0.0000 C.ar    1  UNL1        0.0613
      6 C          -2.5981    1.5000    0.0000 C.2     1  UNL1        0.2650
      7 O          -2.5981    2.5000    0.0000 O.2     1  UNL1       -0.2684
      8 N          -3.4641    1.0000    0.0000 N.am    1  UNL1       -0.2011
      9 C          -4.3301    1.5000    0.0000 C.3     1  UNL1        0.1252
     10 C          -4.3301    2.5000    0.0000 C.3     1  UNL1        0.1119
     11 C          -5.1962    3.0000    0.0000 C.2     1  UNL1        0.2625
     12 O          -5.1962    4.0000    0.0000 O.2     1  UNL1       -0.2716
     13 N          -6.0622    2.5000    0.0000 N.am    1  UNL1       -0.0905
     14 N          -6.9282    3.0000    0.0000 N.pl3   1  UNL1       -0.1256
     15 C          -7.7942    2.5000    0.0000 C.ar    1  UNL1        0.0877
     16 C          -8.6603    3.0000    0.0000 C.ar    1  UNL1        0.0081
     17 C          -9.5263    2.5000    0.0000 C.ar    1  UNL1        0.0563
     18 N          -9.5263    1.5000    0.0000 N.ar    1  UNL1       -0.2499
     19 C          -8.6603    1.0000    0.0000 C.ar    1  UNL1        0.0822
     20 C          -8.6603   -0.0000    0.0000 C.ar    1  UNL1        0.0191
     21 C          -7.7942   -0.5000    0.0000 C.ar    1  UNL1        0.0015
     22 C          -6.9282   -0.0000    0.0000 C.ar    1  UNL1        0.0001
     23 C          -6.9282    1.0000    0.0000 C.ar    1  UNL1        0.0028
     24 C          -7.7942    1.5000    0.0000 C.ar    1  UNL1        0.0341
     25 C         -10.3923    3.0000    0.0000 C.3     1  UNL1        0.0455
     26 C         -10.3923    4.0000    0.0000 C.3     1  UNL1        0.0066
     27 C          -9.5263    4.5000    0.0000 C.3     1  UNL1        0.0052
     28 C          -8.6603    4.0000    0.0000 C.3     1  UNL1        0.0289
     29 C          -0.8660    1.5000    0.0000 C.ar    1  UNL1        0.0448
     30 C          -0.0000    1.0000    0.0000 C.ar    1  UNL1        0.1756
     31 O           0.8660    1.5000    0.0000 O.3     1  UNL1       -0.4683
     32 C           0.8660    2.5000    0.0000 C.3     1  UNL1        0.2526
     33 C           0.0000    0.0000    0.0000 C.ar    1  UNL1        0.2061
     34 O           0.8660   -0.5000    0.0000 O.3     1  UNL1       -0.4654
     35 C           1.7321    0.0000    0.0000 C.3     1  UNL1        0.2528
@<TRIPOS>BOND
     1     1     2    1
     2     2     3    1
     3     3     4   ar
     4     4     5   ar
     5     5     6    1
     6     6     7    2
     7     6     8   am
     8     8     9    1
     9     9    10    1
    10    10    11    1
    11    11    12    2
    12    11    13   am
    13    13    14    1
    14    14    15    1
    15    15    16   ar
    16    16    17   ar
    17    17    18   ar
    18    18    19   ar
    19    19    20   ar
    20    20    21   ar
    21    21    22   ar
    22    22    23   ar
    23    23    24   ar
    24    15    24   ar
    25    19    24   ar
    26    17    25    1
    27    25    26    1
    28    26    27    1
    29    27    28    1
    30    16    28    1
    31     5    29   ar
    32    29    30   ar
    33    30    31    1
    34    31    32    1
    35    30    33   ar
    36     3    33   ar
    37    33    34    1
    38    34    35    1
