REMARK  Name = cpd88.pdb
REMARK  12 active torsions:
REMARK  status: ('A' for Active; 'I' for Inactive)
REMARK    1  A    between atoms: C_1  and  O_2
REMARK    2  A    between atoms: O_2  and  C_3
REMARK    3  A    between atoms: C_5  and  C_6
REMARK    4  A    between atoms: N_8  and  C_9
REMARK    5  A    between atoms: C_9  and  C_10
REMARK    6  A    between atoms: C_10  and  C_11
REMARK    7  A    between atoms: N_13  and  N_14
REMARK    8  A    between atoms: N_14  and  C_15
REMARK    9  A    between atoms: C_30  and  O_31
REMARK   10  A    between atoms: O_31  and  C_32
REMARK   11  A    between atoms: C_33  and  O_34
REMARK   12  A    between atoms: O_34  and  C_35
REMARK                            x       y       z     vdW  Elec       q    Type
REMARK                         _______ _______ _______ _____ _____    ______ ____
ROOT
ATOM      1  C   UNL A   1      -5.625   3.967   0.196  0.00  0.00    +0.231 C 
ATOM      2  O   UNL A   1      -5.634   4.960   0.919  0.00  0.00    -0.274 OA
ATOM      3  N   UNL A   1      -6.768   3.241  -0.105  0.00  0.00    -0.236 N 
ATOM      4  H   UNL A   1      -6.887   2.767  -0.960  0.00  0.00    +0.000 HD
ENDROOT
BRANCH   3   5
ATOM      5  N   UNL A   1      -7.751   3.236   0.915  0.00  0.00    -0.264 N 
ATOM      6  H   UNL A   1      -7.621   3.624   1.811  0.00  0.00    +0.000 HD
BRANCH   5   7
ATOM      7  C   UNL A   1      -8.951   2.600   0.484  0.00  0.00    +0.058 A 
ATOM      8  C   UNL A   1     -10.078   3.367   0.129  0.00  0.00    -0.003 A 
ATOM      9  C   UNL A   1     -11.209   2.679  -0.314  0.00  0.00    +0.047 A 
ATOM     10  N   UNL A   1     -11.241   1.335  -0.487  0.00  0.00    -0.251 NA
ATOM     11  C   UNL A   1     -10.162   0.609  -0.167  0.00  0.00    +0.073 A 
ATOM     12  C   UNL A   1     -10.218  -0.768  -0.344  0.00  0.00    -0.036 A 
ATOM     13  C   UNL A   1      -9.148  -1.603  -0.010  0.00  0.00    -0.060 A 
ATOM     14  C   UNL A   1      -7.996  -1.055   0.531  0.00  0.00    -0.061 A 
ATOM     15  C   UNL A   1      -7.919   0.324   0.716  0.00  0.00    -0.051 A 
ATOM     16  C   UNL A   1      -8.986   1.183   0.346  0.00  0.00    +0.023 A 
ATOM     17  C   UNL A   1     -12.481   3.398  -0.683  0.00  0.00    -0.010 C 
ATOM     18  C   UNL A   1     -12.571   4.797  -0.085  0.00  0.00    -0.047 C 
ATOM     19  C   UNL A   1     -11.288   5.559  -0.375  0.00  0.00    -0.049 C 
ATOM     20  C   UNL A   1     -10.093   4.870   0.283  0.00  0.00    -0.024 C 
ENDBRANCH   5   7
ENDBRANCH   3   5
BRANCH   1  21
ATOM     21  C   UNL A   1      -4.361   3.384  -0.393  0.00  0.00    +0.041 C 
BRANCH  21  22
ATOM     22  C   UNL A   1      -4.072   2.057   0.299  0.00  0.00    +0.020 C 
BRANCH  22  25
ATOM     23  C   UNL A   1      -1.635   1.824   0.530  0.00  0.00    +0.244 C 
ATOM     24  O   UNL A   1      -1.533   2.754   1.318  0.00  0.00    -0.270 OA
ATOM     25  N   UNL A   1      -2.813   1.459  -0.085  0.00  0.00    -0.311 N 
ATOM     26  H   UNL A   1      -2.797   0.780  -0.798  0.00  0.00    +0.000 HD
BRANCH  23  29
ATOM     27  C   UNL A   1       0.590  -1.119  -0.295  0.00  0.00    +0.166 A 
ATOM     28  C   UNL A   1      -0.545  -0.374   0.022  0.00  0.00    -0.004 A 
ATOM     29  C   UNL A   1      -0.445   1.014   0.174  0.00  0.00    +0.044 A 
ATOM     30  C   UNL A   1       0.784   1.667   0.035  0.00  0.00    -0.004 A 
ATOM     31  C   UNL A   1       1.927   0.940  -0.300  0.00  0.00    +0.166 A 
ATOM     32  C   UNL A   1       1.824  -0.457  -0.453  0.00  0.00    +0.204 A 
BRANCH  27  34
ATOM     33  C   UNL A   1      -0.583  -3.199  -0.158  0.00  0.00    +0.079 C 
ATOM     34  O   UNL A   1       0.605  -2.481  -0.460  0.00  0.00    -0.491 OA
ENDBRANCH  27  34
BRANCH  31  35
ATOM     35  O   UNL A   1       3.161   1.498  -0.509  0.00  0.00    -0.491 OA
ATOM     36  C   UNL A   1       3.285   2.906  -0.347  0.00  0.00    +0.079 C 
ENDBRANCH  31  35
BRANCH  32  37
ATOM     37  O   UNL A   1       2.902  -1.229  -0.827  0.00  0.00    -0.488 OA
ATOM     38  C   UNL A   1       3.944  -1.210   0.147  0.00  0.00    +0.079 C 
ENDBRANCH  32  37
ENDBRANCH  23  29
ENDBRANCH  22  25
ENDBRANCH  21  22
ENDBRANCH   1  21
TORSDOF 9
