REMARK  Name = cpd247.pdb
REMARK  5 active torsions:
REMARK  status: ('A' for Active; 'I' for Inactive)
REMARK    1  A    between atoms: C_1  and  N_2
REMARK    2  A    between atoms: N_2  and  C_3
REMARK    3  A    between atoms: C_7  and  O_8
REMARK    4  A    between atoms: C_7  and  C_9
REMARK    5  A    between atoms: C_12  and  N_13
REMARK                            x       y       z     vdW  Elec       q    Type
REMARK                         _______ _______ _______ _____ _____    ______ ____
ROOT
ATOM      1  C   UNL     1       0.593   0.137   1.272  0.00  0.00    -0.100 C 
ATOM      2  N   UNL     1       1.279  -0.431   0.038  0.00  0.00    +0.381 N 
ATOM      3  C   UNL     1       2.610   0.303  -0.140  0.00  0.00    -0.100 C 
ATOM      4  C   UNL     1       1.559  -1.937   0.180  0.00  0.00    -0.064 C 
ATOM      5  C   UNL     1       0.262  -2.747   0.096  0.00  0.00    +0.037 C 
ATOM      6  O   UNL     1      -0.448  -2.531  -1.126  0.00  0.00    -0.348 OA
ATOM      7  C   UNL     1      -0.827  -1.171  -1.380  0.00  0.00    +0.179 C 
ATOM      8  C   UNL     1       0.429  -0.227  -1.245  0.00  0.00    -0.029 C 
ENDROOT
BRANCH   7   9
ATOM      9  C   UNL     1      -2.084  -0.758  -0.611  0.00  0.00    +0.009 A 
ATOM     10  C   UNL     1      -2.923  -1.722  -0.017  0.00  0.00    -0.051 A 
ATOM     11  C   UNL     1      -4.090  -1.356   0.663  0.00  0.00    -0.031 A 
ATOM     12  C   UNL     1      -4.453  -0.009   0.736  0.00  0.00    +0.126 A 
ATOM     13  C   UNL     1      -3.662   0.966   0.119  0.00  0.00    -0.031 A 
ATOM     14  C   UNL     1      -2.496   0.589  -0.559  0.00  0.00    -0.051 A 
BRANCH  12  15
ATOM     15  N   UNL     1      -5.672   0.385   1.455  0.00  0.00    +0.056 N 
ATOM     16  O   UNL     1      -5.928   1.595   1.523  0.00  0.00    -0.126 OA
ATOM     17  O   UNL     1      -6.353  -0.515   1.963  0.00  0.00    -0.126 OA
ENDBRANCH  12  15
ENDBRANCH   7   9
BRANCH   7  18
ATOM     18  O   UNL     1      -1.185  -1.131  -2.762  0.00  0.00    -0.362 OA
ATOM     19  H   UNL     1      -1.958  -1.697  -2.912  0.00  0.00    +0.000 HD
ENDBRANCH   7  18
TORSDOF 3
