@<TRIPOS>MOLECULE
*****
 18 19 0 0 0
SMALL
GASTEIGER

@<TRIPOS>ATOM
      1 C           1.1248    0.4659    0.0000 C.3     1  UNL1        0.1710
      2 N           0.8660   -0.5000    0.0000 N.4     1  UNL1        0.3121
      3 C           1.6594   -1.1088    0.0000 C.3     1  UNL1        0.1710
      4 C           0.8660   -1.5000    0.0000 C.3     1  UNL1        0.1419
      5 C           0.0000   -2.0000    0.0000 C.3     1  UNL1        0.2058
      6 O          -0.8660   -1.5000    0.0000 O.3     1  UNL1       -0.3184
      7 C          -0.8660   -0.5000    0.0000 C.3     1  UNL1        0.2892
      8 O          -1.3660    0.3660    0.0000 O.3     1  UNL1       -0.1840
      9 C          -1.8660   -0.5000    0.0000 C.ar    1  UNL1        0.0373
     10 C          -2.3660   -1.3660    0.0000 C.ar    1  UNL1        0.0070
     11 C          -3.3660   -1.3660    0.0000 C.ar    1  UNL1        0.0751
     12 C          -3.8660   -0.5000    0.0000 C.ar    1  UNL1        0.2900
     13 N          -4.8660   -0.5000    0.0000 N.pl3   1  UNL1        0.0809
     14 O          -5.3660    0.3660    0.0000 O.2     1  UNL1        0.0415
     15 O          -5.3660   -1.3660    0.0000 O.co2   1  UNL1       -0.5760
     16 C          -3.3660    0.3660    0.0000 C.ar    1  UNL1        0.0751
     17 C          -2.3660    0.3660    0.0000 C.ar    1  UNL1        0.0070
     18 C           0.0000   -0.0000    0.0000 C.3     1  UNL1        0.1734
@<TRIPOS>UNITY_ATOM_ATTR
2 1
charge 1
13 1
charge 1
15 1
charge -1
@<TRIPOS>BOND
     1     1     2    1
     2     2     3    1
     3     2     4    1
     4     4     5    1
     5     5     6    1
     6     6     7    1
     7     7     8    1
     8     7     9    1
     9     9    10   ar
    10    10    11   ar
    11    11    12   ar
    12    12    13    1
    13    13    14    2
    14    13    15    1
    15    12    16   ar
    16    16    17   ar
    17     9    17   ar
    18     7    18    1
    19     2    18    1
