MODEL 1
REMARK VINA RESULT:   -10.819      0.000      0.000
REMARK INTER + INTRA:         -14.065
REMARK INTER:                 -13.982
REMARK INTRA:                  -0.083
REMARK UNBOUND:                -0.083
REMARK  Name = cpd137.pdb
REMARK  5 active torsions:
REMARK  status: ('A' for Active; 'I' for Inactive)
REMARK    1  A    between atoms: C_2  and  C_3
REMARK    2  A    between atoms: C_2  and  C_18
REMARK    3  A    between atoms: C_4  and  C_5
REMARK    4  A    between atoms: N_8  and  C_9
REMARK    5  A    between atoms: C_9  and  C_10
REMARK                            x       y       z     vdW  Elec       q    Type
REMARK                         _______ _______ _______ _____ _____    ______ ____
ROOT
ATOM      1  C   UNL A   1      42.014 -36.993 -32.207  0.00  0.00    -0.011 C 
ATOM      2  C   UNL A   1      42.042 -37.613 -31.016  0.00  0.00    -0.051 C 
ENDROOT
BRANCH   2   3
ATOM      3  C   UNL A   1      43.203 -38.339 -30.483  0.00  0.00    -0.022 A 
ATOM      4  C   UNL A   1      43.142 -39.669 -30.068  0.00  0.00    -0.038 A 
ATOM      5  C   UNL A   1      44.273 -40.282 -29.535  0.00  0.00    +0.005 A 
ATOM      6  N   UNL A   1      45.434 -39.599 -29.407  0.00  0.00    -0.349 N 
ATOM      7  C   UNL A   1      45.513 -38.303 -29.786  0.00  0.00    +0.005 A 
ATOM      8  C   UNL A   1      44.408 -37.653 -30.324  0.00  0.00    -0.038 A 
BRANCH   6   9
ATOM      9  C   UNL A   1      46.618 -40.269 -28.809  0.00  0.00    +0.048 C 
BRANCH   9  10
ATOM     10  C   UNL A   1      47.889 -39.910 -29.534  0.00  0.00    -0.028 A 
ATOM     11  C   UNL A   1      48.182 -40.439 -30.802  0.00  0.00    -0.057 A 
ATOM     12  C   UNL A   1      49.356 -40.079 -31.465  0.00  0.00    -0.061 A 
ATOM     13  C   UNL A   1      50.243 -39.179 -30.879  0.00  0.00    -0.062 A 
ATOM     14  C   UNL A   1      49.956 -38.635 -29.630  0.00  0.00    -0.061 A 
ATOM     15  C   UNL A   1      48.786 -38.995 -28.960  0.00  0.00    -0.057 A 
ENDBRANCH   9  10
ENDBRANCH   6   9
ENDBRANCH   2   3
BRANCH   1  17
ATOM     16  O   UNL A   1      41.036 -35.720 -33.879  0.00  0.00    -0.284 OA
ATOM     17  C   UNL A   1      40.864 -36.206 -32.759  0.00  0.00    +0.221 C 
BRANCH  17  18
ATOM     18  C   UNL A   1      39.630 -36.039 -32.020  0.00  0.00    +0.176 A 
ATOM     19  C   UNL A   1      38.593 -35.143 -32.213  0.00  0.00    -0.005 A 
ATOM     20  C   UNL A   1      37.610 -35.420 -31.228  0.00  0.00    +0.021 A 
ATOM     21  C   UNL A   1      36.359 -34.887 -30.879  0.00  0.00    -0.051 A 
ATOM     22  C   UNL A   1      35.660 -35.461 -29.806  0.00  0.00    -0.061 A 
ATOM     23  C   UNL A   1      36.189 -36.543 -29.098  0.00  0.00    -0.058 A 
ATOM     24  C   UNL A   1      37.433 -37.088 -29.433  0.00  0.00    -0.019 A 
ATOM     25  C   UNL A   1      38.103 -36.495 -30.500  0.00  0.00    +0.136 A 
ATOM     26  O   UNL A   1      39.320 -36.874 -30.978  0.00  0.00    -0.452 OA
ENDBRANCH  17  18
ENDBRANCH   1  17
TORSDOF 5
ENDMDL
MODEL 2
REMARK VINA RESULT:    -9.539      1.664      2.816
REMARK INTER + INTRA:         -12.410
REMARK INTER:                 -11.937
REMARK INTRA:                  -0.473
REMARK UNBOUND:                -0.083
REMARK  Name = cpd137.pdb
REMARK  5 active torsions:
REMARK  status: ('A' for Active; 'I' for Inactive)
REMARK    1  A    between atoms: C_2  and  C_3
REMARK    2  A    between atoms: C_2  and  C_18
REMARK    3  A    between atoms: C_4  and  C_5
REMARK    4  A    between atoms: N_8  and  C_9
REMARK    5  A    between atoms: C_9  and  C_10
REMARK                            x       y       z     vdW  Elec       q    Type
REMARK                         _______ _______ _______ _____ _____    ______ ____
ROOT
ATOM      1  C   UNL A   1      39.620 -36.695 -31.348  0.00  0.00    -0.011 C 
ATOM      2  C   UNL A   1      40.304 -36.913 -30.214  0.00  0.00    -0.051 C 
ENDROOT
BRANCH   2   3
ATOM      3  C   UNL A   1      41.329 -37.952 -30.047  0.00  0.00    -0.022 A 
ATOM      4  C   UNL A   1      41.442 -38.730 -28.894  0.00  0.00    -0.038 A 
ATOM      5  C   UNL A   1      42.464 -39.669 -28.788  0.00  0.00    +0.005 A 
ATOM      6  N   UNL A   1      43.358 -39.834 -29.791  0.00  0.00    -0.349 N 
ATOM      7  C   UNL A   1      43.279 -39.080 -30.911  0.00  0.00    +0.005 A 
ATOM      8  C   UNL A   1      42.274 -38.131 -31.058  0.00  0.00    -0.038 A 
BRANCH   6   9
ATOM      9  C   UNL A   1      44.455 -40.824 -29.640  0.00  0.00    +0.048 C 
BRANCH   9  10
ATOM     10  C   UNL A   1      45.810 -40.167 -29.669  0.00  0.00    -0.028 A 
ATOM     11  C   UNL A   1      46.028 -38.915 -29.071  0.00  0.00    -0.057 A 
ATOM     12  C   UNL A   1      47.296 -38.332 -29.092  0.00  0.00    -0.061 A 
ATOM     13  C   UNL A   1      48.362 -38.995 -29.697  0.00  0.00    -0.062 A 
ATOM     14  C   UNL A   1      48.162 -40.244 -30.279  0.00  0.00    -0.061 A 
ATOM     15  C   UNL A   1      46.896 -40.830 -30.264  0.00  0.00    -0.057 A 
ENDBRANCH   9  10
ENDBRANCH   6   9
ENDBRANCH   2   3
BRANCH   1  17
ATOM     16  O   UNL A   1      38.882 -34.781 -32.429  0.00  0.00    -0.284 OA
ATOM     17  C   UNL A   1      38.603 -35.616 -31.566  0.00  0.00    +0.221 C 
BRANCH  17  18
ATOM     18  C   UNL A   1      37.368 -35.570 -30.810  0.00  0.00    +0.176 A 
ATOM     19  C   UNL A   1      36.849 -36.475 -29.900  0.00  0.00    -0.005 A 
ATOM     20  C   UNL A   1      35.625 -35.939 -29.426  0.00  0.00    +0.021 A 
ATOM     21  C   UNL A   1      34.629 -36.348 -28.523  0.00  0.00    -0.051 A 
ATOM     22  C   UNL A   1      33.529 -35.504 -28.309  0.00  0.00    -0.061 A 
ATOM     23  C   UNL A   1      33.420 -34.279 -28.971  0.00  0.00    -0.058 A 
ATOM     24  C   UNL A   1      34.402 -33.854 -29.872  0.00  0.00    -0.019 A 
ATOM     25  C   UNL A   1      35.479 -34.715 -30.066  0.00  0.00    +0.136 A 
ATOM     26  O   UNL A   1      36.533 -34.487 -30.898  0.00  0.00    -0.452 OA
ENDBRANCH  17  18
ENDBRANCH   1  17
TORSDOF 5
ENDMDL
MODEL 3
REMARK VINA RESULT:    -8.718      5.073     10.960
REMARK INTER + INTRA:         -11.349
REMARK INTER:                 -10.902
REMARK INTRA:                  -0.447
REMARK UNBOUND:                -0.083
REMARK  Name = cpd137.pdb
REMARK  5 active torsions:
REMARK  status: ('A' for Active; 'I' for Inactive)
REMARK    1  A    between atoms: C_2  and  C_3
REMARK    2  A    between atoms: C_2  and  C_18
REMARK    3  A    between atoms: C_4  and  C_5
REMARK    4  A    between atoms: N_8  and  C_9
REMARK    5  A    between atoms: C_9  and  C_10
REMARK                            x       y       z     vdW  Elec       q    Type
REMARK                         _______ _______ _______ _____ _____    ______ ____
ROOT
ATOM      1  C   UNL A   1      35.871 -36.321 -29.472  0.00  0.00    -0.011 C 
ATOM      2  C   UNL A   1      34.869 -35.777 -28.763  0.00  0.00    -0.051 C 
ENDROOT
BRANCH   2   3
ATOM      3  C   UNL A   1      34.217 -36.421 -27.615  0.00  0.00    -0.022 A 
ATOM      4  C   UNL A   1      33.031 -35.950 -27.052  0.00  0.00    -0.038 A 
ATOM      5  C   UNL A   1      32.490 -36.586 -25.939  0.00  0.00    +0.005 A 
ATOM      6  N   UNL A   1      33.106 -37.659 -25.389  0.00  0.00    -0.349 N 
ATOM      7  C   UNL A   1      34.265 -38.125 -25.907  0.00  0.00    +0.005 A 
ATOM      8  C   UNL A   1      34.839 -37.518 -27.018  0.00  0.00    -0.038 A 
BRANCH   6   9
ATOM      9  C   UNL A   1      32.522 -38.304 -24.184  0.00  0.00    +0.048 C 
BRANCH   9  10
ATOM     10  C   UNL A   1      33.360 -38.059 -22.957  0.00  0.00    -0.028 A 
ATOM     11  C   UNL A   1      33.493 -39.035 -21.956  0.00  0.00    -0.057 A 
ATOM     12  C   UNL A   1      34.291 -38.795 -20.836  0.00  0.00    -0.061 A 
ATOM     13  C   UNL A   1      34.972 -37.587 -20.707  0.00  0.00    -0.062 A 
ATOM     14  C   UNL A   1      34.860 -36.617 -21.699  0.00  0.00    -0.061 A 
ATOM     15  C   UNL A   1      34.062 -36.850 -22.820  0.00  0.00    -0.057 A 
ENDBRANCH   9  10
ENDBRANCH   6   9
ENDBRANCH   2   3
BRANCH   1  17
ATOM     16  O   UNL A   1      35.930 -34.862 -31.273  0.00  0.00    -0.284 OA
ATOM     17  C   UNL A   1      36.588 -35.672 -30.618  0.00  0.00    +0.221 C 
BRANCH  17  18
ATOM     18  C   UNL A   1      37.970 -35.980 -30.924  0.00  0.00    +0.176 A 
ATOM     19  C   UNL A   1      38.786 -35.495 -31.932  0.00  0.00    -0.005 A 
ATOM     20  C   UNL A   1      40.058 -36.099 -31.768  0.00  0.00    +0.021 A 
ATOM     21  C   UNL A   1      41.291 -36.045 -32.439  0.00  0.00    -0.051 A 
ATOM     22  C   UNL A   1      42.357 -36.813 -31.948  0.00  0.00    -0.061 A 
ATOM     23  C   UNL A   1      42.206 -37.614 -30.814  0.00  0.00    -0.058 A 
ATOM     24  C   UNL A   1      40.987 -37.679 -30.131  0.00  0.00    -0.019 A 
ATOM     25  C   UNL A   1      39.947 -36.908 -30.645  0.00  0.00    +0.136 A 
ATOM     26  O   UNL A   1      38.689 -36.834 -30.130  0.00  0.00    -0.452 OA
ENDBRANCH  17  18
ENDBRANCH   1  17
TORSDOF 5
ENDMDL
MODEL 4
REMARK VINA RESULT:    -8.598      6.460     11.079
REMARK INTER + INTRA:         -11.193
REMARK INTER:                 -10.632
REMARK INTRA:                  -0.561
REMARK UNBOUND:                -0.083
REMARK  Name = cpd137.pdb
REMARK  5 active torsions:
REMARK  status: ('A' for Active; 'I' for Inactive)
REMARK    1  A    between atoms: C_2  and  C_3
REMARK    2  A    between atoms: C_2  and  C_18
REMARK    3  A    between atoms: C_4  and  C_5
REMARK    4  A    between atoms: N_8  and  C_9
REMARK    5  A    between atoms: C_9  and  C_10
REMARK                            x       y       z     vdW  Elec       q    Type
REMARK                         _______ _______ _______ _____ _____    ______ ____
ROOT
ATOM      1  C   UNL A   1      34.976 -37.126 -27.105  0.00  0.00    -0.011 C 
ATOM      2  C   UNL A   1      33.859 -37.092 -26.362  0.00  0.00    -0.051 C 
ENDROOT
BRANCH   2   3
ATOM      3  C   UNL A   1      33.720 -37.715 -25.039  0.00  0.00    -0.022 A 
ATOM      4  C   UNL A   1      33.690 -36.982 -23.853  0.00  0.00    -0.038 A 
ATOM      5  C   UNL A   1      33.596 -37.642 -22.631  0.00  0.00    +0.005 A 
ATOM      6  N   UNL A   1      33.541 -38.993 -22.578  0.00  0.00    -0.349 N 
ATOM      7  C   UNL A   1      33.585 -39.727 -23.713  0.00  0.00    +0.005 A 
ATOM      8  C   UNL A   1      33.678 -39.107 -24.955  0.00  0.00    -0.038 A 
BRANCH   6   9
ATOM      9  C   UNL A   1      33.469 -39.674 -21.259  0.00  0.00    +0.048 C 
BRANCH   9  10
ATOM     10  C   UNL A   1      34.835 -40.051 -20.749  0.00  0.00    -0.028 A 
ATOM     11  C   UNL A   1      35.449 -41.257 -21.126  0.00  0.00    -0.057 A 
ATOM     12  C   UNL A   1      36.724 -41.578 -20.657  0.00  0.00    -0.061 A 
ATOM     13  C   UNL A   1      37.404 -40.698 -19.820  0.00  0.00    -0.062 A 
ATOM     14  C   UNL A   1      36.813 -39.492 -19.451  0.00  0.00    -0.061 A 
ATOM     15  C   UNL A   1      35.537 -39.167 -19.914  0.00  0.00    -0.057 A 
ENDBRANCH   9  10
ENDBRANCH   6   9
ENDBRANCH   2   3
BRANCH   1  17
ATOM     16  O   UNL A   1      34.173 -35.899 -28.901  0.00  0.00    -0.284 OA
ATOM     17  C   UNL A   1      35.166 -36.462 -28.436  0.00  0.00    +0.221 C 
BRANCH  17  18
ATOM     18  C   UNL A   1      36.442 -36.481 -29.122  0.00  0.00    +0.176 A 
ATOM     19  C   UNL A   1      37.551 -37.282 -28.912  0.00  0.00    -0.005 A 
ATOM     20  C   UNL A   1      38.524 -36.911 -29.874  0.00  0.00    +0.021 A 
ATOM     21  C   UNL A   1      39.832 -37.316 -30.190  0.00  0.00    -0.051 A 
ATOM     22  C   UNL A   1      40.489 -36.689 -31.260  0.00  0.00    -0.061 A 
ATOM     23  C   UNL A   1      39.861 -35.687 -32.004  0.00  0.00    -0.058 A 
ATOM     24  C   UNL A   1      38.559 -35.273 -31.705  0.00  0.00    -0.019 A 
ATOM     25  C   UNL A   1      37.935 -35.911 -30.636  0.00  0.00    +0.136 A 
ATOM     26  O   UNL A   1      36.676 -35.653 -30.187  0.00  0.00    -0.452 OA
ENDBRANCH  17  18
ENDBRANCH   1  17
TORSDOF 5
ENDMDL
MODEL 5
REMARK VINA RESULT:    -8.501      5.323     13.111
REMARK INTER + INTRA:         -11.068
REMARK INTER:                 -10.393
REMARK INTRA:                  -0.675
REMARK UNBOUND:                -0.083
REMARK  Name = cpd137.pdb
REMARK  5 active torsions:
REMARK  status: ('A' for Active; 'I' for Inactive)
REMARK    1  A    between atoms: C_2  and  C_3
REMARK    2  A    between atoms: C_2  and  C_18
REMARK    3  A    between atoms: C_4  and  C_5
REMARK    4  A    between atoms: N_8  and  C_9
REMARK    5  A    between atoms: C_9  and  C_10
REMARK                            x       y       z     vdW  Elec       q    Type
REMARK                         _______ _______ _______ _____ _____    ______ ____
ROOT
ATOM      1  C   UNL A   1      35.653 -36.133 -29.443  0.00  0.00    -0.011 C 
ATOM      2  C   UNL A   1      35.504 -34.801 -29.520  0.00  0.00    -0.051 C 
ENDROOT
BRANCH   2   3
ATOM      3  C   UNL A   1      34.277 -34.125 -29.964  0.00  0.00    -0.022 A 
ATOM      4  C   UNL A   1      33.245 -34.784 -30.633  0.00  0.00    -0.038 A 
ATOM      5  C   UNL A   1      32.129 -34.072 -31.060  0.00  0.00    +0.005 A 
ATOM      6  N   UNL A   1      32.033 -32.740 -30.840  0.00  0.00    -0.349 N 
ATOM      7  C   UNL A   1      33.027 -32.075 -30.209  0.00  0.00    +0.005 A 
ATOM      8  C   UNL A   1      34.160 -32.749 -29.765  0.00  0.00    -0.038 A 
BRANCH   6   9
ATOM      9  C   UNL A   1      30.843 -31.998 -31.331  0.00  0.00    +0.048 C 
BRANCH   9  10
ATOM     10  C   UNL A   1      30.083 -31.351 -30.203  0.00  0.00    -0.028 A 
ATOM     11  C   UNL A   1      29.876 -29.962 -30.162  0.00  0.00    -0.057 A 
ATOM     12  C   UNL A   1      29.152 -29.385 -29.118  0.00  0.00    -0.061 A 
ATOM     13  C   UNL A   1      28.616 -30.185 -28.112  0.00  0.00    -0.062 A 
ATOM     14  C   UNL A   1      28.801 -31.564 -28.148  0.00  0.00    -0.061 A 
ATOM     15  C   UNL A   1      29.527 -32.147 -29.188  0.00  0.00    -0.057 A 
ENDBRANCH   9  10
ENDBRANCH   6   9
ENDBRANCH   2   3
BRANCH   1  17
ATOM     16  O   UNL A   1      36.769 -37.391 -27.848  0.00  0.00    -0.284 OA
ATOM     17  C   UNL A   1      36.872 -36.853 -28.952  0.00  0.00    +0.221 C 
BRANCH  17  18
ATOM     18  C   UNL A   1      38.089 -36.912 -29.735  0.00  0.00    +0.176 A 
ATOM     19  C   UNL A   1      38.400 -36.306 -30.941  0.00  0.00    -0.005 A 
ATOM     20  C   UNL A   1      39.733 -36.668 -31.261  0.00  0.00    +0.021 A 
ATOM     21  C   UNL A   1      40.621 -36.405 -32.317  0.00  0.00    -0.051 A 
ATOM     22  C   UNL A   1      41.908 -36.960 -32.266  0.00  0.00    -0.061 A 
ATOM     23  C   UNL A   1      42.309 -37.756 -31.190  0.00  0.00    -0.058 A 
ATOM     24  C   UNL A   1      41.439 -38.027 -30.128  0.00  0.00    -0.019 A 
ATOM     25  C   UNL A   1      40.168 -37.464 -30.209  0.00  0.00    +0.136 A 
ATOM     26  O   UNL A   1      39.179 -37.609 -29.284  0.00  0.00    -0.452 OA
ENDBRANCH  17  18
ENDBRANCH   1  17
TORSDOF 5
ENDMDL
MODEL 6
REMARK VINA RESULT:    -8.433      5.390     13.134
REMARK INTER + INTRA:         -10.981
REMARK INTER:                 -10.519
REMARK INTRA:                  -0.462
REMARK UNBOUND:                -0.083
REMARK  Name = cpd137.pdb
REMARK  5 active torsions:
REMARK  status: ('A' for Active; 'I' for Inactive)
REMARK    1  A    between atoms: C_2  and  C_3
REMARK    2  A    between atoms: C_2  and  C_18
REMARK    3  A    between atoms: C_4  and  C_5
REMARK    4  A    between atoms: N_8  and  C_9
REMARK    5  A    between atoms: C_9  and  C_10
REMARK                            x       y       z     vdW  Elec       q    Type
REMARK                         _______ _______ _______ _____ _____    ______ ____
ROOT
ATOM      1  C   UNL A   1      35.185 -36.094 -29.952  0.00  0.00    -0.011 C 
ATOM      2  C   UNL A   1      35.358 -34.781 -29.732  0.00  0.00    -0.051 C 
ENDROOT
BRANCH   2   3
ATOM      3  C   UNL A   1      34.311 -33.764 -29.899  0.00  0.00    -0.022 A 
ATOM      4  C   UNL A   1      34.394 -32.735 -30.837  0.00  0.00    -0.038 A 
ATOM      5  C   UNL A   1      33.382 -31.782 -30.913  0.00  0.00    +0.005 A 
ATOM      6  N   UNL A   1      32.318 -31.836 -30.079  0.00  0.00    -0.349 N 
ATOM      7  C   UNL A   1      32.223 -32.813 -29.149  0.00  0.00    +0.005 A 
ATOM      8  C   UNL A   1      33.212 -33.786 -29.040  0.00  0.00    -0.038 A 
BRANCH   6   9
ATOM      9  C   UNL A   1      31.266 -30.790 -30.162  0.00  0.00    +0.048 C 
BRANCH   9  10
ATOM     10  C   UNL A   1      30.231 -31.120 -31.206  0.00  0.00    -0.028 A 
ATOM     11  C   UNL A   1      30.027 -32.439 -31.643  0.00  0.00    -0.057 A 
ATOM     12  C   UNL A   1      29.050 -32.725 -32.597  0.00  0.00    -0.061 A 
ATOM     13  C   UNL A   1      28.257 -31.704 -33.115  0.00  0.00    -0.062 A 
ATOM     14  C   UNL A   1      28.438 -30.394 -32.679  0.00  0.00    -0.061 A 
ATOM     15  C   UNL A   1      29.416 -30.102 -31.728  0.00  0.00    -0.057 A 
ENDBRANCH   9  10
ENDBRANCH   6   9
ENDBRANCH   2   3
BRANCH   1  17
ATOM     16  O   UNL A   1      35.836 -38.167 -29.145  0.00  0.00    -0.284 OA
ATOM     17  C   UNL A   1      36.217 -37.161 -29.747  0.00  0.00    +0.221 C 
BRANCH  17  18
ATOM     18  C   UNL A   1      37.572 -37.014 -30.236  0.00  0.00    +0.176 A 
ATOM     19  C   UNL A   1      38.766 -37.461 -29.694  0.00  0.00    -0.005 A 
ATOM     20  C   UNL A   1      39.801 -37.075 -30.584  0.00  0.00    +0.021 A 
ATOM     21  C   UNL A   1      41.199 -37.208 -30.619  0.00  0.00    -0.051 A 
ATOM     22  C   UNL A   1      41.896 -36.680 -31.715  0.00  0.00    -0.061 A 
ATOM     23  C   UNL A   1      41.222 -36.038 -32.757  0.00  0.00    -0.058 A 
ATOM     24  C   UNL A   1      39.830 -35.898 -32.741  0.00  0.00    -0.019 A 
ATOM     25  C   UNL A   1      39.167 -36.430 -31.638  0.00  0.00    +0.136 A 
ATOM     26  O   UNL A   1      37.822 -36.396 -31.433  0.00  0.00    -0.452 OA
ENDBRANCH  17  18
ENDBRANCH   1  17
TORSDOF 5
ENDMDL
MODEL 7
REMARK VINA RESULT:    -8.333      5.369     13.241
REMARK INTER + INTRA:         -10.851
REMARK INTER:                 -10.249
REMARK INTRA:                  -0.602
REMARK UNBOUND:                -0.083
REMARK  Name = cpd137.pdb
REMARK  5 active torsions:
REMARK  status: ('A' for Active; 'I' for Inactive)
REMARK    1  A    between atoms: C_2  and  C_3
REMARK    2  A    between atoms: C_2  and  C_18
REMARK    3  A    between atoms: C_4  and  C_5
REMARK    4  A    between atoms: N_8  and  C_9
REMARK    5  A    between atoms: C_9  and  C_10
REMARK                            x       y       z     vdW  Elec       q    Type
REMARK                         _______ _______ _______ _____ _____    ______ ____
ROOT
ATOM      1  C   UNL A   1      35.605 -35.751 -29.089  0.00  0.00    -0.011 C 
ATOM      2  C   UNL A   1      34.849 -35.465 -30.160  0.00  0.00    -0.051 C 
ENDROOT
BRANCH   2   3
ATOM      3  C   UNL A   1      34.054 -34.240 -30.314  0.00  0.00    -0.022 A 
ATOM      4  C   UNL A   1      34.386 -33.035 -29.694  0.00  0.00    -0.038 A 
ATOM      5  C   UNL A   1      33.564 -31.923 -29.853  0.00  0.00    +0.005 A 
ATOM      6  N   UNL A   1      32.437 -31.997 -30.599  0.00  0.00    -0.349 N 
ATOM      7  C   UNL A   1      32.084 -33.158 -31.196  0.00  0.00    +0.005 A 
ATOM      8  C   UNL A   1      32.878 -34.293 -31.064  0.00  0.00    -0.038 A 
BRANCH   6   9
ATOM      9  C   UNL A   1      31.562 -30.803 -30.729  0.00  0.00    +0.048 C 
BRANCH   9  10
ATOM     10  C   UNL A   1      30.323 -30.921 -29.881  0.00  0.00    -0.028 A 
ATOM     11  C   UNL A   1      30.341 -30.609 -28.512  0.00  0.00    -0.057 A 
ATOM     12  C   UNL A   1      29.177 -30.707 -27.749  0.00  0.00    -0.061 A 
ATOM     13  C   UNL A   1      27.982 -31.104 -28.343  0.00  0.00    -0.062 A 
ATOM     14  C   UNL A   1      27.946 -31.400 -29.702  0.00  0.00    -0.061 A 
ATOM     15  C   UNL A   1      29.108 -31.308 -30.470  0.00  0.00    -0.057 A 
ENDBRANCH   9  10
ENDBRANCH   6   9
ENDBRANCH   2   3
BRANCH   1  17
ATOM     16  O   UNL A   1      35.973 -37.883 -28.255  0.00  0.00    -0.284 OA
ATOM     17  C   UNL A   1      36.463 -36.968 -28.920  0.00  0.00    +0.221 C 
BRANCH  17  18
ATOM     18  C   UNL A   1      37.783 -37.058 -29.511  0.00  0.00    +0.176 A 
ATOM     19  C   UNL A   1      38.916 -37.713 -29.059  0.00  0.00    -0.005 A 
ATOM     20  C   UNL A   1      39.932 -37.508 -30.026  0.00  0.00    +0.021 A 
ATOM     21  C   UNL A   1      41.278 -37.885 -30.166  0.00  0.00    -0.051 A 
ATOM     22  C   UNL A   1      41.974 -37.478 -31.314  0.00  0.00    -0.061 A 
ATOM     23  C   UNL A   1      41.347 -36.718 -32.305  0.00  0.00    -0.058 A 
ATOM     24  C   UNL A   1      40.007 -36.335 -32.184  0.00  0.00    -0.019 A 
ATOM     25  C   UNL A   1      39.345 -36.751 -31.032  0.00  0.00    +0.136 A 
ATOM     26  O   UNL A   1      38.046 -36.483 -30.726  0.00  0.00    -0.452 OA
ENDBRANCH  17  18
ENDBRANCH   1  17
TORSDOF 5
ENDMDL
MODEL 8
REMARK VINA RESULT:    -8.249      7.344     11.612
REMARK INTER + INTRA:         -10.743
REMARK INTER:                 -10.096
REMARK INTRA:                  -0.647
REMARK UNBOUND:                -0.083
REMARK  Name = cpd137.pdb
REMARK  5 active torsions:
REMARK  status: ('A' for Active; 'I' for Inactive)
REMARK    1  A    between atoms: C_2  and  C_3
REMARK    2  A    between atoms: C_2  and  C_18
REMARK    3  A    between atoms: C_4  and  C_5
REMARK    4  A    between atoms: N_8  and  C_9
REMARK    5  A    between atoms: C_9  and  C_10
REMARK                            x       y       z     vdW  Elec       q    Type
REMARK                         _______ _______ _______ _____ _____    ______ ____
ROOT
ATOM      1  C   UNL A   1      34.307 -37.610 -25.930  0.00  0.00    -0.011 C 
ATOM      2  C   UNL A   1      33.383 -37.440 -24.970  0.00  0.00    -0.051 C 
ENDROOT
BRANCH   2   3
ATOM      3  C   UNL A   1      33.462 -38.028 -23.627  0.00  0.00    -0.022 A 
ATOM      4  C   UNL A   1      33.397 -37.267 -22.459  0.00  0.00    -0.038 A 
ATOM      5  C   UNL A   1      33.519 -37.887 -21.219  0.00  0.00    +0.005 A 
ATOM      6  N   UNL A   1      33.707 -39.225 -21.130  0.00  0.00    -0.349 N 
ATOM      7  C   UNL A   1      33.789 -39.982 -22.248  0.00  0.00    +0.005 A 
ATOM      8  C   UNL A   1      33.673 -39.402 -23.507  0.00  0.00    -0.038 A 
BRANCH   6   9
ATOM      9  C   UNL A   1      33.860 -39.858 -19.795  0.00  0.00    +0.048 C 
BRANCH   9  10
ATOM     10  C   UNL A   1      35.284 -40.276 -19.535  0.00  0.00    -0.028 A 
ATOM     11  C   UNL A   1      36.307 -39.327 -19.372  0.00  0.00    -0.057 A 
ATOM     12  C   UNL A   1      37.616 -39.736 -19.112  0.00  0.00    -0.061 A 
ATOM     13  C   UNL A   1      37.917 -41.090 -18.999  0.00  0.00    -0.062 A 
ATOM     14  C   UNL A   1      36.909 -42.041 -19.142  0.00  0.00    -0.061 A 
ATOM     15  C   UNL A   1      35.599 -41.638 -19.405  0.00  0.00    -0.057 A 
ENDBRANCH   9  10
ENDBRANCH   6   9
ENDBRANCH   2   3
BRANCH   1  17
ATOM     16  O   UNL A   1      33.186 -36.562 -27.668  0.00  0.00    -0.284 OA
ATOM     17  C   UNL A   1      34.280 -36.988 -27.293  0.00  0.00    +0.221 C 
BRANCH  17  18
ATOM     18  C   UNL A   1      35.473 -36.891 -28.110  0.00  0.00    +0.176 A 
ATOM     19  C   UNL A   1      36.657 -37.605 -28.040  0.00  0.00    -0.005 A 
ATOM     20  C   UNL A   1      37.490 -37.139 -29.090  0.00  0.00    +0.021 A 
ATOM     21  C   UNL A   1      38.784 -37.431 -29.552  0.00  0.00    -0.051 A 
ATOM     22  C   UNL A   1      39.271 -36.733 -30.667  0.00  0.00    -0.061 A 
ATOM     23  C   UNL A   1      38.492 -35.770 -31.312  0.00  0.00    -0.058 A 
ATOM     24  C   UNL A   1      37.201 -35.467 -30.867  0.00  0.00    -0.019 A 
ATOM     25  C   UNL A   1      36.747 -36.174 -29.757  0.00  0.00    +0.136 A 
ATOM     26  O   UNL A   1      35.527 -36.026 -29.170  0.00  0.00    -0.452 OA
ENDBRANCH  17  18
ENDBRANCH   1  17
TORSDOF 5
ENDMDL
MODEL 9
REMARK VINA RESULT:    -8.146      4.847     12.660
REMARK INTER + INTRA:         -10.610
REMARK INTER:                 -10.378
REMARK INTRA:                  -0.232
REMARK UNBOUND:                -0.083
REMARK  Name = cpd137.pdb
REMARK  5 active torsions:
REMARK  status: ('A' for Active; 'I' for Inactive)
REMARK    1  A    between atoms: C_2  and  C_3
REMARK    2  A    between atoms: C_2  and  C_18
REMARK    3  A    between atoms: C_4  and  C_5
REMARK    4  A    between atoms: N_8  and  C_9
REMARK    5  A    between atoms: C_9  and  C_10
REMARK                            x       y       z     vdW  Elec       q    Type
REMARK                         _______ _______ _______ _____ _____    ______ ____
ROOT
ATOM      1  C   UNL A   1      35.916 -36.986 -28.655  0.00  0.00    -0.011 C 
ATOM      2  C   UNL A   1      35.881 -35.823 -29.325  0.00  0.00    -0.051 C 
ENDROOT
BRANCH   2   3
ATOM      3  C   UNL A   1      34.746 -34.890 -29.316  0.00  0.00    -0.022 A 
ATOM      4  C   UNL A   1      34.817 -33.602 -29.848  0.00  0.00    -0.038 A 
ATOM      5  C   UNL A   1      33.713 -32.757 -29.768  0.00  0.00    +0.005 A 
ATOM      6  N   UNL A   1      32.570 -33.169 -29.172  0.00  0.00    -0.349 N 
ATOM      7  C   UNL A   1      32.482 -34.406 -28.635  0.00  0.00    +0.005 A 
ATOM      8  C   UNL A   1      33.561 -35.282 -28.693  0.00  0.00    -0.038 A 
BRANCH   6   9
ATOM      9  C   UNL A   1      31.416 -32.237 -29.077  0.00  0.00    +0.048 C 
BRANCH   9  10
ATOM     10  C   UNL A   1      30.340 -32.574 -30.076  0.00  0.00    -0.028 A 
ATOM     11  C   UNL A   1      30.643 -32.797 -31.429  0.00  0.00    -0.057 A 
ATOM     12  C   UNL A   1      29.634 -33.128 -32.335  0.00  0.00    -0.061 A 
ATOM     13  C   UNL A   1      28.317 -33.251 -31.901  0.00  0.00    -0.062 A 
ATOM     14  C   UNL A   1      28.005 -33.048 -30.559  0.00  0.00    -0.061 A 
ATOM     15  C   UNL A   1      29.010 -32.714 -29.649  0.00  0.00    -0.057 A 
ENDBRANCH   9  10
ENDBRANCH   6   9
ENDBRANCH   2   3
BRANCH   1  17
ATOM     16  O   UNL A   1      36.937 -38.910 -27.863  0.00  0.00    -0.284 OA
ATOM     17  C   UNL A   1      37.073 -37.936 -28.607  0.00  0.00    +0.221 C 
BRANCH  17  18
ATOM     18  C   UNL A   1      38.270 -37.720 -29.394  0.00  0.00    +0.176 A 
ATOM     19  C   UNL A   1      38.471 -36.914 -30.501  0.00  0.00    -0.005 A 
ATOM     20  C   UNL A   1      39.834 -37.044 -30.873  0.00  0.00    +0.021 A 
ATOM     21  C   UNL A   1      40.656 -36.518 -31.883  0.00  0.00    -0.051 A 
ATOM     22  C   UNL A   1      42.006 -36.896 -31.914  0.00  0.00    -0.061 A 
ATOM     23  C   UNL A   1      42.532 -37.773 -30.962  0.00  0.00    -0.058 A 
ATOM     24  C   UNL A   1      41.729 -38.306 -29.948  0.00  0.00    -0.019 A 
ATOM     25  C   UNL A   1      40.393 -37.914 -29.946  0.00  0.00    +0.136 A 
ATOM     26  O   UNL A   1      39.453 -38.320 -29.049  0.00  0.00    -0.452 OA
ENDBRANCH  17  18
ENDBRANCH   1  17
TORSDOF 5
ENDMDL
MODEL 10
REMARK VINA RESULT:    -7.920     17.282     20.134
REMARK INTER + INTRA:         -10.318
REMARK INTER:                  -9.600
REMARK INTRA:                  -0.718
REMARK UNBOUND:                -0.083
REMARK  Name = cpd137.pdb
REMARK  5 active torsions:
REMARK  status: ('A' for Active; 'I' for Inactive)
REMARK    1  A    between atoms: C_2  and  C_3
REMARK    2  A    between atoms: C_2  and  C_18
REMARK    3  A    between atoms: C_4  and  C_5
REMARK    4  A    between atoms: N_8  and  C_9
REMARK    5  A    between atoms: C_9  and  C_10
REMARK                            x       y       z     vdW  Elec       q    Type
REMARK                         _______ _______ _______ _____ _____    ______ ____
ROOT
ATOM      1  C   UNL A   1      43.046 -19.660 -38.574  0.00  0.00    -0.011 C 
ATOM      2  C   UNL A   1      42.825 -20.840 -37.974  0.00  0.00    -0.051 C 
ENDROOT
BRANCH   2   3
ATOM      3  C   UNL A   1      42.123 -21.004 -36.694  0.00  0.00    -0.022 A 
ATOM      4  C   UNL A   1      42.595 -20.471 -35.494  0.00  0.00    -0.038 A 
ATOM      5  C   UNL A   1      41.899 -20.701 -34.311  0.00  0.00    +0.005 A 
ATOM      6  N   UNL A   1      40.767 -21.444 -34.309  0.00  0.00    -0.349 N 
ATOM      7  C   UNL A   1      40.299 -21.985 -35.456  0.00  0.00    +0.005 A 
ATOM      8  C   UNL A   1      40.964 -21.780 -36.660  0.00  0.00    -0.038 A 
BRANCH   6   9
ATOM      9  C   UNL A   1      40.058 -21.697 -33.028  0.00  0.00    +0.048 C 
BRANCH   9  10
ATOM     10  C   UNL A   1      38.783 -20.900 -32.927  0.00  0.00    -0.028 A 
ATOM     11  C   UNL A   1      38.799 -19.496 -32.900  0.00  0.00    -0.057 A 
ATOM     12  C   UNL A   1      37.605 -18.776 -32.827  0.00  0.00    -0.061 A 
ATOM     13  C   UNL A   1      36.385 -19.446 -32.792  0.00  0.00    -0.062 A 
ATOM     14  C   UNL A   1      36.355 -20.837 -32.835  0.00  0.00    -0.061 A 
ATOM     15  C   UNL A   1      37.545 -21.562 -32.905  0.00  0.00    -0.057 A 
ENDBRANCH   9  10
ENDBRANCH   6   9
ENDBRANCH   2   3
BRANCH   1  17
ATOM     16  O   UNL A   1      43.471 -18.398 -40.472  0.00  0.00    -0.284 OA
ATOM     17  C   UNL A   1      43.717 -19.461 -39.900  0.00  0.00    +0.221 C 
BRANCH  17  18
ATOM     18  C   UNL A   1      44.603 -20.460 -40.462  0.00  0.00    +0.176 A 
ATOM     19  C   UNL A   1      44.520 -21.146 -41.662  0.00  0.00    -0.005 A 
ATOM     20  C   UNL A   1      45.657 -21.990 -41.742  0.00  0.00    +0.021 A 
ATOM     21  C   UNL A   1      46.155 -22.922 -42.667  0.00  0.00    -0.051 A 
ATOM     22  C   UNL A   1      47.364 -23.573 -42.380  0.00  0.00    -0.061 A 
ATOM     23  C   UNL A   1      48.067 -23.302 -41.204  0.00  0.00    -0.058 A 
ATOM     24  C   UNL A   1      47.588 -22.375 -40.272  0.00  0.00    -0.019 A 
ATOM     25  C   UNL A   1      46.384 -21.749 -40.583  0.00  0.00    +0.136 A 
ATOM     26  O   UNL A   1      45.752 -20.822 -39.811  0.00  0.00    -0.452 OA
ENDBRANCH  17  18
ENDBRANCH   1  17
TORSDOF 5
ENDMDL
MODEL 11
REMARK VINA RESULT:    -7.852     17.351     20.149
REMARK INTER + INTRA:         -10.230
REMARK INTER:                  -9.569
REMARK INTRA:                  -0.661
REMARK UNBOUND:                -0.083
REMARK  Name = cpd137.pdb
REMARK  5 active torsions:
REMARK  status: ('A' for Active; 'I' for Inactive)
REMARK    1  A    between atoms: C_2  and  C_3
REMARK    2  A    between atoms: C_2  and  C_18
REMARK    3  A    between atoms: C_4  and  C_5
REMARK    4  A    between atoms: N_8  and  C_9
REMARK    5  A    between atoms: C_9  and  C_10
REMARK                            x       y       z     vdW  Elec       q    Type
REMARK                         _______ _______ _______ _____ _____    ______ ____
ROOT
ATOM      1  C   UNL A   1      43.643 -19.668 -37.499  0.00  0.00    -0.011 C 
ATOM      2  C   UNL A   1      43.861 -20.262 -36.315  0.00  0.00    -0.051 C 
ENDROOT
BRANCH   2   3
ATOM      3  C   UNL A   1      42.803 -20.669 -35.380  0.00  0.00    -0.022 A 
ATOM      4  C   UNL A   1      41.616 -21.274 -35.793  0.00  0.00    -0.038 A 
ATOM      5  C   UNL A   1      40.639 -21.596 -34.856  0.00  0.00    +0.005 A 
ATOM      6  N   UNL A   1      40.823 -21.322 -33.543  0.00  0.00    -0.349 N 
ATOM      7  C   UNL A   1      41.958 -20.721 -33.120  0.00  0.00    +0.005 A 
ATOM      8  C   UNL A   1      42.960 -20.382 -34.024  0.00  0.00    -0.038 A 
BRANCH   6   9
ATOM      9  C   UNL A   1      39.753 -21.652 -32.566  0.00  0.00    +0.048 C 
BRANCH   9  10
ATOM     10  C   UNL A   1      38.589 -20.701 -32.670  0.00  0.00    -0.028 A 
ATOM     11  C   UNL A   1      37.275 -21.168 -32.837  0.00  0.00    -0.057 A 
ATOM     12  C   UNL A   1      36.209 -20.270 -32.911  0.00  0.00    -0.061 A 
ATOM     13  C   UNL A   1      36.439 -18.901 -32.807  0.00  0.00    -0.062 A 
ATOM     14  C   UNL A   1      37.735 -18.425 -32.625  0.00  0.00    -0.061 A 
ATOM     15  C   UNL A   1      38.805 -19.318 -32.554  0.00  0.00    -0.057 A 
ENDBRANCH   9  10
ENDBRANCH   6   9
ENDBRANCH   2   3
BRANCH   1  17
ATOM     16  O   UNL A   1      44.938 -18.078 -38.580  0.00  0.00    -0.284 OA
ATOM     17  C   UNL A   1      44.696 -19.283 -38.494  0.00  0.00    +0.221 C 
BRANCH  17  18
ATOM     18  C   UNL A   1      45.384 -20.274 -39.296  0.00  0.00    +0.176 A 
ATOM     19  C   UNL A   1      46.506 -21.031 -39.002  0.00  0.00    -0.005 A 
ATOM     20  C   UNL A   1      46.751 -21.868 -40.120  0.00  0.00    +0.021 A 
ATOM     21  C   UNL A   1      47.709 -22.838 -40.459  0.00  0.00    -0.051 A 
ATOM     22  C   UNL A   1      47.606 -23.477 -41.704  0.00  0.00    -0.061 A 
ATOM     23  C   UNL A   1      46.573 -23.165 -42.591  0.00  0.00    -0.058 A 
ATOM     24  C   UNL A   1      45.609 -22.203 -42.270  0.00  0.00    -0.019 A 
ATOM     25  C   UNL A   1      45.740 -21.585 -41.029  0.00  0.00    +0.136 A 
ATOM     26  O   UNL A   1      44.911 -20.626 -40.532  0.00  0.00    -0.452 OA
ENDBRANCH  17  18
ENDBRANCH   1  17
TORSDOF 5
ENDMDL
MODEL 12
REMARK VINA RESULT:    -7.736      6.873     11.145
REMARK INTER + INTRA:         -10.079
REMARK INTER:                  -9.351
REMARK INTRA:                  -0.729
REMARK UNBOUND:                -0.083
REMARK  Name = cpd137.pdb
REMARK  5 active torsions:
REMARK  status: ('A' for Active; 'I' for Inactive)
REMARK    1  A    between atoms: C_2  and  C_3
REMARK    2  A    between atoms: C_2  and  C_18
REMARK    3  A    between atoms: C_4  and  C_5
REMARK    4  A    between atoms: N_8  and  C_9
REMARK    5  A    between atoms: C_9  and  C_10
REMARK                            x       y       z     vdW  Elec       q    Type
REMARK                         _______ _______ _______ _____ _____    ______ ____
ROOT
ATOM      1  C   UNL A   1      35.626 -39.366 -29.560  0.00  0.00    -0.011 C 
ATOM      2  C   UNL A   1      35.965 -40.279 -30.485  0.00  0.00    -0.051 C 
ENDROOT
BRANCH   2   3
ATOM      3  C   UNL A   1      35.004 -41.027 -31.307  0.00  0.00    -0.022 A 
ATOM      4  C   UNL A   1      35.147 -41.188 -32.685  0.00  0.00    -0.038 A 
ATOM      5  C   UNL A   1      34.176 -41.875 -33.408  0.00  0.00    +0.005 A 
ATOM      6  N   UNL A   1      33.086 -42.386 -32.789  0.00  0.00    -0.349 N 
ATOM      7  C   UNL A   1      32.917 -42.229 -31.456  0.00  0.00    +0.005 A 
ATOM      8  C   UNL A   1      33.863 -41.549 -30.697  0.00  0.00    -0.038 A 
BRANCH   6   9
ATOM      9  C   UNL A   1      32.051 -43.092 -33.588  0.00  0.00    +0.048 C 
BRANCH   9  10
ATOM     10  C   UNL A   1      32.641 -44.214 -34.401  0.00  0.00    -0.028 A 
ATOM     11  C   UNL A   1      33.187 -45.353 -33.788  0.00  0.00    -0.057 A 
ATOM     12  C   UNL A   1      33.711 -46.390 -34.561  0.00  0.00    -0.061 A 
ATOM     13  C   UNL A   1      33.686 -46.309 -35.951  0.00  0.00    -0.062 A 
ATOM     14  C   UNL A   1      33.133 -45.192 -36.572  0.00  0.00    -0.061 A 
ATOM     15  C   UNL A   1      32.611 -44.151 -35.804  0.00  0.00    -0.057 A 
ENDBRANCH   9  10
ENDBRANCH   6   9
ENDBRANCH   2   3
BRANCH   1  17
ATOM     16  O   UNL A   1      36.319 -38.471 -27.538  0.00  0.00    -0.284 OA
ATOM     17  C   UNL A   1      36.581 -38.554 -28.739  0.00  0.00    +0.221 C 
BRANCH  17  18
ATOM     18  C   UNL A   1      37.740 -37.915 -29.328  0.00  0.00    +0.176 A 
ATOM     19  C   UNL A   1      39.083 -38.051 -29.018  0.00  0.00    -0.005 A 
ATOM     20  C   UNL A   1      39.806 -37.224 -29.915  0.00  0.00    +0.021 A 
ATOM     21  C   UNL A   1      41.159 -36.908 -30.123  0.00  0.00    -0.051 A 
ATOM     22  C   UNL A   1      41.489 -36.017 -31.155  0.00  0.00    -0.061 A 
ATOM     23  C   UNL A   1      40.500 -35.454 -31.966  0.00  0.00    -0.058 A 
ATOM     24  C   UNL A   1      39.148 -35.758 -31.774  0.00  0.00    -0.019 A 
ATOM     25  C   UNL A   1      38.852 -36.642 -30.740  0.00  0.00    +0.136 A 
ATOM     26  O   UNL A   1      37.605 -37.062 -30.391  0.00  0.00    -0.452 OA
ENDBRANCH  17  18
ENDBRANCH   1  17
TORSDOF 5
ENDMDL
MODEL 13
REMARK VINA RESULT:    -7.589      5.970      9.605
REMARK INTER + INTRA:          -9.890
REMARK INTER:                  -9.390
REMARK INTRA:                  -0.500
REMARK UNBOUND:                -0.083
REMARK  Name = cpd137.pdb
REMARK  5 active torsions:
REMARK  status: ('A' for Active; 'I' for Inactive)
REMARK    1  A    between atoms: C_2  and  C_3
REMARK    2  A    between atoms: C_2  and  C_18
REMARK    3  A    between atoms: C_4  and  C_5
REMARK    4  A    between atoms: N_8  and  C_9
REMARK    5  A    between atoms: C_9  and  C_10
REMARK                            x       y       z     vdW  Elec       q    Type
REMARK                         _______ _______ _______ _____ _____    ______ ____
ROOT
ATOM      1  C   UNL A   1      34.141 -40.168 -27.552  0.00  0.00    -0.011 C 
ATOM      2  C   UNL A   1      35.390 -40.239 -28.038  0.00  0.00    -0.051 C 
ENDROOT
BRANCH   2   3
ATOM      3  C   UNL A   1      36.077 -39.143 -28.733  0.00  0.00    -0.022 A 
ATOM      4  C   UNL A   1      36.714 -38.098 -28.062  0.00  0.00    -0.038 A 
ATOM      5  C   UNL A   1      37.310 -37.070 -28.786  0.00  0.00    +0.005 A 
ATOM      6  N   UNL A   1      37.275 -37.067 -30.139  0.00  0.00    -0.349 N 
ATOM      7  C   UNL A   1      36.650 -38.059 -30.812  0.00  0.00    +0.005 A 
ATOM      8  C   UNL A   1      36.041 -39.106 -30.127  0.00  0.00    -0.038 A 
BRANCH   6   9
ATOM      9  C   UNL A   1      37.897 -35.943 -30.887  0.00  0.00    +0.048 C 
BRANCH   9  10
ATOM     10  C   UNL A   1      39.239 -36.323 -31.455  0.00  0.00    -0.028 A 
ATOM     11  C   UNL A   1      39.672 -35.835 -32.698  0.00  0.00    -0.057 A 
ATOM     12  C   UNL A   1      40.928 -36.184 -33.197  0.00  0.00    -0.061 A 
ATOM     13  C   UNL A   1      41.770 -37.012 -32.458  0.00  0.00    -0.062 A 
ATOM     14  C   UNL A   1      41.359 -37.490 -31.216  0.00  0.00    -0.061 A 
ATOM     15  C   UNL A   1      40.102 -37.147 -30.714  0.00  0.00    -0.057 A 
ENDBRANCH   9  10
ENDBRANCH   6   9
ENDBRANCH   2   3
BRANCH   1  17
ATOM     16  O   UNL A   1      32.950 -42.156 -27.485  0.00  0.00    -0.284 OA
ATOM     17  C   UNL A   1      33.429 -41.250 -26.799  0.00  0.00    +0.221 C 
BRANCH  17  18
ATOM     18  C   UNL A   1      33.321 -41.229 -25.354  0.00  0.00    +0.176 A 
ATOM     19  C   UNL A   1      32.197 -41.167 -24.549  0.00  0.00    -0.005 A 
ATOM     20  C   UNL A   1      32.643 -41.201 -23.203  0.00  0.00    +0.021 A 
ATOM     21  C   UNL A   1      32.032 -41.163 -21.939  0.00  0.00    -0.051 A 
ATOM     22  C   UNL A   1      32.844 -41.228 -20.797  0.00  0.00    -0.061 A 
ATOM     23  C   UNL A   1      34.233 -41.333 -20.906  0.00  0.00    -0.058 A 
ATOM     24  C   UNL A   1      34.860 -41.374 -22.157  0.00  0.00    -0.019 A 
ATOM     25  C   UNL A   1      34.027 -41.304 -23.270  0.00  0.00    +0.136 A 
ATOM     26  O   UNL A   1      34.438 -41.326 -24.568  0.00  0.00    -0.452 OA
ENDBRANCH  17  18
ENDBRANCH   1  17
TORSDOF 5
ENDMDL
MODEL 14
REMARK VINA RESULT:    -7.584     17.649     19.747
REMARK INTER + INTRA:          -9.884
REMARK INTER:                  -9.181
REMARK INTRA:                  -0.703
REMARK UNBOUND:                -0.083
REMARK  Name = cpd137.pdb
REMARK  5 active torsions:
REMARK  status: ('A' for Active; 'I' for Inactive)
REMARK    1  A    between atoms: C_2  and  C_3
REMARK    2  A    between atoms: C_2  and  C_18
REMARK    3  A    between atoms: C_4  and  C_5
REMARK    4  A    between atoms: N_8  and  C_9
REMARK    5  A    between atoms: C_9  and  C_10
REMARK                            x       y       z     vdW  Elec       q    Type
REMARK                         _______ _______ _______ _____ _____    ______ ____
ROOT
ATOM      1  C   UNL A   1      45.062 -18.575 -34.724  0.00  0.00    -0.011 C 
ATOM      2  C   UNL A   1      44.391 -18.850 -35.854  0.00  0.00    -0.051 C 
ENDROOT
BRANCH   2   3
ATOM      3  C   UNL A   1      45.009 -18.973 -37.180  0.00  0.00    -0.022 A 
ATOM      4  C   UNL A   1      46.367 -19.235 -37.364  0.00  0.00    -0.038 A 
ATOM      5  C   UNL A   1      46.894 -19.299 -38.651  0.00  0.00    +0.005 A 
ATOM      6  N   UNL A   1      46.103 -19.103 -39.732  0.00  0.00    -0.349 N 
ATOM      7  C   UNL A   1      44.787 -18.832 -39.579  0.00  0.00    +0.005 A 
ATOM      8  C   UNL A   1      44.220 -18.759 -38.311  0.00  0.00    -0.038 A 
BRANCH   6   9
ATOM      9  C   UNL A   1      46.696 -19.150 -41.094  0.00  0.00    +0.048 C 
BRANCH   9  10
ATOM     10  C   UNL A   1      46.720 -20.552 -41.645  0.00  0.00    -0.028 A 
ATOM     11  C   UNL A   1      47.876 -21.346 -41.571  0.00  0.00    -0.057 A 
ATOM     12  C   UNL A   1      47.871 -22.649 -42.071  0.00  0.00    -0.061 A 
ATOM     13  C   UNL A   1      46.714 -23.178 -42.637  0.00  0.00    -0.062 A 
ATOM     14  C   UNL A   1      45.557 -22.406 -42.702  0.00  0.00    -0.061 A 
ATOM     15  C   UNL A   1      45.557 -21.101 -42.207  0.00  0.00    -0.057 A 
ENDBRANCH   9  10
ENDBRANCH   6   9
ENDBRANCH   2   3
BRANCH   1  17
ATOM     16  O   UNL A   1      45.211 -18.044 -32.472  0.00  0.00    -0.284 OA
ATOM     17  C   UNL A   1      44.469 -18.488 -33.350  0.00  0.00    +0.221 C 
BRANCH  17  18
ATOM     18  C   UNL A   1      43.105 -18.896 -33.082  0.00  0.00    +0.176 A 
ATOM     19  C   UNL A   1      41.962 -18.129 -32.931  0.00  0.00    -0.005 A 
ATOM     20  C   UNL A   1      40.883 -19.023 -32.710  0.00  0.00    +0.021 A 
ATOM     21  C   UNL A   1      39.503 -18.897 -32.480  0.00  0.00    -0.051 A 
ATOM     22  C   UNL A   1      38.742 -20.063 -32.309  0.00  0.00    -0.061 A 
ATOM     23  C   UNL A   1      39.335 -21.327 -32.369  0.00  0.00    -0.058 A 
ATOM     24  C   UNL A   1      40.707 -21.472 -32.598  0.00  0.00    -0.019 A 
ATOM     25  C   UNL A   1      41.436 -20.296 -32.761  0.00  0.00    +0.136 A 
ATOM     26  O   UNL A   1      42.776 -20.222 -32.990  0.00  0.00    -0.452 OA
ENDBRANCH  17  18
ENDBRANCH   1  17
TORSDOF 5
ENDMDL
MODEL 15
REMARK VINA RESULT:    -7.490      7.659     10.363
REMARK INTER + INTRA:          -9.762
REMARK INTER:                  -9.105
REMARK INTRA:                  -0.657
REMARK UNBOUND:                -0.083
REMARK  Name = cpd137.pdb
REMARK  5 active torsions:
REMARK  status: ('A' for Active; 'I' for Inactive)
REMARK    1  A    between atoms: C_2  and  C_3
REMARK    2  A    between atoms: C_2  and  C_18
REMARK    3  A    between atoms: C_4  and  C_5
REMARK    4  A    between atoms: N_8  and  C_9
REMARK    5  A    between atoms: C_9  and  C_10
REMARK                            x       y       z     vdW  Elec       q    Type
REMARK                         _______ _______ _______ _____ _____    ______ ____
ROOT
ATOM      1  C   UNL A   1      34.219 -41.240 -33.722  0.00  0.00    -0.011 C 
ATOM      2  C   UNL A   1      33.759 -40.912 -32.504  0.00  0.00    -0.051 C 
ENDROOT
BRANCH   2   3
ATOM      3  C   UNL A   1      34.491 -40.089 -31.532  0.00  0.00    -0.022 A 
ATOM      4  C   UNL A   1      34.263 -38.722 -31.369  0.00  0.00    -0.038 A 
ATOM      5  C   UNL A   1      35.022 -37.996 -30.457  0.00  0.00    +0.005 A 
ATOM      6  N   UNL A   1      35.989 -38.600 -29.726  0.00  0.00    -0.349 N 
ATOM      7  C   UNL A   1      36.241 -39.919 -29.878  0.00  0.00    +0.005 A 
ATOM      8  C   UNL A   1      35.505 -40.682 -30.779  0.00  0.00    -0.038 A 
BRANCH   6   9
ATOM      9  C   UNL A   1      36.804 -37.795 -28.779  0.00  0.00    +0.048 C 
BRANCH   9  10
ATOM     10  C   UNL A   1      38.211 -37.599 -29.278  0.00  0.00    -0.028 A 
ATOM     11  C   UNL A   1      39.296 -38.271 -28.690  0.00  0.00    -0.057 A 
ATOM     12  C   UNL A   1      40.590 -38.090 -29.181  0.00  0.00    -0.061 A 
ATOM     13  C   UNL A   1      40.815 -37.250 -30.269  0.00  0.00    -0.062 A 
ATOM     14  C   UNL A   1      39.747 -36.590 -30.870  0.00  0.00    -0.061 A 
ATOM     15  C   UNL A   1      38.451 -36.765 -30.382  0.00  0.00    -0.057 A 
ENDBRANCH   9  10
ENDBRANCH   6   9
ENDBRANCH   2   3
BRANCH   1  17
ATOM     16  O   UNL A   1      32.688 -41.406 -35.455  0.00  0.00    -0.284 OA
ATOM     17  C   UNL A   1      33.479 -42.038 -34.753  0.00  0.00    +0.221 C 
BRANCH  17  18
ATOM     18  C   UNL A   1      33.694 -43.462 -34.912  0.00  0.00    +0.176 A 
ATOM     19  C   UNL A   1      34.479 -44.145 -35.824  0.00  0.00    -0.005 A 
ATOM     20  C   UNL A   1      34.357 -45.528 -35.530  0.00  0.00    +0.021 A 
ATOM     21  C   UNL A   1      34.872 -46.719 -36.066  0.00  0.00    -0.051 A 
ATOM     22  C   UNL A   1      34.510 -47.936 -35.469  0.00  0.00    -0.061 A 
ATOM     23  C   UNL A   1      33.658 -47.970 -34.362  0.00  0.00    -0.058 A 
ATOM     24  C   UNL A   1      33.137 -46.793 -33.814  0.00  0.00    -0.019 A 
ATOM     25  C   UNL A   1      33.513 -45.603 -34.430  0.00  0.00    +0.136 A 
ATOM     26  O   UNL A   1      33.114 -44.357 -34.052  0.00  0.00    -0.452 OA
ENDBRANCH  17  18
ENDBRANCH   1  17
TORSDOF 5
ENDMDL
MODEL 16
REMARK VINA RESULT:    -7.487      6.431     11.568
REMARK INTER + INTRA:          -9.758
REMARK INTER:                  -9.110
REMARK INTRA:                  -0.647
REMARK UNBOUND:                -0.083
REMARK  Name = cpd137.pdb
REMARK  5 active torsions:
REMARK  status: ('A' for Active; 'I' for Inactive)
REMARK    1  A    between atoms: C_2  and  C_3
REMARK    2  A    between atoms: C_2  and  C_18
REMARK    3  A    between atoms: C_4  and  C_5
REMARK    4  A    between atoms: N_8  and  C_9
REMARK    5  A    between atoms: C_9  and  C_10
REMARK                            x       y       z     vdW  Elec       q    Type
REMARK                         _______ _______ _______ _____ _____    ______ ____
ROOT
ATOM      1  C   UNL A   1      35.562 -39.082 -29.902  0.00  0.00    -0.011 C 
ATOM      2  C   UNL A   1      35.748 -40.087 -30.772  0.00  0.00    -0.051 C 
ENDROOT
BRANCH   2   3
ATOM      3  C   UNL A   1      34.714 -40.604 -31.679  0.00  0.00    -0.022 A 
ATOM      4  C   UNL A   1      33.350 -40.404 -31.470  0.00  0.00    -0.038 A 
ATOM      5  C   UNL A   1      32.424 -40.957 -32.349  0.00  0.00    +0.005 A 
ATOM      6  N   UNL A   1      32.832 -41.697 -33.407  0.00  0.00    -0.349 N 
ATOM      7  C   UNL A   1      34.148 -41.919 -33.622  0.00  0.00    +0.005 A 
ATOM      8  C   UNL A   1      35.106 -41.384 -32.767  0.00  0.00    -0.038 A 
BRANCH   6   9
ATOM      9  C   UNL A   1      31.822 -42.299 -34.315  0.00  0.00    +0.048 C 
BRANCH   9  10
ATOM     10  C   UNL A   1      31.741 -41.565 -35.628  0.00  0.00    -0.028 A 
ATOM     11  C   UNL A   1      30.963 -40.404 -35.770  0.00  0.00    -0.057 A 
ATOM     12  C   UNL A   1      30.918 -39.727 -36.989  0.00  0.00    -0.061 A 
ATOM     13  C   UNL A   1      31.656 -40.192 -38.076  0.00  0.00    -0.062 A 
ATOM     14  C   UNL A   1      32.443 -41.333 -37.944  0.00  0.00    -0.061 A 
ATOM     15  C   UNL A   1      32.489 -42.016 -36.727  0.00  0.00    -0.057 A 
ENDBRANCH   9  10
ENDBRANCH   6   9
ENDBRANCH   2   3
BRANCH   1  17
ATOM     16  O   UNL A   1      36.413 -38.650 -27.789  0.00  0.00    -0.284 OA
ATOM     17  C   UNL A   1      36.606 -38.500 -28.997  0.00  0.00    +0.221 C 
BRANCH  17  18
ATOM     18  C   UNL A   1      37.770 -37.813 -29.519  0.00  0.00    +0.176 A 
ATOM     19  C   UNL A   1      39.110 -37.979 -29.214  0.00  0.00    -0.005 A 
ATOM     20  C   UNL A   1      39.840 -37.075 -30.028  0.00  0.00    +0.021 A 
ATOM     21  C   UNL A   1      41.194 -36.744 -30.198  0.00  0.00    -0.051 A 
ATOM     22  C   UNL A   1      41.532 -35.765 -31.144  0.00  0.00    -0.061 A 
ATOM     23  C   UNL A   1      40.549 -35.131 -31.908  0.00  0.00    -0.058 A 
ATOM     24  C   UNL A   1      39.196 -35.449 -31.753  0.00  0.00    -0.019 A 
ATOM     25  C   UNL A   1      38.892 -36.422 -30.805  0.00  0.00    +0.136 A 
ATOM     26  O   UNL A   1      37.642 -36.869 -30.503  0.00  0.00    -0.452 OA
ENDBRANCH  17  18
ENDBRANCH   1  17
TORSDOF 5
ENDMDL
MODEL 17
REMARK VINA RESULT:    -7.477     17.081     20.251
REMARK INTER + INTRA:          -9.745
REMARK INTER:                  -9.133
REMARK INTRA:                  -0.612
REMARK UNBOUND:                -0.083
REMARK  Name = cpd137.pdb
REMARK  5 active torsions:
REMARK  status: ('A' for Active; 'I' for Inactive)
REMARK    1  A    between atoms: C_2  and  C_3
REMARK    2  A    between atoms: C_2  and  C_18
REMARK    3  A    between atoms: C_4  and  C_5
REMARK    4  A    between atoms: N_8  and  C_9
REMARK    5  A    between atoms: C_9  and  C_10
REMARK                            x       y       z     vdW  Elec       q    Type
REMARK                         _______ _______ _______ _____ _____    ______ ____
ROOT
ATOM      1  C   UNL A   1      41.552 -21.262 -38.870  0.00  0.00    -0.011 C 
ATOM      2  C   UNL A   1      41.442 -22.287 -38.010  0.00  0.00    -0.051 C 
ENDROOT
BRANCH   2   3
ATOM      3  C   UNL A   1      40.885 -22.180 -36.655  0.00  0.00    -0.022 A 
ATOM      4  C   UNL A   1      39.728 -22.848 -36.253  0.00  0.00    -0.038 A 
ATOM      5  C   UNL A   1      39.235 -22.668 -34.964  0.00  0.00    +0.005 A 
ATOM      6  N   UNL A   1      39.863 -21.844 -34.093  0.00  0.00    -0.349 N 
ATOM      7  C   UNL A   1      40.976 -21.172 -34.463  0.00  0.00    +0.005 A 
ATOM      8  C   UNL A   1      41.503 -21.324 -35.742  0.00  0.00    -0.038 A 
BRANCH   6   9
ATOM      9  C   UNL A   1      39.300 -21.649 -32.731  0.00  0.00    +0.048 C 
BRANCH   9  10
ATOM     10  C   UNL A   1      38.213 -20.606 -32.719  0.00  0.00    -0.028 A 
ATOM     11  C   UNL A   1      36.855 -20.964 -32.737  0.00  0.00    -0.057 A 
ATOM     12  C   UNL A   1      35.864 -19.982 -32.705  0.00  0.00    -0.061 A 
ATOM     13  C   UNL A   1      36.214 -18.636 -32.644  0.00  0.00    -0.062 A 
ATOM     14  C   UNL A   1      37.557 -18.268 -32.610  0.00  0.00    -0.061 A 
ATOM     15  C   UNL A   1      38.552 -19.245 -32.645  0.00  0.00    -0.057 A 
ENDBRANCH   9  10
ENDBRANCH   6   9
ENDBRANCH   2   3
BRANCH   1  17
ATOM     16  O   UNL A   1      41.298 -21.828 -41.104  0.00  0.00    -0.284 OA
ATOM     17  C   UNL A   1      42.072 -21.347 -40.274  0.00  0.00    +0.221 C 
BRANCH  17  18
ATOM     18  C   UNL A   1      43.398 -20.883 -40.624  0.00  0.00    +0.176 A 
ATOM     19  C   UNL A   1      43.905 -19.595 -40.673  0.00  0.00    -0.005 A 
ATOM     20  C   UNL A   1      45.269 -19.695 -41.048  0.00  0.00    +0.021 A 
ATOM     21  C   UNL A   1      46.318 -18.790 -41.279  0.00  0.00    -0.051 A 
ATOM     22  C   UNL A   1      47.575 -19.296 -41.640  0.00  0.00    -0.061 A 
ATOM     23  C   UNL A   1      47.789 -20.671 -41.767  0.00  0.00    -0.058 A 
ATOM     24  C   UNL A   1      46.757 -21.588 -41.539  0.00  0.00    -0.019 A 
ATOM     25  C   UNL A   1      45.521 -21.054 -41.185  0.00  0.00    +0.136 A 
ATOM     26  O   UNL A   1      44.395 -21.773 -40.925  0.00  0.00    -0.452 OA
ENDBRANCH  17  18
ENDBRANCH   1  17
TORSDOF 5
ENDMDL
MODEL 18
REMARK VINA RESULT:    -7.349      8.029     15.642
REMARK INTER + INTRA:          -9.580
REMARK INTER:                  -8.972
REMARK INTRA:                  -0.608
REMARK UNBOUND:                -0.083
REMARK  Name = cpd137.pdb
REMARK  5 active torsions:
REMARK  status: ('A' for Active; 'I' for Inactive)
REMARK    1  A    between atoms: C_2  and  C_3
REMARK    2  A    between atoms: C_2  and  C_18
REMARK    3  A    between atoms: C_4  and  C_5
REMARK    4  A    between atoms: N_8  and  C_9
REMARK    5  A    between atoms: C_9  and  C_10
REMARK                            x       y       z     vdW  Elec       q    Type
REMARK                         _______ _______ _______ _____ _____    ______ ____
ROOT
ATOM      1  C   UNL A   1      32.778 -32.620 -30.472  0.00  0.00    -0.011 C 
ATOM      2  C   UNL A   1      32.123 -31.472 -30.702  0.00  0.00    -0.051 C 
ENDROOT
BRANCH   2   3
ATOM      3  C   UNL A   1      30.804 -31.141 -30.147  0.00  0.00    -0.022 A 
ATOM      4  C   UNL A   1      30.098 -29.990 -30.499  0.00  0.00    -0.038 A 
ATOM      5  C   UNL A   1      28.870 -29.719 -29.903  0.00  0.00    +0.005 A 
ATOM      6  N   UNL A   1      28.352 -30.558 -28.976  0.00  0.00    -0.349 N 
ATOM      7  C   UNL A   1      29.024 -31.671 -28.606  0.00  0.00    +0.005 A 
ATOM      8  C   UNL A   1      30.254 -31.979 -29.177  0.00  0.00    -0.038 A 
BRANCH   6   9
ATOM      9  C   UNL A   1      27.052 -30.231 -28.335  0.00  0.00    +0.048 C 
BRANCH   9  10
ATOM     10  C   UNL A   1      27.236 -29.430 -27.073  0.00  0.00    -0.028 A 
ATOM     11  C   UNL A   1      27.342 -28.030 -27.104  0.00  0.00    -0.057 A 
ATOM     12  C   UNL A   1      27.492 -27.305 -25.921  0.00  0.00    -0.061 A 
ATOM     13  C   UNL A   1      27.527 -27.965 -24.695  0.00  0.00    -0.062 A 
ATOM     14  C   UNL A   1      27.408 -29.351 -24.649  0.00  0.00    -0.061 A 
ATOM     15  C   UNL A   1      27.260 -30.081 -25.829  0.00  0.00    -0.057 A 
ENDBRANCH   9  10
ENDBRANCH   6   9
ENDBRANCH   2   3
BRANCH   1  17
ATOM     16  O   UNL A   1      34.558 -32.282 -31.918  0.00  0.00    -0.284 OA
ATOM     17  C   UNL A   1      34.143 -32.970 -30.984  0.00  0.00    +0.221 C 
BRANCH  17  18
ATOM     18  C   UNL A   1      34.921 -34.047 -30.406  0.00  0.00    +0.176 A 
ATOM     19  C   UNL A   1      34.638 -34.866 -29.326  0.00  0.00    -0.005 A 
ATOM     20  C   UNL A   1      35.719 -35.775 -29.195  0.00  0.00    +0.021 A 
ATOM     21  C   UNL A   1      36.049 -36.827 -28.325  0.00  0.00    -0.051 A 
ATOM     22  C   UNL A   1      37.252 -37.518 -28.533  0.00  0.00    -0.061 A 
ATOM     23  C   UNL A   1      38.107 -37.178 -29.585  0.00  0.00    -0.058 A 
ATOM     24  C   UNL A   1      37.793 -36.135 -30.463  0.00  0.00    -0.019 A 
ATOM     25  C   UNL A   1      36.596 -35.466 -30.227  0.00  0.00    +0.136 A 
ATOM     26  O   UNL A   1      36.113 -34.426 -30.963  0.00  0.00    -0.452 OA
ENDBRANCH  17  18
ENDBRANCH   1  17
TORSDOF 5
ENDMDL
MODEL 19
REMARK VINA RESULT:    -7.295     16.802     20.309
REMARK INTER + INTRA:          -9.510
REMARK INTER:                  -8.836
REMARK INTRA:                  -0.674
REMARK UNBOUND:                -0.083
REMARK  Name = cpd137.pdb
REMARK  5 active torsions:
REMARK  status: ('A' for Active; 'I' for Inactive)
REMARK    1  A    between atoms: C_2  and  C_3
REMARK    2  A    between atoms: C_2  and  C_18
REMARK    3  A    between atoms: C_4  and  C_5
REMARK    4  A    between atoms: N_8  and  C_9
REMARK    5  A    between atoms: C_9  and  C_10
REMARK                            x       y       z     vdW  Elec       q    Type
REMARK                         _______ _______ _______ _____ _____    ______ ____
ROOT
ATOM      1  C   UNL A   1      43.462 -19.263 -39.088  0.00  0.00    -0.011 C 
ATOM      2  C   UNL A   1      43.954 -19.334 -37.841  0.00  0.00    -0.051 C 
ENDROOT
BRANCH   2   3
ATOM      3  C   UNL A   1      43.133 -19.449 -36.628  0.00  0.00    -0.022 A 
ATOM      4  C   UNL A   1      41.856 -18.899 -36.519  0.00  0.00    -0.038 A 
ATOM      5  C   UNL A   1      41.151 -19.013 -35.324  0.00  0.00    +0.005 A 
ATOM      6  N   UNL A   1      41.694 -19.647 -34.259  0.00  0.00    -0.349 N 
ATOM      7  C   UNL A   1      42.937 -20.173 -34.334  0.00  0.00    +0.005 A 
ATOM      8  C   UNL A   1      43.676 -20.082 -35.509  0.00  0.00    -0.038 A 
BRANCH   6   9
ATOM      9  C   UNL A   1      40.931 -19.730 -32.986  0.00  0.00    +0.048 C 
BRANCH   9  10
ATOM     10  C   UNL A   1      39.781 -20.698 -33.086  0.00  0.00    -0.028 A 
ATOM     11  C   UNL A   1      39.983 -22.035 -33.465  0.00  0.00    -0.057 A 
ATOM     12  C   UNL A   1      38.906 -22.921 -33.532  0.00  0.00    -0.061 A 
ATOM     13  C   UNL A   1      37.623 -22.489 -33.210  0.00  0.00    -0.062 A 
ATOM     14  C   UNL A   1      37.412 -21.170 -32.817  0.00  0.00    -0.061 A 
ATOM     15  C   UNL A   1      38.484 -20.279 -32.752  0.00  0.00    -0.057 A 
ENDBRANCH   9  10
ENDBRANCH   6   9
ENDBRANCH   2   3
BRANCH   1  17
ATOM     16  O   UNL A   1      44.037 -18.230 -41.082  0.00  0.00    -0.284 OA
ATOM     17  C   UNL A   1      44.271 -19.192 -40.347  0.00  0.00    +0.221 C 
BRANCH  17  18
ATOM     18  C   UNL A   1      45.268 -20.192 -40.670  0.00  0.00    +0.176 A 
ATOM     19  C   UNL A   1      46.522 -20.404 -40.124  0.00  0.00    -0.005 A 
ATOM     20  C   UNL A   1      47.080 -21.531 -40.780  0.00  0.00    +0.021 A 
ATOM     21  C   UNL A   1      48.290 -22.241 -40.705  0.00  0.00    -0.051 A 
ATOM     22  C   UNL A   1      48.471 -23.349 -41.547  0.00  0.00    -0.061 A 
ATOM     23  C   UNL A   1      47.473 -23.746 -42.440  0.00  0.00    -0.058 A 
ATOM     24  C   UNL A   1      46.261 -23.052 -42.527  0.00  0.00    -0.019 A 
ATOM     25  C   UNL A   1      46.113 -21.956 -41.681  0.00  0.00    +0.136 A 
ATOM     26  O   UNL A   1      45.016 -21.153 -41.614  0.00  0.00    -0.452 OA
ENDBRANCH  17  18
ENDBRANCH   1  17
TORSDOF 5
ENDMDL
MODEL 20
REMARK VINA RESULT:    -7.283     17.071     18.647
REMARK INTER + INTRA:          -9.494
REMARK INTER:                  -8.817
REMARK INTRA:                  -0.677
REMARK UNBOUND:                -0.083
REMARK  Name = cpd137.pdb
REMARK  5 active torsions:
REMARK  status: ('A' for Active; 'I' for Inactive)
REMARK    1  A    between atoms: C_2  and  C_3
REMARK    2  A    between atoms: C_2  and  C_18
REMARK    3  A    between atoms: C_4  and  C_5
REMARK    4  A    between atoms: N_8  and  C_9
REMARK    5  A    between atoms: C_9  and  C_10
REMARK                            x       y       z     vdW  Elec       q    Type
REMARK                         _______ _______ _______ _____ _____    ______ ____
ROOT
ATOM      1  C   UNL A   1      41.072 -21.780 -35.547  0.00  0.00    -0.011 C 
ATOM      2  C   UNL A   1      42.081 -20.914 -35.729  0.00  0.00    -0.051 C 
ENDROOT
BRANCH   2   3
ATOM      3  C   UNL A   1      42.777 -20.703 -37.006  0.00  0.00    -0.022 A 
ATOM      4  C   UNL A   1      42.514 -21.459 -38.148  0.00  0.00    -0.038 A 
ATOM      5  C   UNL A   1      43.240 -21.231 -39.314  0.00  0.00    +0.005 A 
ATOM      6  N   UNL A   1      44.208 -20.285 -39.351  0.00  0.00    -0.349 N 
ATOM      7  C   UNL A   1      44.493 -19.551 -38.252  0.00  0.00    +0.005 A 
ATOM      8  C   UNL A   1      43.791 -19.747 -37.067  0.00  0.00    -0.038 A 
BRANCH   6   9
ATOM      9  C   UNL A   1      44.987 -20.081 -40.600  0.00  0.00    +0.048 C 
BRANCH   9  10
ATOM     10  C   UNL A   1      45.918 -21.233 -40.873  0.00  0.00    -0.028 A 
ATOM     11  C   UNL A   1      46.905 -21.611 -39.948  0.00  0.00    -0.057 A 
ATOM     12  C   UNL A   1      47.745 -22.693 -40.212  0.00  0.00    -0.061 A 
ATOM     13  C   UNL A   1      47.603 -23.418 -41.392  0.00  0.00    -0.062 A 
ATOM     14  C   UNL A   1      46.618 -23.064 -42.311  0.00  0.00    -0.061 A 
ATOM     15  C   UNL A   1      45.778 -21.980 -42.054  0.00  0.00    -0.057 A 
ENDBRANCH   9  10
ENDBRANCH   6   9
ENDBRANCH   2   3
BRANCH   1  17
ATOM     16  O   UNL A   1      40.656 -22.954 -33.592  0.00  0.00    -0.284 OA
ATOM     17  C   UNL A   1      40.312 -21.985 -34.271  0.00  0.00    +0.221 C 
BRANCH  17  18
ATOM     18  C   UNL A   1      39.245 -21.092 -33.868  0.00  0.00    +0.176 A 
ATOM     19  C   UNL A   1      37.891 -21.338 -33.712  0.00  0.00    -0.005 A 
ATOM     20  C   UNL A   1      37.293 -20.129 -33.273  0.00  0.00    +0.021 A 
ATOM     21  C   UNL A   1      35.992 -19.710 -32.949  0.00  0.00    -0.051 A 
ATOM     22  C   UNL A   1      35.798 -18.385 -32.533  0.00  0.00    -0.061 A 
ATOM     23  C   UNL A   1      36.870 -17.495 -32.436  0.00  0.00    -0.058 A 
ATOM     24  C   UNL A   1      38.173 -17.894 -32.754  0.00  0.00    -0.019 A 
ATOM     25  C   UNL A   1      38.333 -19.214 -33.166  0.00  0.00    +0.136 A 
ATOM     26  O   UNL A   1      39.513 -19.794 -33.520  0.00  0.00    -0.452 OA
ENDBRANCH  17  18
ENDBRANCH   1  17
TORSDOF 5
ENDMDL
