REMARK  Name = cpd137.pdb
REMARK  5 active torsions:
REMARK  status: ('A' for Active; 'I' for Inactive)
REMARK    1  A    between atoms: C_2  and  C_3
REMARK    2  A    between atoms: C_2  and  C_18
REMARK    3  A    between atoms: C_4  and  C_5
REMARK    4  A    between atoms: N_8  and  C_9
REMARK    5  A    between atoms: C_9  and  C_10
REMARK                            x       y       z     vdW  Elec       q    Type
REMARK                         _______ _______ _______ _____ _____    ______ ____
ROOT
ATOM      1  C   UNL A   1      -1.449   1.535   0.394  0.00  0.00    -0.011 C 
ATOM      2  C   UNL A   1      -1.607   0.286  -0.072  0.00  0.00    -0.051 C 
ENDROOT
BRANCH   2   3
ATOM      3  C   UNL A   1      -2.866  -0.469  -0.019  0.00  0.00    -0.022 A 
ATOM      4  C   UNL A   1      -3.796  -0.325   1.011  0.00  0.00    -0.038 A 
ATOM      5  C   UNL A   1      -4.950  -1.103   1.018  0.00  0.00    +0.005 A 
ATOM      6  N   UNL A   1      -5.180  -2.007   0.037  0.00  0.00    -0.349 N 
ATOM      7  C   UNL A   1      -4.286  -2.177  -0.963  0.00  0.00    +0.005 A 
ATOM      8  C   UNL A   1      -3.120  -1.420  -1.008  0.00  0.00    -0.038 A 
BRANCH   6   9
ATOM      9  C   UNL A   1      -6.407  -2.844   0.083  0.00  0.00    +0.048 C 
BRANCH   9  10
ATOM     10  C   UNL A   1      -7.652  -2.024  -0.133  0.00  0.00    -0.028 A 
ATOM     11  C   UNL A   1      -7.779  -1.164  -1.236  0.00  0.00    -0.057 A 
ATOM     12  C   UNL A   1      -8.949  -0.428  -1.428  0.00  0.00    -0.061 A 
ATOM     13  C   UNL A   1     -10.008  -0.550  -0.532  0.00  0.00    -0.062 A 
ATOM     14  C   UNL A   1      -9.901  -1.411   0.557  0.00  0.00    -0.061 A 
ATOM     15  C   UNL A   1      -8.732  -2.147   0.756  0.00  0.00    -0.057 A 
ENDBRANCH   9  10
ENDBRANCH   6   9
ENDBRANCH   2   3
BRANCH   1  17
ATOM     16  O   UNL A   1      -0.344   3.572   0.332  0.00  0.00    -0.284 OA
ATOM     17  C   UNL A   1      -0.193   2.349   0.314  0.00  0.00    +0.221 C 
BRANCH  17  18
ATOM     18  C   UNL A   1       1.113   1.728   0.228  0.00  0.00    +0.176 A 
ATOM     19  C   UNL A   1       2.347   2.290  -0.052  0.00  0.00    -0.005 A 
ATOM     20  C   UNL A   1       3.307   1.248   0.015  0.00  0.00    +0.021 A 
ATOM     21  C   UNL A   1       4.696   1.147  -0.168  0.00  0.00    -0.051 A 
ATOM     22  C   UNL A   1       5.306  -0.105   0.000  0.00  0.00    -0.061 A 
ATOM     23  C   UNL A   1       4.556  -1.232   0.346  0.00  0.00    -0.058 A 
ATOM     24  C   UNL A   1       3.172  -1.150   0.534  0.00  0.00    -0.019 A 
ATOM     25  C   UNL A   1       2.596   0.105   0.357  0.00  0.00    +0.136 A 
ATOM     26  O   UNL A   1       1.272   0.393   0.491  0.00  0.00    -0.452 OA
ENDBRANCH  17  18
ENDBRANCH   1  17
TORSDOF 5
