MODEL 1
REMARK VINA RESULT:    -8.853      0.000      0.000
REMARK INTER + INTRA:          -8.853
REMARK INTER:                  -8.853
REMARK INTRA:                   0.000
REMARK UNBOUND:                 0.000
REMARK  Name = cpd275.pdb
REMARK  0 active torsions:
REMARK  status: ('A' for Active; 'I' for Inactive)
REMARK                            x       y       z     vdW  Elec       q    Type
REMARK                         _______ _______ _______ _____ _____    ______ ____
ROOT
ATOM      1 CL   UNL A   1      33.866 -35.871 -28.493  0.00  0.00    -0.083 Cl
ATOM      2  C   UNL A   1      35.476 -36.432 -28.720  0.00  0.00    +0.043 A 
ATOM      3  C   UNL A   1      36.051 -37.276 -27.782  0.00  0.00    -0.043 A 
ATOM      4  C   UNL A   1      37.357 -37.722 -27.980  0.00  0.00    -0.050 A 
ATOM      5  C   UNL A   1      38.103 -37.329 -29.122  0.00  0.00    +0.019 A 
ATOM      6  C   UNL A   1      39.433 -37.730 -29.406  0.00  0.00    +0.055 A 
ATOM      7 CL   UNL A   1      40.276 -38.767 -28.287  0.00  0.00    -0.083 Cl
ATOM      8  C   UNL A   1      40.097 -37.301 -30.567  0.00  0.00    -0.007 A 
ATOM      9  C   UNL A   1      39.396 -36.436 -31.404  0.00  0.00    +0.047 A 
ATOM     10  N   UNL A   1      38.123 -36.043 -31.160  0.00  0.00    -0.251 NA
ATOM     11  C   UNL A   1      37.496 -36.472 -30.058  0.00  0.00    +0.074 A 
ATOM     12  C   UNL A   1      36.196 -36.039 -29.844  0.00  0.00    -0.017 A 
ATOM     13  C   UNL A   1      39.994 -35.909 -32.684  0.00  0.00    -0.010 C 
ATOM     14  C   UNL A   1      41.517 -35.974 -32.702  0.00  0.00    -0.047 C 
ATOM     15  C   UNL A   1      41.976 -37.365 -32.293  0.00  0.00    -0.049 C 
ATOM     16  C   UNL A   1      41.526 -37.685 -30.867  0.00  0.00    -0.025 C 
ENDROOT
TORSDOF 0
ENDMDL
MODEL 2
REMARK VINA RESULT:    -8.417      1.944      2.705
REMARK INTER + INTRA:          -8.417
REMARK INTER:                  -8.417
REMARK INTRA:                   0.000
REMARK UNBOUND:                 0.000
REMARK  Name = cpd275.pdb
REMARK  0 active torsions:
REMARK  status: ('A' for Active; 'I' for Inactive)
REMARK                            x       y       z     vdW  Elec       q    Type
REMARK                         _______ _______ _______ _____ _____    ______ ____
ROOT
ATOM      1 CL   UNL A   1      34.762 -38.028 -26.595  0.00  0.00    -0.083 Cl
ATOM      2  C   UNL A   1      35.880 -37.468 -27.775  0.00  0.00    +0.043 A 
ATOM      3  C   UNL A   1      35.509 -36.462 -28.655  0.00  0.00    -0.043 A 
ATOM      4  C   UNL A   1      36.426 -36.020 -29.607  0.00  0.00    -0.050 A 
ATOM      5  C   UNL A   1      37.728 -36.579 -29.689  0.00  0.00    +0.019 A 
ATOM      6  C   UNL A   1      38.724 -36.195 -30.622  0.00  0.00    +0.055 A 
ATOM      7 CL   UNL A   1      38.369 -34.960 -31.800  0.00  0.00    -0.083 Cl
ATOM      8  C   UNL A   1      39.994 -36.796 -30.629  0.00  0.00    -0.007 A 
ATOM      9  C   UNL A   1      40.211 -37.809 -29.698  0.00  0.00    +0.047 A 
ATOM     10  N   UNL A   1      39.280 -38.190 -28.792  0.00  0.00    -0.251 NA
ATOM     11  C   UNL A   1      38.079 -37.599 -28.786  0.00  0.00    +0.074 A 
ATOM     12  C   UNL A   1      37.154 -38.026 -27.846  0.00  0.00    -0.017 A 
ATOM     13  C   UNL A   1      41.533 -38.527 -29.599  0.00  0.00    -0.010 C 
ATOM     14  C   UNL A   1      42.366 -38.424 -30.872  0.00  0.00    -0.047 C 
ATOM     15  C   UNL A   1      42.446 -36.971 -31.315  0.00  0.00    -0.049 C 
ATOM     16  C   UNL A   1      41.054 -36.427 -31.639  0.00  0.00    -0.025 C 
ENDROOT
TORSDOF 0
ENDMDL
MODEL 3
REMARK VINA RESULT:    -8.035      1.827      5.174
REMARK INTER + INTRA:          -8.035
REMARK INTER:                  -8.035
REMARK INTRA:                   0.000
REMARK UNBOUND:                 0.000
REMARK  Name = cpd275.pdb
REMARK  0 active torsions:
REMARK  status: ('A' for Active; 'I' for Inactive)
REMARK                            x       y       z     vdW  Elec       q    Type
REMARK                         _______ _______ _______ _____ _____    ______ ____
ROOT
ATOM      1 CL   UNL A   1      42.682 -37.186 -31.879  0.00  0.00    -0.083 Cl
ATOM      2  C   UNL A   1      41.185 -37.185 -31.031  0.00  0.00    +0.043 A 
ATOM      3  C   UNL A   1      40.997 -38.049 -29.962  0.00  0.00    -0.043 A 
ATOM      4  C   UNL A   1      39.779 -38.036 -29.286  0.00  0.00    -0.050 A 
ATOM      5  C   UNL A   1      38.732 -37.157 -29.671  0.00  0.00    +0.019 A 
ATOM      6  C   UNL A   1      37.463 -37.076 -29.045  0.00  0.00    +0.055 A 
ATOM      7 CL   UNL A   1      37.094 -38.131 -27.707  0.00  0.00    -0.083 Cl
ATOM      8  C   UNL A   1      36.485 -36.168 -29.485  0.00  0.00    -0.007 A 
ATOM      9  C   UNL A   1      36.812 -35.382 -30.586  0.00  0.00    +0.047 A 
ATOM     10  N   UNL A   1      38.019 -35.435 -31.198  0.00  0.00    -0.251 NA
ATOM     11  C   UNL A   1      38.949 -36.293 -30.759  0.00  0.00    +0.074 A 
ATOM     12  C   UNL A   1      40.167 -36.318 -31.420  0.00  0.00    -0.017 A 
ATOM     13  C   UNL A   1      35.853 -34.365 -31.151  0.00  0.00    -0.010 C 
ATOM     14  C   UNL A   1      34.402 -34.640 -30.773  0.00  0.00    -0.047 C 
ATOM     15  C   UNL A   1      34.298 -34.870 -29.273  0.00  0.00    -0.049 C 
ATOM     16  C   UNL A   1      35.114 -36.094 -28.857  0.00  0.00    -0.025 C 
ENDROOT
TORSDOF 0
ENDMDL
MODEL 4
REMARK VINA RESULT:    -7.862      1.893      5.828
REMARK INTER + INTRA:          -7.862
REMARK INTER:                  -7.862
REMARK INTRA:                   0.000
REMARK UNBOUND:                 0.000
REMARK  Name = cpd275.pdb
REMARK  0 active torsions:
REMARK  status: ('A' for Active; 'I' for Inactive)
REMARK                            x       y       z     vdW  Elec       q    Type
REMARK                         _______ _______ _______ _____ _____    ______ ____
ROOT
ATOM      1 CL   UNL A   1      43.247 -38.224 -30.790  0.00  0.00    -0.083 Cl
ATOM      2  C   UNL A   1      41.672 -37.534 -30.761  0.00  0.00    +0.043 A 
ATOM      3  C   UNL A   1      41.325 -36.566 -31.692  0.00  0.00    -0.043 A 
ATOM      4  C   UNL A   1      40.045 -36.016 -31.654  0.00  0.00    -0.050 A 
ATOM      5  C   UNL A   1      39.095 -36.429 -30.683  0.00  0.00    +0.019 A 
ATOM      6  C   UNL A   1      37.774 -35.925 -30.568  0.00  0.00    +0.055 A 
ATOM      7 CL   UNL A   1      37.228 -34.683 -31.662  0.00  0.00    -0.083 Cl
ATOM      8  C   UNL A   1      36.893 -36.397 -29.580  0.00  0.00    -0.007 A 
ATOM      9  C   UNL A   1      37.393 -37.354 -28.702  0.00  0.00    +0.047 A 
ATOM     10  N   UNL A   1      38.648 -37.857 -28.794  0.00  0.00    -0.251 NA
ATOM     11  C   UNL A   1      39.473 -37.410 -29.750  0.00  0.00    +0.074 A 
ATOM     12  C   UNL A   1      40.750 -37.947 -29.803  0.00  0.00    -0.017 A 
ATOM     13  C   UNL A   1      36.547 -37.945 -27.603  0.00  0.00    -0.010 C 
ATOM     14  C   UNL A   1      35.356 -37.069 -27.231  0.00  0.00    -0.047 C 
ATOM     15  C   UNL A   1      34.602 -36.668 -28.490  0.00  0.00    -0.049 C 
ATOM     16  C   UNL A   1      35.497 -35.846 -29.417  0.00  0.00    -0.025 C 
ENDROOT
TORSDOF 0
ENDMDL
MODEL 5
REMARK VINA RESULT:    -6.584      3.588      5.551
REMARK INTER + INTRA:          -6.584
REMARK INTER:                  -6.584
REMARK INTRA:                   0.000
REMARK UNBOUND:                 0.000
REMARK  Name = cpd275.pdb
REMARK  0 active torsions:
REMARK  status: ('A' for Active; 'I' for Inactive)
REMARK                            x       y       z     vdW  Elec       q    Type
REMARK                         _______ _______ _______ _____ _____    ______ ____
ROOT
ATOM      1 CL   UNL A   1      31.650 -31.174 -30.610  0.00  0.00    -0.083 Cl
ATOM      2  C   UNL A   1      33.007 -32.230 -30.576  0.00  0.00    +0.043 A 
ATOM      3  C   UNL A   1      34.065 -32.021 -31.448  0.00  0.00    -0.043 A 
ATOM      4  C   UNL A   1      35.158 -32.885 -31.409  0.00  0.00    -0.050 A 
ATOM      5  C   UNL A   1      35.205 -33.971 -30.495  0.00  0.00    +0.019 A 
ATOM      6  C   UNL A   1      36.271 -34.899 -30.385  0.00  0.00    +0.055 A 
ATOM      7 CL   UNL A   1      37.646 -34.761 -31.446  0.00  0.00    -0.083 Cl
ATOM      8  C   UNL A   1      36.241 -35.942 -29.444  0.00  0.00    -0.007 A 
ATOM      9  C   UNL A   1      35.099 -36.037 -28.653  0.00  0.00    +0.047 A 
ATOM     10  N   UNL A   1      34.071 -35.160 -28.732  0.00  0.00    -0.251 NA
ATOM     11  C   UNL A   1      34.118 -34.161 -29.623  0.00  0.00    +0.074 A 
ATOM     12  C   UNL A   1      33.040 -33.291 -29.675  0.00  0.00    -0.017 A 
ATOM     13  C   UNL A   1      34.947 -37.108 -27.602  0.00  0.00    -0.010 C 
ATOM     14  C   UNL A   1      35.853 -38.310 -27.839  0.00  0.00    -0.047 C 
ATOM     15  C   UNL A   1      37.278 -37.837 -28.085  0.00  0.00    -0.049 C 
ATOM     16  C   UNL A   1      37.348 -36.964 -29.338  0.00  0.00    -0.025 C 
ENDROOT
TORSDOF 0
ENDMDL
MODEL 6
REMARK VINA RESULT:    -6.386      2.553      3.904
REMARK INTER + INTRA:          -6.386
REMARK INTER:                  -6.386
REMARK INTRA:                   0.000
REMARK UNBOUND:                 0.000
REMARK  Name = cpd275.pdb
REMARK  0 active torsions:
REMARK  status: ('A' for Active; 'I' for Inactive)
REMARK                            x       y       z     vdW  Elec       q    Type
REMARK                         _______ _______ _______ _____ _____    ______ ____
ROOT
ATOM      1 CL   UNL A   1      32.185 -37.221 -25.507  0.00  0.00    -0.083 Cl
ATOM      2  C   UNL A   1      33.265 -36.777 -26.770  0.00  0.00    +0.043 A 
ATOM      3  C   UNL A   1      32.862 -35.865 -27.733  0.00  0.00    -0.043 A 
ATOM      4  C   UNL A   1      33.749 -35.516 -28.750  0.00  0.00    -0.050 A 
ATOM      5  C   UNL A   1      35.051 -36.077 -28.816  0.00  0.00    +0.019 A 
ATOM      6  C   UNL A   1      36.017 -35.783 -29.811  0.00  0.00    +0.055 A 
ATOM      7 CL   UNL A   1      35.621 -34.673 -31.095  0.00  0.00    -0.083 Cl
ATOM      8  C   UNL A   1      37.290 -36.378 -29.796  0.00  0.00    -0.007 A 
ATOM      9  C   UNL A   1      37.540 -37.293 -28.777  0.00  0.00    +0.047 A 
ATOM     10  N   UNL A   1      36.638 -37.586 -27.810  0.00  0.00    -0.251 NA
ATOM     11  C   UNL A   1      35.434 -37.000 -27.827  0.00  0.00    +0.074 A 
ATOM     12  C   UNL A   1      34.540 -37.335 -26.822  0.00  0.00    -0.017 A 
ATOM     13  C   UNL A   1      38.869 -37.995 -28.646  0.00  0.00    -0.010 C 
ATOM     14  C   UNL A   1      39.663 -38.015 -29.947  0.00  0.00    -0.047 C 
ATOM     15  C   UNL A   1      39.722 -36.613 -30.534  0.00  0.00    -0.049 C 
ATOM     16  C   UNL A   1      38.318 -36.109 -30.869  0.00  0.00    -0.025 C 
ENDROOT
TORSDOF 0
ENDMDL
MODEL 7
REMARK VINA RESULT:    -6.360      1.998      5.839
REMARK INTER + INTRA:          -6.360
REMARK INTER:                  -6.360
REMARK INTRA:                   0.000
REMARK UNBOUND:                 0.000
REMARK  Name = cpd275.pdb
REMARK  0 active torsions:
REMARK  status: ('A' for Active; 'I' for Inactive)
REMARK                            x       y       z     vdW  Elec       q    Type
REMARK                         _______ _______ _______ _____ _____    ______ ____
ROOT
ATOM      1 CL   UNL A   1      42.298 -36.142 -31.766  0.00  0.00    -0.083 Cl
ATOM      2  C   UNL A   1      40.612 -36.053 -31.441  0.00  0.00    +0.043 A 
ATOM      3  C   UNL A   1      39.844 -35.068 -32.043  0.00  0.00    -0.043 A 
ATOM      4  C   UNL A   1      38.478 -35.009 -31.769  0.00  0.00    -0.050 A 
ATOM      5  C   UNL A   1      37.864 -35.937 -30.889  0.00  0.00    +0.019 A 
ATOM      6  C   UNL A   1      36.487 -35.953 -30.551  0.00  0.00    +0.055 A 
ATOM      7 CL   UNL A   1      35.422 -34.747 -31.220  0.00  0.00    -0.083 Cl
ATOM      8  C   UNL A   1      35.958 -36.916 -29.675  0.00  0.00    -0.007 A 
ATOM      9  C   UNL A   1      36.859 -37.828 -29.131  0.00  0.00    +0.047 A 
ATOM     10  N   UNL A   1      38.177 -37.839 -29.442  0.00  0.00    -0.251 NA
ATOM     11  C   UNL A   1      38.666 -36.926 -30.290  0.00  0.00    +0.074 A 
ATOM     12  C   UNL A   1      40.022 -36.970 -30.575  0.00  0.00    -0.017 A 
ATOM     13  C   UNL A   1      36.416 -38.914 -28.183  0.00  0.00    -0.010 C 
ATOM     14  C   UNL A   1      35.085 -38.609 -27.505  0.00  0.00    -0.047 C 
ATOM     15  C   UNL A   1      34.060 -38.199 -28.551  0.00  0.00    -0.049 C 
ATOM     16  C   UNL A   1      34.503 -36.926 -29.272  0.00  0.00    -0.025 C 
ENDROOT
TORSDOF 0
ENDMDL
MODEL 8
REMARK VINA RESULT:    -6.080      4.238      5.450
REMARK INTER + INTRA:          -6.080
REMARK INTER:                  -6.080
REMARK INTRA:                   0.000
REMARK UNBOUND:                 0.000
REMARK  Name = cpd275.pdb
REMARK  0 active torsions:
REMARK  status: ('A' for Active; 'I' for Inactive)
REMARK                            x       y       z     vdW  Elec       q    Type
REMARK                         _______ _______ _______ _____ _____    ______ ____
ROOT
ATOM      1 CL   UNL A   1      34.152 -44.307 -27.431  0.00  0.00    -0.083 Cl
ATOM      2  C   UNL A   1      34.483 -42.883 -28.336  0.00  0.00    +0.043 A 
ATOM      3  C   UNL A   1      33.646 -42.517 -29.379  0.00  0.00    -0.043 A 
ATOM      4  C   UNL A   1      33.928 -41.360 -30.103  0.00  0.00    -0.050 A 
ATOM      5  C   UNL A   1      35.055 -40.554 -29.792  0.00  0.00    +0.019 A 
ATOM      6  C   UNL A   1      35.421 -39.366 -30.473  0.00  0.00    +0.055 A 
ATOM      7 CL   UNL A   1      34.463 -38.817 -31.822  0.00  0.00    -0.083 Cl
ATOM      8  C   UNL A   1      36.550 -38.621 -30.093  0.00  0.00    -0.007 A 
ATOM      9  C   UNL A   1      37.308 -39.127 -29.040  0.00  0.00    +0.047 A 
ATOM     10  N   UNL A   1      36.976 -40.256 -28.369  0.00  0.00    -0.251 NA
ATOM     11  C   UNL A   1      35.889 -40.948 -28.731  0.00  0.00    +0.074 A 
ATOM     12  C   UNL A   1      35.592 -42.101 -28.020  0.00  0.00    -0.017 A 
ATOM     13  C   UNL A   1      38.538 -38.419 -28.533  0.00  0.00    -0.010 C 
ATOM     14  C   UNL A   1      39.136 -37.458 -29.554  0.00  0.00    -0.047 C 
ATOM     15  C   UNL A   1      38.046 -36.553 -30.107  0.00  0.00    -0.049 C 
ATOM     16  C   UNL A   1      36.978 -37.374 -30.830  0.00  0.00    -0.025 C 
ENDROOT
TORSDOF 0
ENDMDL
MODEL 9
REMARK VINA RESULT:    -5.939      2.937      4.540
REMARK INTER + INTRA:          -5.939
REMARK INTER:                  -5.939
REMARK INTRA:                   0.000
REMARK UNBOUND:                 0.000
REMARK  Name = cpd275.pdb
REMARK  0 active torsions:
REMARK  status: ('A' for Active; 'I' for Inactive)
REMARK                            x       y       z     vdW  Elec       q    Type
REMARK                         _______ _______ _______ _____ _____    ______ ____
ROOT
ATOM      1 CL   UNL A   1      30.518 -32.691 -31.283  0.00  0.00    -0.083 Cl
ATOM      2  C   UNL A   1      31.770 -33.634 -30.577  0.00  0.00    +0.043 A 
ATOM      3  C   UNL A   1      31.573 -34.227 -29.339  0.00  0.00    -0.043 A 
ATOM      4  C   UNL A   1      32.599 -34.988 -28.780  0.00  0.00    -0.050 A 
ATOM      5  C   UNL A   1      33.835 -35.164 -29.454  0.00  0.00    +0.019 A 
ATOM      6  C   UNL A   1      34.932 -35.917 -28.963  0.00  0.00    +0.055 A 
ATOM      7 CL   UNL A   1      34.819 -36.687 -27.404  0.00  0.00    -0.083 Cl
ATOM      8  C   UNL A   1      36.120 -36.049 -29.702  0.00  0.00    -0.007 A 
ATOM      9  C   UNL A   1      36.178 -35.376 -30.919  0.00  0.00    +0.047 A 
ATOM     10  N   UNL A   1      35.142 -34.656 -31.414  0.00  0.00    -0.251 NA
ATOM     11  C   UNL A   1      34.010 -34.551 -30.707  0.00  0.00    +0.074 A 
ATOM     12  C   UNL A   1      32.979 -33.799 -31.249  0.00  0.00    -0.017 A 
ATOM     13  C   UNL A   1      37.393 -35.442 -31.808  0.00  0.00    -0.010 C 
ATOM     14  C   UNL A   1      38.660 -35.841 -31.059  0.00  0.00    -0.047 C 
ATOM     15  C   UNL A   1      38.392 -37.085 -30.227  0.00  0.00    -0.049 C 
ATOM     16  C   UNL A   1      37.313 -36.813 -29.179  0.00  0.00    -0.025 C 
ENDROOT
TORSDOF 0
ENDMDL
MODEL 10
REMARK VINA RESULT:    -5.894     36.626     37.756
REMARK INTER + INTRA:          -5.894
REMARK INTER:                  -5.894
REMARK INTRA:                   0.000
REMARK UNBOUND:                 0.000
REMARK  Name = cpd275.pdb
REMARK  0 active torsions:
REMARK  status: ('A' for Active; 'I' for Inactive)
REMARK                            x       y       z     vdW  Elec       q    Type
REMARK                         _______ _______ _______ _____ _____    ______ ____
ROOT
ATOM      1 CL   UNL A   1      65.674 -20.560  -2.341  0.00  0.00    -0.083 Cl
ATOM      2  C   UNL A   1      65.318 -21.735  -3.545  0.00  0.00    +0.043 A 
ATOM      3  C   UNL A   1      65.438 -23.084  -3.250  0.00  0.00    -0.043 A 
ATOM      4  C   UNL A   1      65.146 -24.024  -4.237  0.00  0.00    -0.050 A 
ATOM      5  C   UNL A   1      64.730 -23.623  -5.534  0.00  0.00    +0.019 A 
ATOM      6  C   UNL A   1      64.414 -24.505  -6.598  0.00  0.00    +0.055 A 
ATOM      7 CL   UNL A   1      64.555 -26.226  -6.361  0.00  0.00    -0.083 Cl
ATOM      8  C   UNL A   1      64.000 -24.024  -7.851  0.00  0.00    -0.007 A 
ATOM      9  C   UNL A   1      63.950 -22.641  -8.004  0.00  0.00    +0.047 A 
ATOM     10  N   UNL A   1      64.238 -21.777  -7.002  0.00  0.00    -0.251 NA
ATOM     11  C   UNL A   1      64.617 -22.249  -5.808  0.00  0.00    +0.074 A 
ATOM     12  C   UNL A   1      64.911 -21.328  -4.813  0.00  0.00    -0.017 A 
ATOM     13  C   UNL A   1      63.515 -21.999  -9.297  0.00  0.00    -0.010 C 
ATOM     14  C   UNL A   1      63.647 -22.928 -10.499  0.00  0.00    -0.047 C 
ATOM     15  C   UNL A   1      62.996 -24.266 -10.185  0.00  0.00    -0.049 C 
ATOM     16  C   UNL A   1      63.697 -24.945  -9.009  0.00  0.00    -0.025 C 
ENDROOT
TORSDOF 0
ENDMDL
MODEL 11
REMARK VINA RESULT:    -5.889     23.506     26.647
REMARK INTER + INTRA:          -5.889
REMARK INTER:                  -5.889
REMARK INTRA:                   0.000
REMARK UNBOUND:                 0.000
REMARK  Name = cpd275.pdb
REMARK  0 active torsions:
REMARK  status: ('A' for Active; 'I' for Inactive)
REMARK                            x       y       z     vdW  Elec       q    Type
REMARK                         _______ _______ _______ _____ _____    ______ ____
ROOT
ATOM      1 CL   UNL A   1      57.581 -33.631 -54.174  0.00  0.00    -0.083 Cl
ATOM      2  C   UNL A   1      56.872 -34.386 -52.801  0.00  0.00    +0.043 A 
ATOM      3  C   UNL A   1      56.210 -35.597 -52.944  0.00  0.00    -0.043 A 
ATOM      4  C   UNL A   1      55.641 -36.196 -51.822  0.00  0.00    -0.050 A 
ATOM      5  C   UNL A   1      55.727 -35.590 -50.540  0.00  0.00    +0.019 A 
ATOM      6  C   UNL A   1      55.179 -36.124 -49.347  0.00  0.00    +0.055 A 
ATOM      7 CL   UNL A   1      54.298 -37.627 -49.401  0.00  0.00    -0.083 Cl
ATOM      8  C   UNL A   1      55.319 -35.462 -48.115  0.00  0.00    -0.007 A 
ATOM      9  C   UNL A   1      55.990 -34.242 -48.134  0.00  0.00    +0.047 A 
ATOM     10  N   UNL A   1      56.529 -33.714 -49.259  0.00  0.00    -0.251 NA
ATOM     11  C   UNL A   1      56.403 -34.362 -50.423  0.00  0.00    +0.074 A 
ATOM     12  C   UNL A   1      56.964 -33.781 -51.550  0.00  0.00    -0.017 A 
ATOM     13  C   UNL A   1      56.211 -33.437 -46.879  0.00  0.00    -0.010 C 
ATOM     14  C   UNL A   1      55.235 -33.791 -45.763  0.00  0.00    -0.047 C 
ATOM     15  C   UNL A   1      55.201 -35.299 -45.572  0.00  0.00    -0.049 C 
ATOM     16  C   UNL A   1      54.709 -35.994 -46.841  0.00  0.00    -0.025 C 
ENDROOT
TORSDOF 0
ENDMDL
MODEL 12
REMARK VINA RESULT:    -5.834     15.031     16.507
REMARK INTER + INTRA:          -5.834
REMARK INTER:                  -5.834
REMARK INTRA:                   0.000
REMARK UNBOUND:                 0.000
REMARK  Name = cpd275.pdb
REMARK  0 active torsions:
REMARK  status: ('A' for Active; 'I' for Inactive)
REMARK                            x       y       z     vdW  Elec       q    Type
REMARK                         _______ _______ _______ _____ _____    ______ ____
ROOT
ATOM      1 CL   UNL A   1      37.565 -23.832 -33.374  0.00  0.00    -0.083 Cl
ATOM      2  C   UNL A   1      38.910 -23.093 -34.152  0.00  0.00    +0.043 A 
ATOM      3  C   UNL A   1      39.840 -22.390 -33.401  0.00  0.00    -0.043 A 
ATOM      4  C   UNL A   1      40.924 -21.796 -34.047  0.00  0.00    -0.050 A 
ATOM      5  C   UNL A   1      41.089 -21.899 -35.453  0.00  0.00    +0.019 A 
ATOM      6  C   UNL A   1      42.155 -21.329 -36.193  0.00  0.00    +0.055 A 
ATOM      7 CL   UNL A   1      43.374 -20.396 -35.368  0.00  0.00    -0.083 Cl
ATOM      8  C   UNL A   1      42.248 -21.487 -37.586  0.00  0.00    -0.007 A 
ATOM      9  C   UNL A   1      41.224 -22.201 -38.204  0.00  0.00    +0.047 A 
ATOM     10  N   UNL A   1      40.199 -22.762 -37.520  0.00  0.00    -0.251 NA
ATOM     11  C   UNL A   1      40.130 -22.617 -36.190  0.00  0.00    +0.074 A 
ATOM     12  C   UNL A   1      39.060 -23.202 -35.532  0.00  0.00    -0.017 A 
ATOM     13  C   UNL A   1      41.211 -22.446 -39.691  0.00  0.00    -0.010 C 
ATOM     14  C   UNL A   1      42.071 -21.455 -40.467  0.00  0.00    -0.047 C 
ATOM     15  C   UNL A   1      43.450 -21.367 -39.834  0.00  0.00    -0.049 C 
ATOM     16  C   UNL A   1      43.354 -20.855 -38.397  0.00  0.00    -0.025 C 
ENDROOT
TORSDOF 0
ENDMDL
MODEL 13
REMARK VINA RESULT:    -5.810     15.330     17.257
REMARK INTER + INTRA:          -5.810
REMARK INTER:                  -5.810
REMARK INTRA:                   0.000
REMARK UNBOUND:                 0.000
REMARK  Name = cpd275.pdb
REMARK  0 active torsions:
REMARK  status: ('A' for Active; 'I' for Inactive)
REMARK                            x       y       z     vdW  Elec       q    Type
REMARK                         _______ _______ _______ _____ _____    ______ ____
ROOT
ATOM      1 CL   UNL A   1      42.117 -21.962 -41.628  0.00  0.00    -0.083 Cl
ATOM      2  C   UNL A   1      42.056 -21.755 -39.922  0.00  0.00    +0.043 A 
ATOM      3  C   UNL A   1      43.004 -20.966 -39.288  0.00  0.00    -0.043 A 
ATOM      4  C   UNL A   1      42.941 -20.808 -37.904  0.00  0.00    -0.050 A 
ATOM      5  C   UNL A   1      41.927 -21.440 -37.137  0.00  0.00    +0.019 A 
ATOM      6  C   UNL A   1      41.786 -21.339 -35.730  0.00  0.00    +0.055 A 
ATOM      7 CL   UNL A   1      42.933 -20.399 -34.815  0.00  0.00    -0.083 Cl
ATOM      8  C   UNL A   1      40.745 -21.992 -35.049  0.00  0.00    -0.007 A 
ATOM      9  C   UNL A   1      39.884 -22.769 -35.819  0.00  0.00    +0.047 A 
ATOM     10  N   UNL A   1      39.992 -22.876 -37.165  0.00  0.00    -0.251 NA
ATOM     11  C   UNL A   1      40.979 -22.237 -37.805  0.00  0.00    +0.074 A 
ATOM     12  C   UNL A   1      41.057 -22.381 -39.181  0.00  0.00    -0.017 A 
ATOM     13  C   UNL A   1      38.724 -23.514 -35.209  0.00  0.00    -0.010 C 
ATOM     14  C   UNL A   1      38.891 -23.757 -33.713  0.00  0.00    -0.047 C 
ATOM     15  C   UNL A   1      39.265 -22.455 -33.022  0.00  0.00    -0.049 C 
ATOM     16  C   UNL A   1      40.601 -21.929 -33.547  0.00  0.00    -0.025 C 
ENDROOT
TORSDOF 0
ENDMDL
MODEL 14
REMARK VINA RESULT:    -5.663     19.992     22.034
REMARK INTER + INTRA:          -5.663
REMARK INTER:                  -5.663
REMARK INTRA:                   0.000
REMARK UNBOUND:                 0.000
REMARK  Name = cpd275.pdb
REMARK  0 active torsions:
REMARK  status: ('A' for Active; 'I' for Inactive)
REMARK                            x       y       z     vdW  Elec       q    Type
REMARK                         _______ _______ _______ _____ _____    ______ ____
ROOT
ATOM      1 CL   UNL A   1      42.793 -14.810 -41.534  0.00  0.00    -0.083 Cl
ATOM      2  C   UNL A   1      43.779 -16.104 -40.979  0.00  0.00    +0.043 A 
ATOM      3  C   UNL A   1      44.523 -15.956 -39.818  0.00  0.00    -0.043 A 
ATOM      4  C   UNL A   1      45.318 -17.015 -39.381  0.00  0.00    -0.050 A 
ATOM      5  C   UNL A   1      45.378 -18.236 -40.103  0.00  0.00    +0.019 A 
ATOM      6  C   UNL A   1      46.157 -19.362 -39.736  0.00  0.00    +0.055 A 
ATOM      7 CL   UNL A   1      47.159 -19.290 -38.312  0.00  0.00    -0.083 Cl
ATOM      8  C   UNL A   1      46.152 -20.539 -40.505  0.00  0.00    -0.007 A 
ATOM      9  C   UNL A   1      45.372 -20.529 -41.658  0.00  0.00    +0.047 A 
ATOM     10  N   UNL A   1      44.613 -19.469 -42.026  0.00  0.00    -0.251 NA
ATOM     11  C   UNL A   1      44.615 -18.359 -41.277  0.00  0.00    +0.074 A 
ATOM     12  C   UNL A   1      43.829 -17.297 -41.696  0.00  0.00    -0.017 A 
ATOM     13  C   UNL A   1      45.276 -21.730 -42.564  0.00  0.00    -0.010 C 
ATOM     14  C   UNL A   1      46.446 -22.694 -42.403  0.00  0.00    -0.047 C 
ATOM     15  C   UNL A   1      46.655 -23.005 -40.929  0.00  0.00    -0.049 C 
ATOM     16  C   UNL A   1      47.005 -21.735 -40.153  0.00  0.00    -0.025 C 
ENDROOT
TORSDOF 0
ENDMDL
MODEL 15
REMARK VINA RESULT:    -5.655     20.450     21.862
REMARK INTER + INTRA:          -5.655
REMARK INTER:                  -5.655
REMARK INTRA:                   0.000
REMARK UNBOUND:                 0.000
REMARK  Name = cpd275.pdb
REMARK  0 active torsions:
REMARK  status: ('A' for Active; 'I' for Inactive)
REMARK                            x       y       z     vdW  Elec       q    Type
REMARK                         _______ _______ _______ _____ _____    ______ ____
ROOT
ATOM      1 CL   UNL A   1      47.247 -23.949 -42.422  0.00  0.00    -0.083 Cl
ATOM      2  C   UNL A   1      46.662 -22.430 -41.865  0.00  0.00    +0.043 A 
ATOM      3  C   UNL A   1      45.741 -21.725 -42.624  0.00  0.00    -0.043 A 
ATOM      4  C   UNL A   1      45.277 -20.495 -42.159  0.00  0.00    -0.050 A 
ATOM      5  C   UNL A   1      45.730 -19.957 -40.926  0.00  0.00    +0.019 A 
ATOM      6  C   UNL A   1      45.317 -18.717 -40.376  0.00  0.00    +0.055 A 
ATOM      7 CL   UNL A   1      44.183 -17.723 -41.250  0.00  0.00    -0.083 Cl
ATOM      8  C   UNL A   1      45.810 -18.262 -39.141  0.00  0.00    -0.007 A 
ATOM      9  C   UNL A   1      46.748 -19.070 -38.506  0.00  0.00    +0.047 A 
ATOM     10  N   UNL A   1      47.155 -20.262 -39.006  0.00  0.00    -0.251 NA
ATOM     11  C   UNL A   1      46.666 -20.692 -40.176  0.00  0.00    +0.074 A 
ATOM     12  C   UNL A   1      47.116 -21.913 -40.654  0.00  0.00    -0.017 A 
ATOM     13  C   UNL A   1      47.348 -18.697 -37.174  0.00  0.00    -0.010 C 
ATOM     14  C   UNL A   1      47.247 -17.207 -36.871  0.00  0.00    -0.047 C 
ATOM     15  C   UNL A   1      45.819 -16.734 -37.097  0.00  0.00    -0.049 C 
ATOM     16  C   UNL A   1      45.411 -16.927 -38.558  0.00  0.00    -0.025 C 
ENDROOT
TORSDOF 0
ENDMDL
MODEL 16
REMARK VINA RESULT:    -5.626     20.330     22.561
REMARK INTER + INTRA:          -5.626
REMARK INTER:                  -5.626
REMARK INTRA:                   0.000
REMARK UNBOUND:                 0.000
REMARK  Name = cpd275.pdb
REMARK  0 active torsions:
REMARK  status: ('A' for Active; 'I' for Inactive)
REMARK                            x       y       z     vdW  Elec       q    Type
REMARK                         _______ _______ _______ _____ _____    ______ ____
ROOT
ATOM      1 CL   UNL A   1      46.548 -22.678 -42.423  0.00  0.00    -0.083 Cl
ATOM      2  C   UNL A   1      46.672 -21.550 -41.131  0.00  0.00    +0.043 A 
ATOM      3  C   UNL A   1      46.627 -21.996 -39.818  0.00  0.00    -0.043 A 
ATOM      4  C   UNL A   1      46.728 -21.070 -38.782  0.00  0.00    -0.050 A 
ATOM      5  C   UNL A   1      46.874 -19.682 -39.048  0.00  0.00    +0.019 A 
ATOM      6  C   UNL A   1      46.982 -18.670 -38.061  0.00  0.00    +0.055 A 
ATOM      7 CL   UNL A   1      46.910 -19.101 -36.374  0.00  0.00    -0.083 Cl
ATOM      8  C   UNL A   1      47.134 -17.318 -38.411  0.00  0.00    -0.007 A 
ATOM      9  C   UNL A   1      47.137 -17.021 -39.772  0.00  0.00    +0.047 A 
ATOM     10  N   UNL A   1      47.044 -17.969 -40.734  0.00  0.00    -0.251 NA
ATOM     11  C   UNL A   1      46.915 -19.256 -40.387  0.00  0.00    +0.074 A 
ATOM     12  C   UNL A   1      46.814 -20.192 -41.405  0.00  0.00    -0.017 A 
ATOM     13  C   UNL A   1      47.300 -15.610 -40.277  0.00  0.00    -0.010 C 
ATOM     14  C   UNL A   1      46.942 -14.558 -39.234  0.00  0.00    -0.047 C 
ATOM     15  C   UNL A   1      47.657 -14.867 -37.928  0.00  0.00    -0.049 C 
ATOM     16  C   UNL A   1      47.211 -16.221 -37.376  0.00  0.00    -0.025 C 
ENDROOT
TORSDOF 0
ENDMDL
MODEL 17
REMARK VINA RESULT:    -5.523     20.202     20.685
REMARK INTER + INTRA:          -5.523
REMARK INTER:                  -5.523
REMARK INTRA:                   0.000
REMARK UNBOUND:                 0.000
REMARK  Name = cpd275.pdb
REMARK  0 active torsions:
REMARK  status: ('A' for Active; 'I' for Inactive)
REMARK                            x       y       z     vdW  Elec       q    Type
REMARK                         _______ _______ _______ _____ _____    ______ ____
ROOT
ATOM      1 CL   UNL A   1      47.661 -17.954 -34.976  0.00  0.00    -0.083 Cl
ATOM      2  C   UNL A   1      46.720 -18.554 -36.285  0.00  0.00    +0.043 A 
ATOM      3  C   UNL A   1      45.372 -18.237 -36.368  0.00  0.00    -0.043 A 
ATOM      4  C   UNL A   1      44.623 -18.732 -37.434  0.00  0.00    -0.050 A 
ATOM      5  C   UNL A   1      45.215 -19.550 -38.432  0.00  0.00    +0.019 A 
ATOM      6  C   UNL A   1      44.533 -20.098 -39.548  0.00  0.00    +0.055 A 
ATOM      7 CL   UNL A   1      42.828 -19.796 -39.748  0.00  0.00    -0.083 Cl
ATOM      8  C   UNL A   1      45.199 -20.893 -40.496  0.00  0.00    -0.007 A 
ATOM      9  C   UNL A   1      46.549 -21.143 -40.265  0.00  0.00    +0.047 A 
ATOM     10  N   UNL A   1      47.225 -20.626 -39.211  0.00  0.00    -0.251 NA
ATOM     11  C   UNL A   1      46.583 -19.858 -38.323  0.00  0.00    +0.074 A 
ATOM     12  C   UNL A   1      47.313 -19.356 -37.256  0.00  0.00    -0.017 A 
ATOM     13  C   UNL A   1      47.377 -21.975 -41.211  0.00  0.00    -0.010 C 
ATOM     14  C   UNL A   1      46.536 -22.896 -42.088  0.00  0.00    -0.047 C 
ATOM     15  C   UNL A   1      45.411 -22.101 -42.734  0.00  0.00    -0.049 C 
ATOM     16  C   UNL A   1      44.482 -21.517 -41.669  0.00  0.00    -0.025 C 
ENDROOT
TORSDOF 0
ENDMDL
MODEL 18
REMARK VINA RESULT:    -5.483     35.553     36.737
REMARK INTER + INTRA:          -5.483
REMARK INTER:                  -5.483
REMARK INTRA:                   0.000
REMARK UNBOUND:                 0.000
REMARK  Name = cpd275.pdb
REMARK  0 active torsions:
REMARK  status: ('A' for Active; 'I' for Inactive)
REMARK                            x       y       z     vdW  Elec       q    Type
REMARK                         _______ _______ _______ _____ _____    ______ ____
ROOT
ATOM      1 CL   UNL A   1      63.546 -17.882  -8.121  0.00  0.00    -0.083 Cl
ATOM      2  C   UNL A   1      63.417 -19.590  -8.271  0.00  0.00    +0.043 A 
ATOM      3  C   UNL A   1      62.939 -20.145  -9.449  0.00  0.00    -0.043 A 
ATOM      4  C   UNL A   1      62.839 -21.531  -9.555  0.00  0.00    -0.050 A 
ATOM      5  C   UNL A   1      63.217 -22.380  -8.481  0.00  0.00    +0.019 A 
ATOM      6  C   UNL A   1      63.149 -23.796  -8.498  0.00  0.00    +0.055 A 
ATOM      7 CL   UNL A   1      62.538 -24.612  -9.911  0.00  0.00    -0.083 Cl
ATOM      8  C   UNL A   1      63.553 -24.563  -7.392  0.00  0.00    -0.007 A 
ATOM      9  C   UNL A   1      63.989 -23.862  -6.271  0.00  0.00    +0.047 A 
ATOM     10  N   UNL A   1      64.071 -22.511  -6.232  0.00  0.00    -0.251 NA
ATOM     11  C   UNL A   1      63.697 -21.792  -7.298  0.00  0.00    +0.074 A 
ATOM     12  C   UNL A   1      63.790 -20.411  -7.210  0.00  0.00    -0.017 A 
ATOM     13  C   UNL A   1      64.455 -24.568  -5.023  0.00  0.00    -0.010 C 
ATOM     14  C   UNL A   1      63.934 -25.996  -4.915  0.00  0.00    -0.047 C 
ATOM     15  C   UNL A   1      64.194 -26.736  -6.218  0.00  0.00    -0.049 C 
ATOM     16  C   UNL A   1      63.452 -26.070  -7.376  0.00  0.00    -0.025 C 
ENDROOT
TORSDOF 0
ENDMDL
MODEL 19
REMARK VINA RESULT:    -5.476     16.925     18.736
REMARK INTER + INTRA:          -5.476
REMARK INTER:                  -5.476
REMARK INTRA:                   0.000
REMARK UNBOUND:                 0.000
REMARK  Name = cpd275.pdb
REMARK  0 active torsions:
REMARK  status: ('A' for Active; 'I' for Inactive)
REMARK                            x       y       z     vdW  Elec       q    Type
REMARK                         _______ _______ _______ _____ _____    ______ ____
ROOT
ATOM      1 CL   UNL A   1      40.258 -21.542 -35.047  0.00  0.00    -0.083 Cl
ATOM      2  C   UNL A   1      40.799 -21.650 -36.676  0.00  0.00    +0.043 A 
ATOM      3  C   UNL A   1      39.970 -22.197 -37.644  0.00  0.00    -0.043 A 
ATOM      4  C   UNL A   1      40.424 -22.278 -38.960  0.00  0.00    -0.050 A 
ATOM      5  C   UNL A   1      41.714 -21.812 -39.323  0.00  0.00    +0.019 A 
ATOM      6  C   UNL A   1      42.259 -21.855 -40.631  0.00  0.00    +0.055 A 
ATOM      7 CL   UNL A   1      41.325 -22.546 -41.930  0.00  0.00    -0.083 Cl
ATOM      8  C   UNL A   1      43.546 -21.362 -40.906  0.00  0.00    -0.007 A 
ATOM      9  C   UNL A   1      44.269 -20.863 -39.826  0.00  0.00    +0.047 A 
ATOM     10  N   UNL A   1      43.769 -20.804 -38.568  0.00  0.00    -0.251 NA
ATOM     11  C   UNL A   1      42.536 -21.263 -38.322  0.00  0.00    +0.074 A 
ATOM     12  C   UNL A   1      42.068 -21.189 -37.019  0.00  0.00    -0.017 A 
ATOM     13  C   UNL A   1      45.657 -20.300 -39.990  0.00  0.00    -0.010 C 
ATOM     14  C   UNL A   1      46.353 -20.786 -41.256  0.00  0.00    -0.047 C 
ATOM     15  C   UNL A   1      45.430 -20.602 -42.451  0.00  0.00    -0.049 C 
ATOM     16  C   UNL A   1      44.158 -21.434 -42.285  0.00  0.00    -0.025 C 
ENDROOT
TORSDOF 0
ENDMDL
MODEL 20
REMARK VINA RESULT:    -5.412      3.685      5.096
REMARK INTER + INTRA:          -5.412
REMARK INTER:                  -5.412
REMARK INTRA:                   0.000
REMARK UNBOUND:                 0.000
REMARK  Name = cpd275.pdb
REMARK  0 active torsions:
REMARK  status: ('A' for Active; 'I' for Inactive)
REMARK                            x       y       z     vdW  Elec       q    Type
REMARK                         _______ _______ _______ _____ _____    ______ ____
ROOT
ATOM      1 CL   UNL A   1      34.311 -41.435 -27.759  0.00  0.00    -0.083 Cl
ATOM      2  C   UNL A   1      35.004 -40.033 -28.475  0.00  0.00    +0.043 A 
ATOM      3  C   UNL A   1      36.276 -40.096 -29.024  0.00  0.00    -0.043 A 
ATOM      4  C   UNL A   1      36.824 -38.950 -29.600  0.00  0.00    -0.050 A 
ATOM      5  C   UNL A   1      36.105 -37.727 -29.633  0.00  0.00    +0.019 A 
ATOM      6  C   UNL A   1      36.581 -36.515 -30.194  0.00  0.00    +0.055 A 
ATOM      7 CL   UNL A   1      38.178 -36.458 -30.890  0.00  0.00    -0.083 Cl
ATOM      8  C   UNL A   1      35.798 -35.349 -30.192  0.00  0.00    -0.007 A 
ATOM      9  C   UNL A   1      34.549 -35.435 -29.582  0.00  0.00    +0.047 A 
ATOM     10  N   UNL A   1      34.068 -36.581 -29.046  0.00  0.00    -0.251 NA
ATOM     11  C   UNL A   1      34.818 -37.690 -29.067  0.00  0.00    +0.074 A 
ATOM     12  C   UNL A   1      34.288 -38.839 -28.500  0.00  0.00    -0.017 A 
ATOM     13  C   UNL A   1      33.611 -34.256 -29.521  0.00  0.00    -0.010 C 
ATOM     14  C   UNL A   1      34.321 -32.919 -29.694  0.00  0.00    -0.047 C 
ATOM     15  C   UNL A   1      35.221 -32.971 -30.919  0.00  0.00    -0.049 C 
ATOM     16  C   UNL A   1      36.302 -34.039 -30.750  0.00  0.00    -0.025 C 
ENDROOT
TORSDOF 0
ENDMDL
