@<TRIPOS>MOLECULE
*****
 16 18 0 0 0
SMALL
GASTEIGER

@<TRIPOS>ATOM
      1 CL          5.1962    2.0000    0.0000 Cl      1  UNL1       -0.0822
      2 C           4.3301    1.5000    0.0000 C.ar    1  UNL1        0.0592
      3 C           4.3301    0.5000    0.0000 C.ar    1  UNL1        0.0115
      4 C           3.4641   -0.0000    0.0000 C.ar    1  UNL1        0.0032
      5 C           2.5981    0.5000    0.0000 C.ar    1  UNL1        0.0280
      6 C           1.7321    0.0000    0.0000 C.ar    1  UNL1        0.0562
      7 CL          1.7321   -1.0000    0.0000 Cl      1  UNL1       -0.0825
      8 C           0.8660    0.5000    0.0000 C.ar    1  UNL1        0.0020
      9 C           0.8660    1.5000    0.0000 C.ar    1  UNL1        0.0558
     10 N           1.7321    2.0000    0.0000 N.ar    1  UNL1       -0.2499
     11 C           2.5981    1.5000    0.0000 C.ar    1  UNL1        0.0825
     12 C           3.4641    2.0000    0.0000 C.ar    1  UNL1        0.0305
     13 C           0.0000    2.0000    0.0000 C.3     1  UNL1        0.0455
     14 C          -0.8660    1.5000    0.0000 C.3     1  UNL1        0.0066
     15 C          -0.8660    0.5000    0.0000 C.3     1  UNL1        0.0051
     16 C           0.0000   -0.0000    0.0000 C.3     1  UNL1        0.0284
@<TRIPOS>BOND
     1     1     2    1
     2     2     3   ar
     3     3     4   ar
     4     4     5   ar
     5     5     6   ar
     6     6     7    1
     7     6     8   ar
     8     8     9   ar
     9     9    10   ar
    10    10    11   ar
    11     5    11   ar
    12    11    12   ar
    13     2    12   ar
    14     9    13    1
    15    13    14    1
    16    14    15    1
    17    15    16    1
    18     8    16    1
