REMARK  Name = cpd275.pdb
REMARK  0 active torsions:
REMARK  status: ('A' for Active; 'I' for Inactive)
REMARK                            x       y       z     vdW  Elec       q    Type
REMARK                         _______ _______ _______ _____ _____    ______ ____
ROOT
ATOM      1 CL   UNL A   1       6.883   2.725   0.028  0.00  0.00    -0.083 Cl
ATOM      2  C   UNL A   1       5.452   1.771   0.008  0.00  0.00    +0.043 A 
ATOM      3  C   UNL A   1       5.545   0.389  -0.061  0.00  0.00    -0.043 A 
ATOM      4  C   UNL A   1       4.376  -0.370  -0.077  0.00  0.00    -0.050 A 
ATOM      5  C   UNL A   1       3.098   0.246  -0.024  0.00  0.00    +0.019 A 
ATOM      6  C   UNL A   1       1.859  -0.443  -0.037  0.00  0.00    +0.055 A 
ATOM      7 CL   UNL A   1       1.842  -2.182  -0.151  0.00  0.00    -0.083 Cl
ATOM      8  C   UNL A   1       0.636   0.246   0.028  0.00  0.00    -0.007 A 
ATOM      9  C   UNL A   1       0.703   1.636   0.070  0.00  0.00    +0.047 A 
ATOM     10  N   UNL A   1       1.873   2.318   0.091  0.00  0.00    -0.251 NA
ATOM     11  C   UNL A   1       3.032   1.649   0.044  0.00  0.00    +0.074 A 
ATOM     12  C   UNL A   1       4.205   2.388   0.060  0.00  0.00    -0.017 A 
ATOM     13  C   UNL A   1      -0.537   2.490   0.148  0.00  0.00    -0.010 C 
ATOM     14  C   UNL A   1      -1.790   1.768  -0.334  0.00  0.00    -0.047 C 
ATOM     15  C   UNL A   1      -1.891   0.410   0.343  0.00  0.00    -0.049 C 
ATOM     16  C   UNL A   1      -0.694  -0.467  -0.024  0.00  0.00    -0.025 C 
ENDROOT
TORSDOF 0
