REMARK  Name = cpd258.pdb
REMARK  7 active torsions:
REMARK  status: ('A' for Active; 'I' for Inactive)
REMARK    1  A    between atoms: C_1  and  C_2
REMARK    2  A    between atoms: C_7  and  N_8
REMARK    3  A    between atoms: C_9  and  O_11
REMARK    4  A    between atoms: O_11  and  C_12
REMARK    5  A    between atoms: C_18  and  C_19
REMARK    6  A    between atoms: N_22  and  C_23
REMARK    7  A    between atoms: N_26  and  C_27
REMARK                            x       y       z     vdW  Elec       q    Type
REMARK                         _______ _______ _______ _____ _____    ______ ____
ROOT
ATOM      1  C   UNL A   1       3.432   0.954  -1.388  0.00  0.00    +0.134 A 
ATOM      2  C   UNL A   1       3.533  -0.307  -0.771  0.00  0.00    -0.017 A 
ATOM      3  C   UNL A   1       2.501  -0.769   0.050  0.00  0.00    -0.037 A 
ATOM      4  C   UNL A   1       1.377   0.022   0.192  0.00  0.00    +0.032 A 
ATOM      5  C   UNL A   1       1.299   1.282  -0.445  0.00  0.00    -0.017 A 
ATOM      6  C   UNL A   1       2.312   1.769  -1.245  0.00  0.00    -0.014 A 
ATOM      7  C   UNL A   1       0.000   1.880   0.000  0.00  0.00    +0.002 C 
ATOM      8  C   UNL A   1       0.268   2.637   1.329  0.00  0.00    -0.055 C 
ATOM      9  C   UNL A   1      -0.882   2.682  -0.916  0.00  0.00    -0.054 C 
ATOM     10  C   UNL A   1      -2.233   2.478  -0.243  0.00  0.00    -0.048 C 
ATOM     11  N   UNL A   1      -2.187   1.110   0.468  0.00  0.00    +0.433 N 
ATOM     12  C   UNL A   1      -3.373   0.304  -0.015  0.00  0.00    -0.060 C 
ATOM     13  O   UNL A   1      -2.320   1.245   1.825  0.00  0.00    -0.289 OA
ATOM     14  C   UNL A   1      -0.814   0.470   0.000  0.00  0.00    +0.039 C 
ATOM     15  N   UNL A   1       0.191  -0.217   0.933  0.00  0.00    -0.341 N 
ATOM     16  C   UNL A   1      -0.060  -1.538   1.477  0.00  0.00    -0.001 C 
ENDROOT
BRANCH   1  17
ATOM     17  O   UNL A   1       4.470   1.421  -2.228  0.00  0.00    -0.411 OA
BRANCH  17  19
ATOM     18  N   UNL A   1       6.035   1.590  -0.505  0.00  0.00    -0.251 N 
ATOM     19  C   UNL A   1       5.832   1.433  -1.857  0.00  0.00    +0.410 C 
ATOM     20  O   UNL A   1       6.674   1.302  -2.733  0.00  0.00    -0.226 OA
ATOM     21  H   UNL A   1       5.216   1.726   0.024  0.00  0.00    +0.000 HD
BRANCH  18  28
ATOM     22  C   UNL A   1       8.868   2.416  -1.576  0.00  0.00    -0.038 C 
ATOM     23  C   UNL A   1       8.528   1.895  -0.208  0.00  0.00    -0.029 A 
ATOM     24  C   UNL A   1       9.612   1.755   0.688  0.00  0.00    -0.057 A 
ATOM     25  C   UNL A   1       9.421   1.379   2.016  0.00  0.00    -0.061 A 
ATOM     26  C   UNL A   1       8.137   1.141   2.479  0.00  0.00    -0.060 A 
ATOM     27  C   UNL A   1       7.057   1.250   1.603  0.00  0.00    -0.040 A 
ATOM     28  C   UNL A   1       7.233   1.587   0.245  0.00  0.00    +0.039 A 
ENDBRANCH  18  28
ENDBRANCH  17  19
ENDBRANCH   1  17
TORSDOF 3
