MODEL 1
REMARK VINA RESULT:    -8.813      0.000      0.000
REMARK INTER + INTRA:         -10.633
REMARK INTER:                 -10.358
REMARK INTRA:                  -0.275
REMARK UNBOUND:                -0.275
REMARK  Name = cpd258.pdb
REMARK  7 active torsions:
REMARK  status: ('A' for Active; 'I' for Inactive)
REMARK    1  A    between atoms: C_1  and  C_2
REMARK    2  A    between atoms: C_7  and  N_8
REMARK    3  A    between atoms: C_9  and  O_11
REMARK    4  A    between atoms: O_11  and  C_12
REMARK    5  A    between atoms: C_18  and  C_19
REMARK    6  A    between atoms: N_22  and  C_23
REMARK    7  A    between atoms: N_26  and  C_27
REMARK                            x       y       z     vdW  Elec       q    Type
REMARK                         _______ _______ _______ _____ _____    ______ ____
ROOT
ATOM      1  C   UNL A   1      35.914 -34.958 -30.530  0.00  0.00    +0.134 A 
ATOM      2  C   UNL A   1      35.697 -35.656 -29.327  0.00  0.00    -0.017 A 
ATOM      3  C   UNL A   1      34.511 -35.466 -28.612  0.00  0.00    -0.037 A 
ATOM      4  C   UNL A   1      33.557 -34.621 -29.145  0.00  0.00    +0.032 A 
ATOM      5  C   UNL A   1      33.798 -33.937 -30.359  0.00  0.00    -0.017 A 
ATOM      6  C   UNL A   1      34.968 -34.093 -31.074  0.00  0.00    -0.014 A 
ATOM      7  C   UNL A   1      32.602 -33.062 -30.575  0.00  0.00    +0.002 C 
ATOM      8  C   UNL A   1      32.869 -31.721 -29.838  0.00  0.00    -0.055 C 
ATOM      9  C   UNL A   1      32.000 -32.828 -31.932  0.00  0.00    -0.054 C 
ATOM     10  C   UNL A   1      30.571 -32.477 -31.541  0.00  0.00    -0.048 C 
ATOM     11  N   UNL A   1      30.269 -33.204 -30.215  0.00  0.00    +0.433 N 
ATOM     12  C   UNL A   1      29.006 -34.014 -30.415  0.00  0.00    -0.060 C 
ATOM     13  O   UNL A   1      30.019 -32.316 -29.201  0.00  0.00    -0.289 OA
ATOM     14  C   UNL A   1      31.531 -34.134 -29.980  0.00  0.00    +0.039 C 
ATOM     15  N   UNL A   1      32.274 -34.277 -28.646  0.00  0.00    -0.341 N 
ATOM     16  C   UNL A   1      31.710 -35.029 -27.541  0.00  0.00    -0.001 C 
ENDROOT
BRANCH   1  17
ATOM     17  O   UNL A   1      37.108 -35.155 -31.262  0.00  0.00    -0.411 OA
BRANCH  17  19
ATOM     18  N   UNL A   1      39.218 -36.100 -30.942  0.00  0.00    -0.251 N 
ATOM     19  C   UNL A   1      37.884 -36.332 -31.191  0.00  0.00    +0.410 C 
ATOM     20  O   UNL A   1      37.325 -37.407 -31.346  0.00  0.00    -0.226 OA
ATOM     21  H   UNL A   1      39.472 -35.150 -30.896  0.00  0.00    +0.000 HD
BRANCH  18  28
ATOM     22  C   UNL A   1      39.513 -38.063 -28.509  0.00  0.00    -0.038 C 
ATOM     23  C   UNL A   1      40.480 -37.864 -29.642  0.00  0.00    -0.029 A 
ATOM     24  C   UNL A   1      41.657 -38.646 -29.595  0.00  0.00    -0.057 A 
ATOM     25  C   UNL A   1      42.587 -38.633 -30.632  0.00  0.00    -0.061 A 
ATOM     26  C   UNL A   1      42.356 -37.841 -31.745  0.00  0.00    -0.060 A 
ATOM     27  C   UNL A   1      41.212 -37.044 -31.799  0.00  0.00    -0.040 A 
ATOM     28  C   UNL A   1      40.281 -37.010 -30.741  0.00  0.00    +0.039 A 
ENDBRANCH  18  28
ENDBRANCH  17  19
ENDBRANCH   1  17
TORSDOF 3
ENDMDL
MODEL 2
REMARK VINA RESULT:    -8.344     17.027     18.320
REMARK INTER + INTRA:         -10.082
REMARK INTER:                  -9.528
REMARK INTRA:                  -0.554
REMARK UNBOUND:                -0.275
REMARK  Name = cpd258.pdb
REMARK  7 active torsions:
REMARK  status: ('A' for Active; 'I' for Inactive)
REMARK    1  A    between atoms: C_1  and  C_2
REMARK    2  A    between atoms: C_7  and  N_8
REMARK    3  A    between atoms: C_9  and  O_11
REMARK    4  A    between atoms: O_11  and  C_12
REMARK    5  A    between atoms: C_18  and  C_19
REMARK    6  A    between atoms: N_22  and  C_23
REMARK    7  A    between atoms: N_26  and  C_27
REMARK                            x       y       z     vdW  Elec       q    Type
REMARK                         _______ _______ _______ _____ _____    ______ ____
ROOT
ATOM      1  C   UNL A   1      45.448 -19.778 -36.049  0.00  0.00    +0.134 A 
ATOM      2  C   UNL A   1      45.342 -19.238 -34.754  0.00  0.00    -0.017 A 
ATOM      3  C   UNL A   1      44.116 -19.264 -34.083  0.00  0.00    -0.037 A 
ATOM      4  C   UNL A   1      43.044 -19.872 -34.708  0.00  0.00    +0.032 A 
ATOM      5  C   UNL A   1      43.181 -20.413 -36.007  0.00  0.00    -0.017 A 
ATOM      6  C   UNL A   1      44.375 -20.383 -36.698  0.00  0.00    -0.014 A 
ATOM      7  C   UNL A   1      41.816 -20.899 -36.388  0.00  0.00    +0.002 C 
ATOM      8  C   UNL A   1      41.060 -19.705 -37.031  0.00  0.00    -0.055 C 
ATOM      9  C   UNL A   1      41.592 -22.168 -37.163  0.00  0.00    -0.054 C 
ATOM     10  C   UNL A   1      40.176 -22.511 -36.723  0.00  0.00    -0.048 C 
ATOM     11  N   UNL A   1      39.986 -21.934 -35.305  0.00  0.00    +0.433 N 
ATOM     12  C   UNL A   1      39.520 -23.062 -34.411  0.00  0.00    -0.060 C 
ATOM     13  O   UNL A   1      39.008 -20.974 -35.281  0.00  0.00    -0.289 OA
ATOM     14  C   UNL A   1      41.428 -21.418 -34.894  0.00  0.00    +0.039 C 
ATOM     15  N   UNL A   1      41.716 -20.058 -34.246  0.00  0.00    -0.341 N 
ATOM     16  C   UNL A   1      41.398 -19.799 -32.855  0.00  0.00    -0.001 C 
ENDROOT
BRANCH   1  17
ATOM     17  O   UNL A   1      46.690 -19.763 -36.728  0.00  0.00    -0.411 OA
BRANCH  17  19
ATOM     18  N   UNL A   1      46.892 -21.269 -38.499  0.00  0.00    -0.251 N 
ATOM     19  C   UNL A   1      46.823 -19.948 -38.121  0.00  0.00    +0.410 C 
ATOM     20  O   UNL A   1      46.858 -18.958 -38.837  0.00  0.00    -0.226 OA
ATOM     21  H   UNL A   1      46.892 -21.914 -37.755  0.00  0.00    +0.000 HD
BRANCH  18  28
ATOM     22  C   UNL A   1      44.554 -21.367 -40.592  0.00  0.00    -0.038 C 
ATOM     23  C   UNL A   1      45.926 -21.963 -40.731  0.00  0.00    -0.029 A 
ATOM     24  C   UNL A   1      46.182 -22.651 -41.939  0.00  0.00    -0.057 A 
ATOM     25  C   UNL A   1      47.443 -23.162 -42.237  0.00  0.00    -0.061 A 
ATOM     26  C   UNL A   1      48.480 -22.990 -41.335  0.00  0.00    -0.060 A 
ATOM     27  C   UNL A   1      48.240 -22.335 -40.127  0.00  0.00    -0.040 A 
ATOM     28  C   UNL A   1      46.961 -21.848 -39.786  0.00  0.00    +0.039 A 
ENDBRANCH  18  28
ENDBRANCH  17  19
ENDBRANCH   1  17
TORSDOF 3
ENDMDL
MODEL 3
REMARK VINA RESULT:    -8.315      2.322      3.928
REMARK INTER + INTRA:         -10.047
REMARK INTER:                  -9.779
REMARK INTRA:                  -0.269
REMARK UNBOUND:                -0.275
REMARK  Name = cpd258.pdb
REMARK  7 active torsions:
REMARK  status: ('A' for Active; 'I' for Inactive)
REMARK    1  A    between atoms: C_1  and  C_2
REMARK    2  A    between atoms: C_7  and  N_8
REMARK    3  A    between atoms: C_9  and  O_11
REMARK    4  A    between atoms: O_11  and  C_12
REMARK    5  A    between atoms: C_18  and  C_19
REMARK    6  A    between atoms: N_22  and  C_23
REMARK    7  A    between atoms: N_26  and  C_27
REMARK                            x       y       z     vdW  Elec       q    Type
REMARK                         _______ _______ _______ _____ _____    ______ ____
ROOT
ATOM      1  C   UNL A   1      36.070 -34.881 -31.024  0.00  0.00    +0.134 A 
ATOM      2  C   UNL A   1      35.230 -33.792 -30.728  0.00  0.00    -0.017 A 
ATOM      3  C   UNL A   1      34.184 -33.943 -29.813  0.00  0.00    -0.037 A 
ATOM      4  C   UNL A   1      34.039 -35.165 -29.184  0.00  0.00    +0.032 A 
ATOM      5  C   UNL A   1      34.903 -36.240 -29.495  0.00  0.00    -0.017 A 
ATOM      6  C   UNL A   1      35.930 -36.123 -30.409  0.00  0.00    -0.014 A 
ATOM      7  C   UNL A   1      34.399 -37.406 -28.701  0.00  0.00    +0.002 C 
ATOM      8  C   UNL A   1      33.310 -38.113 -29.553  0.00  0.00    -0.055 C 
ATOM      9  C   UNL A   1      35.316 -38.404 -28.050  0.00  0.00    -0.054 C 
ATOM     10  C   UNL A   1      34.418 -38.909 -26.928  0.00  0.00    -0.048 C 
ATOM     11  N   UNL A   1      33.456 -37.760 -26.560  0.00  0.00    +0.433 N 
ATOM     12  C   UNL A   1      33.578 -37.521 -25.071  0.00  0.00    -0.060 C 
ATOM     13  O   UNL A   1      32.152 -38.100 -26.807  0.00  0.00    -0.289 OA
ATOM     14  C   UNL A   1      33.985 -36.522 -27.397  0.00  0.00    +0.039 C 
ATOM     15  N   UNL A   1      33.094 -35.573 -28.208  0.00  0.00    -0.341 N 
ATOM     16  C   UNL A   1      32.258 -34.579 -27.561  0.00  0.00    -0.001 C 
ENDROOT
BRANCH   1  17
ATOM     17  O   UNL A   1      37.136 -34.730 -31.942  0.00  0.00    -0.411 OA
BRANCH  17  19
ATOM     18  N   UNL A   1      38.783 -36.300 -31.424  0.00  0.00    -0.251 N 
ATOM     19  C   UNL A   1      38.489 -34.970 -31.618  0.00  0.00    +0.410 C 
ATOM     20  O   UNL A   1      39.247 -34.014 -31.548  0.00  0.00    -0.226 OA
ATOM     21  H   UNL A   1      38.011 -36.908 -31.482  0.00  0.00    +0.000 HD
BRANCH  18  28
ATOM     22  C   UNL A   1      39.419 -38.082 -28.918  0.00  0.00    -0.038 C 
ATOM     23  C   UNL A   1      40.362 -37.690 -30.021  0.00  0.00    -0.029 A 
ATOM     24  C   UNL A   1      41.685 -38.175 -29.904  0.00  0.00    -0.057 A 
ATOM     25  C   UNL A   1      42.631 -37.970 -30.907  0.00  0.00    -0.061 A 
ATOM     26  C   UNL A   1      42.271 -37.280 -32.053  0.00  0.00    -0.060 A 
ATOM     27  C   UNL A   1      40.977 -36.773 -32.175  0.00  0.00    -0.040 A 
ATOM     28  C   UNL A   1      40.018 -36.932 -31.154  0.00  0.00    +0.039 A 
ENDBRANCH  18  28
ENDBRANCH  17  19
ENDBRANCH   1  17
TORSDOF 3
ENDMDL
MODEL 4
REMARK VINA RESULT:    -8.100      1.534      2.424
REMARK INTER + INTRA:          -9.796
REMARK INTER:                  -9.355
REMARK INTRA:                  -0.440
REMARK UNBOUND:                -0.275
REMARK  Name = cpd258.pdb
REMARK  7 active torsions:
REMARK  status: ('A' for Active; 'I' for Inactive)
REMARK    1  A    between atoms: C_1  and  C_2
REMARK    2  A    between atoms: C_7  and  N_8
REMARK    3  A    between atoms: C_9  and  O_11
REMARK    4  A    between atoms: O_11  and  C_12
REMARK    5  A    between atoms: C_18  and  C_19
REMARK    6  A    between atoms: N_22  and  C_23
REMARK    7  A    between atoms: N_26  and  C_27
REMARK                            x       y       z     vdW  Elec       q    Type
REMARK                         _______ _______ _______ _____ _____    ______ ____
ROOT
ATOM      1  C   UNL A   1      35.078 -37.045 -29.093  0.00  0.00    +0.134 A 
ATOM      2  C   UNL A   1      34.101 -38.007 -29.413  0.00  0.00    -0.017 A 
ATOM      3  C   UNL A   1      32.778 -37.615 -29.631  0.00  0.00    -0.037 A 
ATOM      4  C   UNL A   1      32.479 -36.268 -29.571  0.00  0.00    +0.032 A 
ATOM      5  C   UNL A   1      33.481 -35.322 -29.254  0.00  0.00    -0.017 A 
ATOM      6  C   UNL A   1      34.791 -35.685 -29.016  0.00  0.00    -0.014 A 
ATOM      7  C   UNL A   1      32.783 -33.998 -29.195  0.00  0.00    +0.002 C 
ATOM      8  C   UNL A   1      32.246 -33.821 -27.749  0.00  0.00    -0.055 C 
ATOM      9  C   UNL A   1      33.404 -32.728 -29.705  0.00  0.00    -0.054 C 
ATOM     10  C   UNL A   1      32.153 -31.914 -30.008  0.00  0.00    -0.048 C 
ATOM     11  N   UNL A   1      31.032 -32.914 -30.357  0.00  0.00    +0.433 N 
ATOM     12  C   UNL A   1      30.465 -32.514 -31.702  0.00  0.00    -0.060 C 
ATOM     13  O   UNL A   1      30.003 -32.849 -29.454  0.00  0.00    -0.289 OA
ATOM     14  C   UNL A   1      31.764 -34.318 -30.423  0.00  0.00    +0.039 C 
ATOM     15  N   UNL A   1      31.241 -35.606 -29.776  0.00  0.00    -0.341 N 
ATOM     16  C   UNL A   1      30.123 -36.338 -30.340  0.00  0.00    -0.001 C 
ENDROOT
BRANCH   1  17
ATOM     17  O   UNL A   1      36.421 -37.437 -28.881  0.00  0.00    -0.411 OA
BRANCH  17  19
ATOM     18  N   UNL A   1      38.503 -36.911 -29.795  0.00  0.00    -0.251 N 
ATOM     19  C   UNL A   1      37.348 -37.649 -29.924  0.00  0.00    +0.410 C 
ATOM     20  O   UNL A   1      37.058 -38.441 -30.808  0.00  0.00    -0.226 OA
ATOM     21  H   UNL A   1      38.516 -36.293 -29.029  0.00  0.00    +0.000 HD
BRANCH  18  28
ATOM     22  C   UNL A   1      39.008 -35.060 -32.281  0.00  0.00    -0.038 C 
ATOM     23  C   UNL A   1      39.918 -36.128 -31.740  0.00  0.00    -0.029 A 
ATOM     24  C   UNL A   1      41.130 -36.321 -32.440  0.00  0.00    -0.057 A 
ATOM     25  C   UNL A   1      42.105 -37.207 -31.986  0.00  0.00    -0.061 A 
ATOM     26  C   UNL A   1      41.890 -37.915 -30.815  0.00  0.00    -0.060 A 
ATOM     27  C   UNL A   1      40.689 -37.756 -30.124  0.00  0.00    -0.040 A 
ATOM     28  C   UNL A   1      39.672 -36.898 -30.589  0.00  0.00    +0.039 A 
ENDBRANCH  18  28
ENDBRANCH  17  19
ENDBRANCH   1  17
TORSDOF 3
ENDMDL
MODEL 5
REMARK VINA RESULT:    -7.995      1.496      2.499
REMARK INTER + INTRA:          -9.672
REMARK INTER:                  -9.403
REMARK INTRA:                  -0.269
REMARK UNBOUND:                -0.275
REMARK  Name = cpd258.pdb
REMARK  7 active torsions:
REMARK  status: ('A' for Active; 'I' for Inactive)
REMARK    1  A    between atoms: C_1  and  C_2
REMARK    2  A    between atoms: C_7  and  N_8
REMARK    3  A    between atoms: C_9  and  O_11
REMARK    4  A    between atoms: O_11  and  C_12
REMARK    5  A    between atoms: C_18  and  C_19
REMARK    6  A    between atoms: N_22  and  C_23
REMARK    7  A    between atoms: N_26  and  C_27
REMARK                            x       y       z     vdW  Elec       q    Type
REMARK                         _______ _______ _______ _____ _____    ______ ____
ROOT
ATOM      1  C   UNL A   1      34.768 -35.573 -29.639  0.00  0.00    +0.134 A 
ATOM      2  C   UNL A   1      35.338 -34.295 -29.786  0.00  0.00    -0.017 A 
ATOM      3  C   UNL A   1      34.520 -33.187 -30.023  0.00  0.00    -0.037 A 
ATOM      4  C   UNL A   1      33.152 -33.382 -30.058  0.00  0.00    +0.032 A 
ATOM      5  C   UNL A   1      32.606 -34.677 -29.901  0.00  0.00    -0.017 A 
ATOM      6  C   UNL A   1      33.393 -35.789 -29.686  0.00  0.00    -0.014 A 
ATOM      7  C   UNL A   1      31.128 -34.516 -30.083  0.00  0.00    +0.002 C 
ATOM      8  C   UNL A   1      30.830 -34.642 -31.602  0.00  0.00    -0.055 C 
ATOM      9  C   UNL A   1      30.121 -35.277 -29.265  0.00  0.00    -0.054 C 
ATOM     10  C   UNL A   1      28.927 -34.336 -29.357  0.00  0.00    -0.048 C 
ATOM     11  N   UNL A   1      29.483 -32.908 -29.533  0.00  0.00    +0.433 N 
ATOM     12  C   UNL A   1      28.873 -32.044 -28.451  0.00  0.00    -0.060 C 
ATOM     13  O   UNL A   1      29.110 -32.368 -30.735  0.00  0.00    -0.289 OA
ATOM     14  C   UNL A   1      31.049 -33.070 -29.340  0.00  0.00    +0.039 C 
ATOM     15  N   UNL A   1      32.110 -32.440 -30.252  0.00  0.00    -0.341 N 
ATOM     16  C   UNL A   1      32.407 -31.021 -30.200  0.00  0.00    -0.001 C 
ENDROOT
BRANCH   1  17
ATOM     17  O   UNL A   1      35.592 -36.696 -29.389  0.00  0.00    -0.411 OA
BRANCH  17  19
ATOM     18  N   UNL A   1      37.719 -36.337 -30.281  0.00  0.00    -0.251 N 
ATOM     19  C   UNL A   1      36.600 -37.139 -30.272  0.00  0.00    +0.410 C 
ATOM     20  O   UNL A   1      36.401 -38.157 -30.918  0.00  0.00    -0.226 OA
ATOM     21  H   UNL A   1      37.656 -35.533 -29.717  0.00  0.00    +0.000 HD
BRANCH  18  28
ATOM     22  C   UNL A   1      40.198 -37.983 -29.284  0.00  0.00    -0.038 C 
ATOM     23  C   UNL A   1      40.095 -37.163 -30.540  0.00  0.00    -0.029 A 
ATOM     24  C   UNL A   1      41.250 -37.127 -31.352  0.00  0.00    -0.057 A 
ATOM     25  C   UNL A   1      41.255 -36.488 -32.591  0.00  0.00    -0.061 A 
ATOM     26  C   UNL A   1      40.099 -35.876 -33.046  0.00  0.00    -0.060 A 
ATOM     27  C   UNL A   1      38.956 -35.880 -32.247  0.00  0.00    -0.040 A 
ATOM     28  C   UNL A   1      38.942 -36.484 -30.973  0.00  0.00    +0.039 A 
ENDBRANCH  18  28
ENDBRANCH  17  19
ENDBRANCH   1  17
TORSDOF 3
ENDMDL
MODEL 6
REMARK VINA RESULT:    -7.801     16.451     17.882
REMARK INTER + INTRA:          -9.444
REMARK INTER:                  -8.869
REMARK INTRA:                  -0.575
REMARK UNBOUND:                -0.275
REMARK  Name = cpd258.pdb
REMARK  7 active torsions:
REMARK  status: ('A' for Active; 'I' for Inactive)
REMARK    1  A    between atoms: C_1  and  C_2
REMARK    2  A    between atoms: C_7  and  N_8
REMARK    3  A    between atoms: C_9  and  O_11
REMARK    4  A    between atoms: O_11  and  C_12
REMARK    5  A    between atoms: C_18  and  C_19
REMARK    6  A    between atoms: N_22  and  C_23
REMARK    7  A    between atoms: N_26  and  C_27
REMARK                            x       y       z     vdW  Elec       q    Type
REMARK                         _______ _______ _______ _____ _____    ______ ____
ROOT
ATOM      1  C   UNL A   1      42.074 -19.738 -37.885  0.00  0.00    +0.134 A 
ATOM      2  C   UNL A   1      42.769 -18.803 -37.095  0.00  0.00    -0.017 A 
ATOM      3  C   UNL A   1      42.574 -18.772 -35.712  0.00  0.00    -0.037 A 
ATOM      4  C   UNL A   1      41.727 -19.709 -35.152  0.00  0.00    +0.032 A 
ATOM      5  C   UNL A   1      41.046 -20.642 -35.968  0.00  0.00    -0.017 A 
ATOM      6  C   UNL A   1      41.206 -20.680 -37.338  0.00  0.00    -0.014 A 
ATOM      7  C   UNL A   1      40.167 -21.423 -35.041  0.00  0.00    +0.002 C 
ATOM      8  C   UNL A   1      38.826 -20.651 -34.911  0.00  0.00    -0.055 C 
ATOM      9  C   UNL A   1      39.933 -22.900 -35.195  0.00  0.00    -0.054 C 
ATOM     10  C   UNL A   1      39.576 -23.272 -33.761  0.00  0.00    -0.048 C 
ATOM     11  N   UNL A   1      40.300 -22.271 -32.837  0.00  0.00    +0.433 N 
ATOM     12  C   UNL A   1      41.106 -23.073 -31.839  0.00  0.00    -0.060 C 
ATOM     13  O   UNL A   1      39.410 -21.516 -32.120  0.00  0.00    -0.289 OA
ATOM     14  C   UNL A   1      41.234 -21.441 -33.812  0.00  0.00    +0.039 C 
ATOM     15  N   UNL A   1      41.378 -19.914 -33.792  0.00  0.00    -0.341 N 
ATOM     16  C   UNL A   1      42.126 -19.236 -32.751  0.00  0.00    -0.001 C 
ENDROOT
BRANCH   1  17
ATOM     17  O   UNL A   1      42.276 -19.779 -39.284  0.00  0.00    -0.411 OA
BRANCH  17  19
ATOM     18  N   UNL A   1      44.127 -21.110 -39.782  0.00  0.00    -0.251 N 
ATOM     19  C   UNL A   1      43.548 -19.866 -39.889  0.00  0.00    +0.410 C 
ATOM     20  O   UNL A   1      44.001 -18.872 -40.437  0.00  0.00    -0.226 OA
ATOM     21  H   UNL A   1      43.611 -21.764 -39.257  0.00  0.00    +0.000 HD
BRANCH  18  28
ATOM     22  C   UNL A   1      44.635 -21.932 -42.769  0.00  0.00    -0.038 C 
ATOM     23  C   UNL A   1      45.600 -22.030 -41.621  0.00  0.00    -0.029 A 
ATOM     24  C   UNL A   1      46.873 -22.561 -41.927  0.00  0.00    -0.057 A 
ATOM     25  C   UNL A   1      47.892 -22.613 -40.978  0.00  0.00    -0.061 A 
ATOM     26  C   UNL A   1      47.660 -22.126 -39.701  0.00  0.00    -0.060 A 
ATOM     27  C   UNL A   1      46.402 -21.620 -39.374  0.00  0.00    -0.040 A 
ATOM     28  C   UNL A   1      45.345 -21.599 -40.307  0.00  0.00    +0.039 A 
ENDBRANCH  18  28
ENDBRANCH  17  19
ENDBRANCH   1  17
TORSDOF 3
ENDMDL
MODEL 7
REMARK VINA RESULT:    -7.777     18.076     19.457
REMARK INTER + INTRA:          -9.415
REMARK INTER:                  -8.968
REMARK INTRA:                  -0.448
REMARK UNBOUND:                -0.275
REMARK  Name = cpd258.pdb
REMARK  7 active torsions:
REMARK  status: ('A' for Active; 'I' for Inactive)
REMARK    1  A    between atoms: C_1  and  C_2
REMARK    2  A    between atoms: C_7  and  N_8
REMARK    3  A    between atoms: C_9  and  O_11
REMARK    4  A    between atoms: O_11  and  C_12
REMARK    5  A    between atoms: C_18  and  C_19
REMARK    6  A    between atoms: N_22  and  C_23
REMARK    7  A    between atoms: N_26  and  C_27
REMARK                            x       y       z     vdW  Elec       q    Type
REMARK                         _______ _______ _______ _____ _____    ______ ____
ROOT
ATOM      1  C   UNL A   1      46.383 -18.863 -36.552  0.00  0.00    +0.134 A 
ATOM      2  C   UNL A   1      46.545 -17.965 -35.480  0.00  0.00    -0.017 A 
ATOM      3  C   UNL A   1      45.483 -17.719 -34.606  0.00  0.00    -0.037 A 
ATOM      4  C   UNL A   1      44.305 -18.414 -34.800  0.00  0.00    +0.032 A 
ATOM      5  C   UNL A   1      44.171 -19.316 -35.881  0.00  0.00    -0.017 A 
ATOM      6  C   UNL A   1      45.198 -19.561 -36.769  0.00  0.00    -0.014 A 
ATOM      7  C   UNL A   1      42.757 -19.806 -35.826  0.00  0.00    +0.002 C 
ATOM      8  C   UNL A   1      41.887 -18.805 -36.633  0.00  0.00    -0.055 C 
ATOM      9  C   UNL A   1      42.377 -21.228 -36.131  0.00  0.00    -0.054 C 
ATOM     10  C   UNL A   1      41.080 -21.340 -35.340  0.00  0.00    -0.048 C 
ATOM     11  N   UNL A   1      41.186 -20.366 -34.149  0.00  0.00    +0.433 N 
ATOM     12  C   UNL A   1      40.912 -21.155 -32.887  0.00  0.00    -0.060 C 
ATOM     13  O   UNL A   1      40.236 -19.381 -34.220  0.00  0.00    -0.289 OA
ATOM     14  C   UNL A   1      42.682 -19.844 -34.200  0.00  0.00    +0.039 C 
ATOM     15  N   UNL A   1      43.099 -18.375 -34.054  0.00  0.00    -0.341 N 
ATOM     16  C   UNL A   1      43.074 -17.705 -32.768  0.00  0.00    -0.001 C 
ENDROOT
BRANCH   1  17
ATOM     17  O   UNL A   1      47.459 -19.122 -37.433  0.00  0.00    -0.411 OA
BRANCH  17  19
ATOM     18  N   UNL A   1      47.529 -20.860 -38.988  0.00  0.00    -0.251 N 
ATOM     19  C   UNL A   1      47.292 -19.522 -38.776  0.00  0.00    +0.410 C 
ATOM     20  O   UNL A   1      46.958 -18.679 -39.596  0.00  0.00    -0.226 OA
ATOM     21  H   UNL A   1      47.835 -21.358 -38.195  0.00  0.00    +0.000 HD
BRANCH  18  28
ATOM     22  C   UNL A   1      49.867 -22.366 -40.445  0.00  0.00    -0.038 C 
ATOM     23  C   UNL A   1      48.431 -22.279 -40.878  0.00  0.00    -0.029 A 
ATOM     24  C   UNL A   1      48.106 -22.944 -42.082  0.00  0.00    -0.057 A 
ATOM     25  C   UNL A   1      46.794 -23.026 -42.543  0.00  0.00    -0.061 A 
ATOM     26  C   UNL A   1      45.774 -22.449 -41.802  0.00  0.00    -0.060 A 
ATOM     27  C   UNL A   1      46.079 -21.767 -40.624  0.00  0.00    -0.040 A 
ATOM     28  C   UNL A   1      47.405 -21.635 -40.164  0.00  0.00    +0.039 A 
ENDBRANCH  18  28
ENDBRANCH  17  19
ENDBRANCH   1  17
TORSDOF 3
ENDMDL
MODEL 8
REMARK VINA RESULT:    -7.771     16.852     19.462
REMARK INTER + INTRA:          -9.408
REMARK INTER:                  -8.805
REMARK INTRA:                  -0.603
REMARK UNBOUND:                -0.275
REMARK  Name = cpd258.pdb
REMARK  7 active torsions:
REMARK  status: ('A' for Active; 'I' for Inactive)
REMARK    1  A    between atoms: C_1  and  C_2
REMARK    2  A    between atoms: C_7  and  N_8
REMARK    3  A    between atoms: C_9  and  O_11
REMARK    4  A    between atoms: O_11  and  C_12
REMARK    5  A    between atoms: C_18  and  C_19
REMARK    6  A    between atoms: N_22  and  C_23
REMARK    7  A    between atoms: N_26  and  C_27
REMARK                            x       y       z     vdW  Elec       q    Type
REMARK                         _______ _______ _______ _____ _____    ______ ____
ROOT
ATOM      1  C   UNL A   1      41.260 -21.429 -39.534  0.00  0.00    +0.134 A 
ATOM      2  C   UNL A   1      41.209 -21.982 -40.827  0.00  0.00    -0.017 A 
ATOM      3  C   UNL A   1      42.351 -21.984 -41.633  0.00  0.00    -0.037 A 
ATOM      4  C   UNL A   1      43.522 -21.477 -41.106  0.00  0.00    +0.032 A 
ATOM      5  C   UNL A   1      43.547 -20.933 -39.801  0.00  0.00    -0.017 A 
ATOM      6  C   UNL A   1      42.430 -20.902 -38.992  0.00  0.00    -0.014 A 
ATOM      7  C   UNL A   1      44.937 -20.410 -39.607  0.00  0.00    +0.002 C 
ATOM      8  C   UNL A   1      44.965 -18.954 -40.148  0.00  0.00    -0.055 C 
ATOM      9  C   UNL A   1      45.673 -20.520 -38.301  0.00  0.00    -0.054 C 
ATOM     10  C   UNL A   1      47.114 -20.471 -38.794  0.00  0.00    -0.048 C 
ATOM     11  N   UNL A   1      47.128 -21.056 -40.221  0.00  0.00    +0.433 N 
ATOM     12  C   UNL A   1      48.157 -22.165 -40.250  0.00  0.00    -0.060 C 
ATOM     13  O   UNL A   1      47.521 -20.121 -41.142  0.00  0.00    -0.289 OA
ATOM     14  C   UNL A   1      45.659 -21.614 -40.432  0.00  0.00    +0.039 C 
ATOM     15  N   UNL A   1      44.812 -21.385 -41.690  0.00  0.00    -0.341 N 
ATOM     16  C   UNL A   1      45.089 -22.087 -42.929  0.00  0.00    -0.001 C 
ENDROOT
BRANCH   1  17
ATOM     17  O   UNL A   1      40.110 -21.434 -38.711  0.00  0.00    -0.411 OA
BRANCH  17  19
ATOM     18  N   UNL A   1      39.848 -20.844 -36.469  0.00  0.00    -0.251 N 
ATOM     19  C   UNL A   1      40.112 -21.855 -37.364  0.00  0.00    +0.410 C 
ATOM     20  O   UNL A   1      40.334 -23.033 -37.124  0.00  0.00    -0.226 OA
ATOM     21  H   UNL A   1      39.742 -19.952 -36.870  0.00  0.00    +0.000 HD
BRANCH  18  28
ATOM     22  C   UNL A   1      42.187 -20.689 -34.381  0.00  0.00    -0.038 C 
ATOM     23  C   UNL A   1      40.723 -20.874 -34.096  0.00  0.00    -0.029 A 
ATOM     24  C   UNL A   1      40.369 -21.000 -32.734  0.00  0.00    -0.057 A 
ATOM     25  C   UNL A   1      39.038 -21.075 -32.326  0.00  0.00    -0.061 A 
ATOM     26  C   UNL A   1      38.031 -21.018 -33.276  0.00  0.00    -0.060 A 
ATOM     27  C   UNL A   1      38.362 -20.918 -34.627  0.00  0.00    -0.040 A 
ATOM     28  C   UNL A   1      39.702 -20.884 -35.063  0.00  0.00    +0.039 A 
ENDBRANCH  18  28
ENDBRANCH  17  19
ENDBRANCH   1  17
TORSDOF 3
ENDMDL
MODEL 9
REMARK VINA RESULT:    -7.735      4.680      6.534
REMARK INTER + INTRA:          -9.366
REMARK INTER:                  -9.006
REMARK INTRA:                  -0.360
REMARK UNBOUND:                -0.275
REMARK  Name = cpd258.pdb
REMARK  7 active torsions:
REMARK  status: ('A' for Active; 'I' for Inactive)
REMARK    1  A    between atoms: C_1  and  C_2
REMARK    2  A    between atoms: C_7  and  N_8
REMARK    3  A    between atoms: C_9  and  O_11
REMARK    4  A    between atoms: O_11  and  C_12
REMARK    5  A    between atoms: C_18  and  C_19
REMARK    6  A    between atoms: N_22  and  C_23
REMARK    7  A    between atoms: N_26  and  C_27
REMARK                            x       y       z     vdW  Elec       q    Type
REMARK                         _______ _______ _______ _____ _____    ______ ____
ROOT
ATOM      1  C   UNL A   1      36.013 -37.962 -28.250  0.00  0.00    +0.134 A 
ATOM      2  C   UNL A   1      34.844 -37.233 -27.963  0.00  0.00    -0.017 A 
ATOM      3  C   UNL A   1      33.646 -37.905 -27.708  0.00  0.00    -0.037 A 
ATOM      4  C   UNL A   1      33.661 -39.286 -27.700  0.00  0.00    +0.032 A 
ATOM      5  C   UNL A   1      34.851 -39.994 -27.986  0.00  0.00    -0.017 A 
ATOM      6  C   UNL A   1      36.043 -39.355 -28.260  0.00  0.00    -0.014 A 
ATOM      7  C   UNL A   1      34.473 -41.443 -27.974  0.00  0.00    +0.002 C 
ATOM      8  C   UNL A   1      33.986 -41.808 -29.403  0.00  0.00    -0.055 C 
ATOM      9  C   UNL A   1      35.368 -42.512 -27.414  0.00  0.00    -0.054 C 
ATOM     10  C   UNL A   1      34.336 -43.574 -27.055  0.00  0.00    -0.048 C 
ATOM     11  N   UNL A   1      33.018 -42.839 -26.738  0.00  0.00    +0.433 N 
ATOM     12  C   UNL A   1      32.561 -43.291 -25.368  0.00  0.00    -0.060 C 
ATOM     13  O   UNL A   1      32.028 -43.180 -27.623  0.00  0.00    -0.289 OA
ATOM     14  C   UNL A   1      33.411 -41.303 -26.748  0.00  0.00    +0.039 C 
ATOM     15  N   UNL A   1      32.606 -40.201 -27.447  0.00  0.00    -0.341 N 
ATOM     16  C   UNL A   1      31.353 -39.716 -26.903  0.00  0.00    -0.001 C 
ENDROOT
BRANCH   1  17
ATOM     17  O   UNL A   1      37.231 -37.287 -28.499  0.00  0.00    -0.411 OA
BRANCH  17  19
ATOM     18  N   UNL A   1      39.256 -37.039 -29.632  0.00  0.00    -0.251 N 
ATOM     19  C   UNL A   1      37.916 -37.336 -29.732  0.00  0.00    +0.410 C 
ATOM     20  O   UNL A   1      37.285 -37.631 -30.736  0.00  0.00    -0.226 OA
ATOM     21  H   UNL A   1      39.557 -36.780 -28.731  0.00  0.00    +0.000 HD
BRANCH  18  28
ATOM     22  C   UNL A   1      39.479 -35.041 -32.043  0.00  0.00    -0.038 C 
ATOM     23  C   UNL A   1      40.377 -36.208 -31.742  0.00  0.00    -0.029 A 
ATOM     24  C   UNL A   1      41.431 -36.430 -32.656  0.00  0.00    -0.057 A 
ATOM     25  C   UNL A   1      42.393 -37.415 -32.440  0.00  0.00    -0.061 A 
ATOM     26  C   UNL A   1      42.324 -38.195 -31.297  0.00  0.00    -0.060 A 
ATOM     27  C   UNL A   1      41.276 -38.007 -30.396  0.00  0.00    -0.040 A 
ATOM     28  C   UNL A   1      40.269 -37.046 -30.618  0.00  0.00    +0.039 A 
ENDBRANCH  18  28
ENDBRANCH  17  19
ENDBRANCH   1  17
TORSDOF 3
ENDMDL
MODEL 10
REMARK VINA RESULT:    -7.717      1.831      2.561
REMARK INTER + INTRA:          -9.345
REMARK INTER:                  -9.083
REMARK INTRA:                  -0.262
REMARK UNBOUND:                -0.275
REMARK  Name = cpd258.pdb
REMARK  7 active torsions:
REMARK  status: ('A' for Active; 'I' for Inactive)
REMARK    1  A    between atoms: C_1  and  C_2
REMARK    2  A    between atoms: C_7  and  N_8
REMARK    3  A    between atoms: C_9  and  O_11
REMARK    4  A    between atoms: O_11  and  C_12
REMARK    5  A    between atoms: C_18  and  C_19
REMARK    6  A    between atoms: N_22  and  C_23
REMARK    7  A    between atoms: N_26  and  C_27
REMARK                            x       y       z     vdW  Elec       q    Type
REMARK                         _______ _______ _______ _____ _____    ______ ____
ROOT
ATOM      1  C   UNL A   1      35.854 -35.260 -30.999  0.00  0.00    +0.134 A 
ATOM      2  C   UNL A   1      36.223 -35.703 -29.715  0.00  0.00    -0.017 A 
ATOM      3  C   UNL A   1      35.239 -36.013 -28.772  0.00  0.00    -0.037 A 
ATOM      4  C   UNL A   1      33.915 -35.915 -29.156  0.00  0.00    +0.032 A 
ATOM      5  C   UNL A   1      33.573 -35.474 -30.455  0.00  0.00    -0.017 A 
ATOM      6  C   UNL A   1      34.525 -35.144 -31.397  0.00  0.00    -0.014 A 
ATOM      7  C   UNL A   1      32.077 -35.411 -30.479  0.00  0.00    +0.002 C 
ATOM      8  C   UNL A   1      31.662 -34.008 -29.959  0.00  0.00    -0.055 C 
ATOM      9  C   UNL A   1      31.266 -35.809 -31.681  0.00  0.00    -0.054 C 
ATOM     10  C   UNL A   1      29.948 -36.177 -31.013  0.00  0.00    -0.048 C 
ATOM     11  N   UNL A   1      30.279 -36.663 -29.587  0.00  0.00    +0.433 N 
ATOM     12  C   UNL A   1      29.655 -38.031 -29.414  0.00  0.00    -0.060 C 
ATOM     13  O   UNL A   1      29.725 -35.847 -28.637  0.00  0.00    -0.289 OA
ATOM     14  C   UNL A   1      31.863 -36.733 -29.554  0.00  0.00    +0.039 C 
ATOM     15  N   UNL A   1      32.737 -36.192 -28.416  0.00  0.00    -0.341 N 
ATOM     16  C   UNL A   1      32.835 -36.880 -27.143  0.00  0.00    -0.001 C 
ENDROOT
BRANCH   1  17
ATOM     17  O   UNL A   1      36.847 -34.956 -31.959  0.00  0.00    -0.411 OA
BRANCH  17  19
ATOM     18  N   UNL A   1      38.651 -36.393 -31.601  0.00  0.00    -0.251 N 
ATOM     19  C   UNL A   1      38.233 -35.088 -31.722  0.00  0.00    +0.410 C 
ATOM     20  O   UNL A   1      38.910 -34.072 -31.655  0.00  0.00    -0.226 OA
ATOM     21  H   UNL A   1      37.932 -37.064 -31.642  0.00  0.00    +0.000 HD
BRANCH  18  28
ATOM     22  C   UNL A   1      40.983 -36.250 -33.698  0.00  0.00    -0.038 C 
ATOM     23  C   UNL A   1      41.003 -36.931 -32.358  0.00  0.00    -0.029 A 
ATOM     24  C   UNL A   1      42.207 -37.586 -32.016  0.00  0.00    -0.057 A 
ATOM     25  C   UNL A   1      42.394 -38.169 -30.764  0.00  0.00    -0.061 A 
ATOM     26  C   UNL A   1      41.378 -38.103 -29.823  0.00  0.00    -0.060 A 
ATOM     27  C   UNL A   1      40.173 -37.482 -30.152  0.00  0.00    -0.040 A 
ATOM     28  C   UNL A   1      39.949 -36.924 -31.428  0.00  0.00    +0.039 A 
ENDBRANCH  18  28
ENDBRANCH  17  19
ENDBRANCH   1  17
TORSDOF 3
ENDMDL
MODEL 11
REMARK VINA RESULT:    -7.586      2.032      3.381
REMARK INTER + INTRA:          -9.191
REMARK INTER:                  -9.155
REMARK INTRA:                  -0.036
REMARK UNBOUND:                -0.275
REMARK  Name = cpd258.pdb
REMARK  7 active torsions:
REMARK  status: ('A' for Active; 'I' for Inactive)
REMARK    1  A    between atoms: C_1  and  C_2
REMARK    2  A    between atoms: C_7  and  N_8
REMARK    3  A    between atoms: C_9  and  O_11
REMARK    4  A    between atoms: O_11  and  C_12
REMARK    5  A    between atoms: C_18  and  C_19
REMARK    6  A    between atoms: N_22  and  C_23
REMARK    7  A    between atoms: N_26  and  C_27
REMARK                            x       y       z     vdW  Elec       q    Type
REMARK                         _______ _______ _______ _____ _____    ______ ____
ROOT
ATOM      1  C   UNL A   1      33.800 -33.950 -31.612  0.00  0.00    +0.134 A 
ATOM      2  C   UNL A   1      34.101 -32.603 -31.333  0.00  0.00    -0.017 A 
ATOM      3  C   UNL A   1      33.073 -31.703 -31.039  0.00  0.00    -0.037 A 
ATOM      4  C   UNL A   1      31.780 -32.186 -30.984  0.00  0.00    +0.032 A 
ATOM      5  C   UNL A   1      31.506 -33.545 -31.261  0.00  0.00    -0.017 A 
ATOM      6  C   UNL A   1      32.500 -34.449 -31.573  0.00  0.00    -0.014 A 
ATOM      7  C   UNL A   1      30.016 -33.680 -31.193  0.00  0.00    +0.002 C 
ATOM      8  C   UNL A   1      29.455 -33.343 -32.601  0.00  0.00    -0.055 C 
ATOM      9  C   UNL A   1      29.335 -34.885 -30.608  0.00  0.00    -0.054 C 
ATOM     10  C   UNL A   1      28.001 -34.274 -30.199  0.00  0.00    -0.048 C 
ATOM     11  N   UNL A   1      28.257 -32.785 -29.889  0.00  0.00    +0.433 N 
ATOM     12  C   UNL A   1      27.729 -32.510 -28.498  0.00  0.00    -0.060 C 
ATOM     13  O   UNL A   1      27.569 -31.968 -30.748  0.00  0.00    -0.289 OA
ATOM     14  C   UNL A   1      29.834 -32.635 -29.958  0.00  0.00    +0.039 C 
ATOM     15  N   UNL A   1      30.572 -31.503 -30.684  0.00  0.00    -0.341 N 
ATOM     16  C   UNL A   1      30.624 -30.160 -30.140  0.00  0.00    -0.001 C 
ENDROOT
BRANCH   1  17
ATOM     17  O   UNL A   1      34.838 -34.867 -31.900  0.00  0.00    -0.411 OA
BRANCH  17  19
ATOM     18  N   UNL A   1      36.843 -35.996 -31.511  0.00  0.00    -0.251 N 
ATOM     19  C   UNL A   1      35.814 -35.266 -30.962  0.00  0.00    +0.410 C 
ATOM     20  O   UNL A   1      35.666 -34.936 -29.794  0.00  0.00    -0.226 OA
ATOM     21  H   UNL A   1      36.745 -36.192 -32.471  0.00  0.00    +0.000 HD
BRANCH  18  28
ATOM     22  C   UNL A   1      39.759 -35.650 -32.621  0.00  0.00    -0.038 C 
ATOM     23  C   UNL A   1      39.333 -36.425 -31.406  0.00  0.00    -0.029 A 
ATOM     24  C   UNL A   1      40.366 -37.076 -30.694  0.00  0.00    -0.057 A 
ATOM     25  C   UNL A   1      40.121 -37.743 -29.496  0.00  0.00    -0.061 A 
ATOM     26  C   UNL A   1      38.836 -37.767 -28.979  0.00  0.00    -0.060 A 
ATOM     27  C   UNL A   1      37.800 -37.151 -29.680  0.00  0.00    -0.040 A 
ATOM     28  C   UNL A   1      38.018 -36.508 -30.916  0.00  0.00    +0.039 A 
ENDBRANCH  18  28
ENDBRANCH  17  19
ENDBRANCH   1  17
TORSDOF 3
ENDMDL
MODEL 12
REMARK VINA RESULT:    -7.574      2.608      4.200
REMARK INTER + INTRA:          -9.177
REMARK INTER:                  -8.742
REMARK INTRA:                  -0.435
REMARK UNBOUND:                -0.275
REMARK  Name = cpd258.pdb
REMARK  7 active torsions:
REMARK  status: ('A' for Active; 'I' for Inactive)
REMARK    1  A    between atoms: C_1  and  C_2
REMARK    2  A    between atoms: C_7  and  N_8
REMARK    3  A    between atoms: C_9  and  O_11
REMARK    4  A    between atoms: O_11  and  C_12
REMARK    5  A    between atoms: C_18  and  C_19
REMARK    6  A    between atoms: N_22  and  C_23
REMARK    7  A    between atoms: N_26  and  C_27
REMARK                            x       y       z     vdW  Elec       q    Type
REMARK                         _______ _______ _______ _____ _____    ______ ____
ROOT
ATOM      1  C   UNL A   1      32.927 -33.175 -31.756  0.00  0.00    +0.134 A 
ATOM      2  C   UNL A   1      32.153 -34.329 -31.979  0.00  0.00    -0.017 A 
ATOM      3  C   UNL A   1      30.776 -34.306 -31.743  0.00  0.00    -0.037 A 
ATOM      4  C   UNL A   1      30.205 -33.115 -31.337  0.00  0.00    +0.032 A 
ATOM      5  C   UNL A   1      31.004 -31.968 -31.126  0.00  0.00    -0.017 A 
ATOM      6  C   UNL A   1      32.368 -31.971 -31.334  0.00  0.00    -0.014 A 
ATOM      7  C   UNL A   1      30.072 -30.914 -30.616  0.00  0.00    +0.002 C 
ATOM      8  C   UNL A   1      29.996 -31.069 -29.072  0.00  0.00    -0.055 C 
ATOM      9  C   UNL A   1      30.182 -29.468 -31.014  0.00  0.00    -0.054 C 
ATOM     10  C   UNL A   1      28.746 -29.013 -30.794  0.00  0.00    -0.048 C 
ATOM     11  N   UNL A   1      27.839 -30.241 -31.012  0.00  0.00    +0.433 N 
ATOM     12  C   UNL A   1      26.798 -29.863 -32.043  0.00  0.00    -0.060 C 
ATOM     13  O   UNL A   1      27.166 -30.578 -29.868  0.00  0.00    -0.289 OA
ATOM     14  C   UNL A   1      28.820 -31.362 -31.555  0.00  0.00    +0.039 C 
ATOM     15  N   UNL A   1      28.847 -32.813 -31.058  0.00  0.00    -0.341 N 
ATOM     16  C   UNL A   1      27.812 -33.760 -31.428  0.00  0.00    -0.001 C 
ENDROOT
BRANCH   1  17
ATOM     17  O   UNL A   1      34.319 -33.192 -32.003  0.00  0.00    -0.411 OA
BRANCH  17  19
ATOM     18  N   UNL A   1      35.888 -34.857 -31.541  0.00  0.00    -0.251 N 
ATOM     19  C   UNL A   1      35.269 -33.711 -31.097  0.00  0.00    +0.410 C 
ATOM     20  O   UNL A   1      35.454 -33.117 -30.045  0.00  0.00    -0.226 OA
ATOM     21  H   UNL A   1      35.558 -35.198 -32.404  0.00  0.00    +0.000 HD
BRANCH  18  28
ATOM     22  C   UNL A   1      38.914 -34.784 -32.376  0.00  0.00    -0.038 C 
ATOM     23  C   UNL A   1      38.277 -35.661 -31.335  0.00  0.00    -0.029 A 
ATOM     24  C   UNL A   1      39.142 -36.557 -30.668  0.00  0.00    -0.057 A 
ATOM     25  C   UNL A   1      38.701 -37.353 -29.612  0.00  0.00    -0.061 A 
ATOM     26  C   UNL A   1      37.382 -37.264 -29.197  0.00  0.00    -0.060 A 
ATOM     27  C   UNL A   1      36.507 -36.403 -29.859  0.00  0.00    -0.040 A 
ATOM     28  C   UNL A   1      36.923 -35.621 -30.957  0.00  0.00    +0.039 A 
ENDBRANCH  18  28
ENDBRANCH  17  19
ENDBRANCH   1  17
TORSDOF 3
ENDMDL
MODEL 13
REMARK VINA RESULT:    -7.560     16.047     17.441
REMARK INTER + INTRA:          -9.160
REMARK INTER:                  -8.745
REMARK INTRA:                  -0.415
REMARK UNBOUND:                -0.275
REMARK  Name = cpd258.pdb
REMARK  7 active torsions:
REMARK  status: ('A' for Active; 'I' for Inactive)
REMARK    1  A    between atoms: C_1  and  C_2
REMARK    2  A    between atoms: C_7  and  N_8
REMARK    3  A    between atoms: C_9  and  O_11
REMARK    4  A    between atoms: O_11  and  C_12
REMARK    5  A    between atoms: C_18  and  C_19
REMARK    6  A    between atoms: N_22  and  C_23
REMARK    7  A    between atoms: N_26  and  C_27
REMARK                            x       y       z     vdW  Elec       q    Type
REMARK                         _______ _______ _______ _____ _____    ______ ____
ROOT
ATOM      1  C   UNL A   1      40.957 -21.506 -38.714  0.00  0.00    +0.134 A 
ATOM      2  C   UNL A   1      40.023 -20.468 -38.892  0.00  0.00    -0.017 A 
ATOM      3  C   UNL A   1      39.076 -20.201 -37.900  0.00  0.00    -0.037 A 
ATOM      4  C   UNL A   1      39.121 -20.947 -36.737  0.00  0.00    +0.032 A 
ATOM      5  C   UNL A   1      40.075 -21.979 -36.582  0.00  0.00    -0.017 A 
ATOM      6  C   UNL A   1      41.008 -22.275 -37.554  0.00  0.00    -0.014 A 
ATOM      7  C   UNL A   1      39.771 -22.615 -35.260  0.00  0.00    +0.002 C 
ATOM      8  C   UNL A   1      38.708 -23.718 -35.509  0.00  0.00    -0.055 C 
ATOM      9  C   UNL A   1      40.844 -23.093 -34.322  0.00  0.00    -0.054 C 
ATOM     10  C   UNL A   1      40.101 -23.017 -32.995  0.00  0.00    -0.048 C 
ATOM     11  N   UNL A   1      39.045 -21.900 -33.125  0.00  0.00    +0.433 N 
ATOM     12  C   UNL A   1      39.254 -20.938 -31.976  0.00  0.00    -0.060 C 
ATOM     13  O   UNL A   1      37.773 -22.395 -33.007  0.00  0.00    -0.289 OA
ATOM     14  C   UNL A   1      39.362 -21.222 -34.523  0.00  0.00    +0.039 C 
ATOM     15  N   UNL A   1      38.308 -20.865 -35.578  0.00  0.00    -0.341 N 
ATOM     16  C   UNL A   1      37.417 -19.733 -35.407  0.00  0.00    -0.001 C 
ENDROOT
BRANCH   1  17
ATOM     17  O   UNL A   1      41.923 -21.773 -39.712  0.00  0.00    -0.411 OA
BRANCH  17  19
ATOM     18  N   UNL A   1      44.062 -21.804 -40.646  0.00  0.00    -0.251 N 
ATOM     19  C   UNL A   1      43.239 -21.264 -39.684  0.00  0.00    +0.410 C 
ATOM     20  O   UNL A   1      43.517 -20.418 -38.846  0.00  0.00    -0.226 OA
ATOM     21  H   UNL A   1      43.650 -22.510 -41.194  0.00  0.00    +0.000 HD
BRANCH  18  28
ATOM     22  C   UNL A   1      45.071 -19.172 -42.027  0.00  0.00    -0.038 C 
ATOM     23  C   UNL A   1      45.893 -20.368 -41.638  0.00  0.00    -0.029 A 
ATOM     24  C   UNL A   1      47.271 -20.297 -41.939  0.00  0.00    -0.057 A 
ATOM     25  C   UNL A   1      48.161 -21.293 -41.541  0.00  0.00    -0.061 A 
ATOM     26  C   UNL A   1      47.689 -22.382 -40.826  0.00  0.00    -0.060 A 
ATOM     27  C   UNL A   1      46.327 -22.482 -40.541  0.00  0.00    -0.040 A 
ATOM     28  C   UNL A   1      45.405 -21.506 -40.971  0.00  0.00    +0.039 A 
ENDBRANCH  18  28
ENDBRANCH  17  19
ENDBRANCH   1  17
TORSDOF 3
ENDMDL
MODEL 14
REMARK VINA RESULT:    -7.221     25.489     28.331
REMARK INTER + INTRA:          -8.763
REMARK INTER:                  -8.169
REMARK INTRA:                  -0.594
REMARK UNBOUND:                -0.275
REMARK  Name = cpd258.pdb
REMARK  7 active torsions:
REMARK  status: ('A' for Active; 'I' for Inactive)
REMARK    1  A    between atoms: C_1  and  C_2
REMARK    2  A    between atoms: C_7  and  N_8
REMARK    3  A    between atoms: C_9  and  O_11
REMARK    4  A    between atoms: O_11  and  C_12
REMARK    5  A    between atoms: C_18  and  C_19
REMARK    6  A    between atoms: N_22  and  C_23
REMARK    7  A    between atoms: N_26  and  C_27
REMARK                            x       y       z     vdW  Elec       q    Type
REMARK                         _______ _______ _______ _____ _____    ______ ____
ROOT
ATOM      1  C   UNL A   1      47.716 -31.388 -53.904  0.00  0.00    +0.134 A 
ATOM      2  C   UNL A   1      48.219 -30.154 -53.453  0.00  0.00    -0.017 A 
ATOM      3  C   UNL A   1      48.178 -29.034 -54.287  0.00  0.00    -0.037 A 
ATOM      4  C   UNL A   1      47.591 -29.168 -55.530  0.00  0.00    +0.032 A 
ATOM      5  C   UNL A   1      47.086 -30.419 -55.956  0.00  0.00    -0.017 A 
ATOM      6  C   UNL A   1      47.132 -31.544 -55.159  0.00  0.00    -0.014 A 
ATOM      7  C   UNL A   1      46.614 -30.207 -57.362  0.00  0.00    +0.002 C 
ATOM      8  C   UNL A   1      47.828 -30.446 -58.300  0.00  0.00    -0.055 C 
ATOM      9  C   UNL A   1      45.369 -30.849 -57.907  0.00  0.00    -0.054 C 
ATOM     10  C   UNL A   1      45.017 -29.865 -59.015  0.00  0.00    -0.048 C 
ATOM     11  N   UNL A   1      45.555 -28.484 -58.588  0.00  0.00    +0.433 N 
ATOM     12  C   UNL A   1      44.403 -27.505 -58.654  0.00  0.00    -0.060 C 
ATOM     13  O   UNL A   1      46.517 -28.031 -59.453  0.00  0.00    -0.289 OA
ATOM     14  C   UNL A   1      46.055 -28.701 -57.099  0.00  0.00    +0.039 C 
ATOM     15  N   UNL A   1      47.395 -28.199 -56.548  0.00  0.00    -0.341 N 
ATOM     16  C   UNL A   1      47.616 -26.796 -56.253  0.00  0.00    -0.001 C 
ENDROOT
BRANCH   1  17
ATOM     17  O   UNL A   1      47.746 -32.522 -53.059  0.00  0.00    -0.411 OA
BRANCH  17  19
ATOM     18  N   UNL A   1      46.086 -34.134 -53.362  0.00  0.00    -0.251 N 
ATOM     19  C   UNL A   1      47.422 -33.828 -53.488  0.00  0.00    +0.410 C 
ATOM     20  O   UNL A   1      48.318 -34.537 -53.920  0.00  0.00    -0.226 OA
ATOM     21  H   UNL A   1      45.537 -33.432 -52.943  0.00  0.00    +0.000 HD
BRANCH  18  28
ATOM     22  C   UNL A   1      44.375 -34.473 -55.972  0.00  0.00    -0.038 C 
ATOM     23  C   UNL A   1      44.556 -35.474 -54.865  0.00  0.00    -0.029 A 
ATOM     24  C   UNL A   1      43.868 -36.699 -55.020  0.00  0.00    -0.057 A 
ATOM     25  C   UNL A   1      44.029 -37.749 -54.118  0.00  0.00    -0.061 A 
ATOM     26  C   UNL A   1      44.891 -37.597 -53.043  0.00  0.00    -0.060 A 
ATOM     27  C   UNL A   1      45.559 -36.387 -52.861  0.00  0.00    -0.040 A 
ATOM     28  C   UNL A   1      45.377 -35.298 -53.737  0.00  0.00    +0.039 A 
ENDBRANCH  18  28
ENDBRANCH  17  19
ENDBRANCH   1  17
TORSDOF 3
ENDMDL
MODEL 15
REMARK VINA RESULT:    -7.096     16.258     19.060
REMARK INTER + INTRA:          -8.615
REMARK INTER:                  -8.123
REMARK INTRA:                  -0.492
REMARK UNBOUND:                -0.275
REMARK  Name = cpd258.pdb
REMARK  7 active torsions:
REMARK  status: ('A' for Active; 'I' for Inactive)
REMARK    1  A    between atoms: C_1  and  C_2
REMARK    2  A    between atoms: C_7  and  N_8
REMARK    3  A    between atoms: C_9  and  O_11
REMARK    4  A    between atoms: O_11  and  C_12
REMARK    5  A    between atoms: C_18  and  C_19
REMARK    6  A    between atoms: N_22  and  C_23
REMARK    7  A    between atoms: N_26  and  C_27
REMARK                            x       y       z     vdW  Elec       q    Type
REMARK                         _______ _______ _______ _____ _____    ______ ____
ROOT
ATOM      1  C   UNL A   1      41.095 -22.345 -37.467  0.00  0.00    +0.134 A 
ATOM      2  C   UNL A   1      40.653 -22.664 -38.764  0.00  0.00    -0.017 A 
ATOM      3  C   UNL A   1      41.361 -22.206 -39.878  0.00  0.00    -0.037 A 
ATOM      4  C   UNL A   1      42.518 -21.482 -39.662  0.00  0.00    +0.032 A 
ATOM      5  C   UNL A   1      42.943 -21.181 -38.347  0.00  0.00    -0.017 A 
ATOM      6  C   UNL A   1      42.252 -21.605 -37.232  0.00  0.00    -0.014 A 
ATOM      7  C   UNL A   1      44.162 -20.323 -38.503  0.00  0.00    +0.002 C 
ATOM      8  C   UNL A   1      43.682 -18.851 -38.619  0.00  0.00    -0.055 C 
ATOM      9  C   UNL A   1      45.357 -20.438 -37.599  0.00  0.00    -0.054 C 
ATOM     10  C   UNL A   1      46.447 -19.898 -38.517  0.00  0.00    -0.048 C 
ATOM     11  N   UNL A   1      46.017 -20.206 -39.966  0.00  0.00    +0.433 N 
ATOM     12  C   UNL A   1      47.152 -20.955 -40.630  0.00  0.00    -0.060 C 
ATOM     13  O   UNL A   1      45.820 -19.057 -40.685  0.00  0.00    -0.289 OA
ATOM     14  C   UNL A   1      44.728 -21.115 -39.808  0.00  0.00    +0.039 C 
ATOM     15  N   UNL A   1      43.427 -20.929 -40.600  0.00  0.00    -0.341 N 
ATOM     16  C   UNL A   1      43.331 -21.305 -41.998  0.00  0.00    -0.001 C 
ENDROOT
BRANCH   1  17
ATOM     17  O   UNL A   1      40.387 -22.816 -36.336  0.00  0.00    -0.411 OA
BRANCH  17  19
ATOM     18  N   UNL A   1      38.792 -21.345 -35.476  0.00  0.00    -0.251 N 
ATOM     19  C   UNL A   1      39.988 -21.991 -35.262  0.00  0.00    +0.410 C 
ATOM     20  O   UNL A   1      40.709 -21.931 -34.277  0.00  0.00    -0.226 OA
ATOM     21  H   UNL A   1      38.392 -21.496 -36.363  0.00  0.00    +0.000 HD
BRANCH  18  28
ATOM     22  C   UNL A   1      37.032 -22.283 -33.051  0.00  0.00    -0.038 C 
ATOM     23  C   UNL A   1      37.203 -20.881 -33.564  0.00  0.00    -0.029 A 
ATOM     24  C   UNL A   1      36.479 -19.879 -32.878  0.00  0.00    -0.057 A 
ATOM     25  C   UNL A   1      36.626 -18.528 -33.187  0.00  0.00    -0.061 A 
ATOM     26  C   UNL A   1      37.507 -18.150 -34.187  0.00  0.00    -0.060 A 
ATOM     27  C   UNL A   1      38.212 -19.126 -34.891  0.00  0.00    -0.040 A 
ATOM     28  C   UNL A   1      38.045 -20.501 -34.623  0.00  0.00    +0.039 A 
ENDBRANCH  18  28
ENDBRANCH  17  19
ENDBRANCH   1  17
TORSDOF 3
ENDMDL
MODEL 16
REMARK VINA RESULT:    -7.054     24.278     25.986
REMARK INTER + INTRA:          -8.566
REMARK INTER:                  -7.970
REMARK INTRA:                  -0.596
REMARK UNBOUND:                -0.275
REMARK  Name = cpd258.pdb
REMARK  7 active torsions:
REMARK  status: ('A' for Active; 'I' for Inactive)
REMARK    1  A    between atoms: C_1  and  C_2
REMARK    2  A    between atoms: C_7  and  N_8
REMARK    3  A    between atoms: C_9  and  O_11
REMARK    4  A    between atoms: O_11  and  C_12
REMARK    5  A    between atoms: C_18  and  C_19
REMARK    6  A    between atoms: N_22  and  C_23
REMARK    7  A    between atoms: N_26  and  C_27
REMARK                            x       y       z     vdW  Elec       q    Type
REMARK                         _______ _______ _______ _____ _____    ______ ____
ROOT
ATOM      1  C   UNL A   1      46.815 -15.999 -40.418  0.00  0.00    +0.134 A 
ATOM      2  C   UNL A   1      45.592 -15.359 -40.694  0.00  0.00    -0.017 A 
ATOM      3  C   UNL A   1      45.561 -14.239 -41.528  0.00  0.00    -0.037 A 
ATOM      4  C   UNL A   1      46.747 -13.819 -42.100  0.00  0.00    +0.032 A 
ATOM      5  C   UNL A   1      47.960 -14.484 -41.811  0.00  0.00    -0.017 A 
ATOM      6  C   UNL A   1      48.020 -15.581 -40.976  0.00  0.00    -0.014 A 
ATOM      7  C   UNL A   1      49.026 -13.711 -42.526  0.00  0.00    +0.002 C 
ATOM      8  C   UNL A   1      49.493 -12.576 -41.575  0.00  0.00    -0.055 C 
ATOM      9  C   UNL A   1      50.194 -14.372 -43.202  0.00  0.00    -0.054 C 
ATOM     10  C   UNL A   1      50.544 -13.313 -44.240  0.00  0.00    -0.048 C 
ATOM     11  N   UNL A   1      49.242 -12.561 -44.581  0.00  0.00    +0.433 N 
ATOM     12  C   UNL A   1      49.064 -12.612 -46.083  0.00  0.00    -0.060 C 
ATOM     13  O   UNL A   1      49.321 -11.238 -44.232  0.00  0.00    -0.289 OA
ATOM     14  C   UNL A   1      48.109 -13.375 -43.828  0.00  0.00    +0.039 C 
ATOM     15  N   UNL A   1      46.989 -12.743 -42.993  0.00  0.00    -0.341 N 
ATOM     16  C   UNL A   1      45.869 -12.063 -43.616  0.00  0.00    -0.001 C 
ENDROOT
BRANCH   1  17
ATOM     17  O   UNL A   1      46.849 -17.140 -39.582  0.00  0.00    -0.411 OA
BRANCH  17  19
ATOM     18  N   UNL A   1      46.828 -19.000 -40.992  0.00  0.00    -0.251 N 
ATOM     19  C   UNL A   1      46.246 -18.372 -39.915  0.00  0.00    +0.410 C 
ATOM     20  O   UNL A   1      45.304 -18.759 -39.240  0.00  0.00    -0.226 OA
ATOM     21  H   UNL A   1      47.552 -18.492 -41.426  0.00  0.00    +0.000 HD
BRANCH  18  28
ATOM     22  C   UNL A   1      44.314 -19.698 -42.738  0.00  0.00    -0.038 C 
ATOM     23  C   UNL A   1      45.416 -20.628 -42.315  0.00  0.00    -0.029 A 
ATOM     24  C   UNL A   1      45.295 -21.968 -42.748  0.00  0.00    -0.057 A 
ATOM     25  C   UNL A   1      46.296 -22.908 -42.511  0.00  0.00    -0.061 A 
ATOM     26  C   UNL A   1      47.446 -22.524 -41.841  0.00  0.00    -0.060 A 
ATOM     27  C   UNL A   1      47.573 -21.212 -41.384  0.00  0.00    -0.040 A 
ATOM     28  C   UNL A   1      46.553 -20.257 -41.575  0.00  0.00    +0.039 A 
ENDBRANCH  18  28
ENDBRANCH  17  19
ENDBRANCH   1  17
TORSDOF 3
ENDMDL
MODEL 17
REMARK VINA RESULT:    -7.038     26.383     30.728
REMARK INTER + INTRA:          -8.547
REMARK INTER:                  -8.016
REMARK INTRA:                  -0.531
REMARK UNBOUND:                -0.275
REMARK  Name = cpd258.pdb
REMARK  7 active torsions:
REMARK  status: ('A' for Active; 'I' for Inactive)
REMARK    1  A    between atoms: C_1  and  C_2
REMARK    2  A    between atoms: C_7  and  N_8
REMARK    3  A    between atoms: C_9  and  O_11
REMARK    4  A    between atoms: O_11  and  C_12
REMARK    5  A    between atoms: C_18  and  C_19
REMARK    6  A    between atoms: N_22  and  C_23
REMARK    7  A    between atoms: N_26  and  C_27
REMARK                            x       y       z     vdW  Elec       q    Type
REMARK                         _______ _______ _______ _____ _____    ______ ____
ROOT
ATOM      1  C   UNL A   1      56.811 -35.495 -52.753  0.00  0.00    +0.134 A 
ATOM      2  C   UNL A   1      58.145 -35.357 -53.179  0.00  0.00    -0.017 A 
ATOM      3  C   UNL A   1      58.486 -34.363 -54.101  0.00  0.00    -0.037 A 
ATOM      4  C   UNL A   1      57.492 -33.506 -54.533  0.00  0.00    +0.032 A 
ATOM      5  C   UNL A   1      56.160 -33.663 -54.082  0.00  0.00    -0.017 A 
ATOM      6  C   UNL A   1      55.795 -34.648 -53.188  0.00  0.00    -0.014 A 
ATOM      7  C   UNL A   1      55.361 -32.631 -54.816  0.00  0.00    +0.002 C 
ATOM      8  C   UNL A   1      54.915 -33.260 -56.164  0.00  0.00    -0.055 C 
ATOM      9  C   UNL A   1      54.239 -31.864 -54.174  0.00  0.00    -0.054 C 
ATOM     10  C   UNL A   1      54.234 -30.610 -55.038  0.00  0.00    -0.048 C 
ATOM     11  N   UNL A   1      55.674 -30.405 -55.553  0.00  0.00    +0.433 N 
ATOM     12  C   UNL A   1      56.095 -28.999 -55.183  0.00  0.00    -0.060 C 
ATOM     13  O   UNL A   1      55.737 -30.496 -56.918  0.00  0.00    -0.289 OA
ATOM     14  C   UNL A   1      56.527 -31.494 -54.779  0.00  0.00    +0.039 C 
ATOM     15  N   UNL A   1      57.570 -32.410 -55.431  0.00  0.00    -0.341 N 
ATOM     16  C   UNL A   1      58.869 -31.910 -55.839  0.00  0.00    -0.001 C 
ENDROOT
BRANCH   1  17
ATOM     17  O   UNL A   1      56.463 -36.493 -51.812  0.00  0.00    -0.411 OA
BRANCH  17  19
ATOM     18  N   UNL A   1      55.825 -35.446 -49.826  0.00  0.00    -0.251 N 
ATOM     19  C   UNL A   1      56.663 -36.361 -50.421  0.00  0.00    +0.410 C 
ATOM     20  O   UNL A   1      57.523 -37.048 -49.890  0.00  0.00    -0.226 OA
ATOM     21  H   UNL A   1      55.232 -34.963 -50.446  0.00  0.00    +0.000 HD
BRANCH  18  28
ATOM     22  C   UNL A   1      54.445 -37.192 -47.612  0.00  0.00    -0.038 C 
ATOM     23  C   UNL A   1      55.022 -35.813 -47.456  0.00  0.00    -0.029 A 
ATOM     24  C   UNL A   1      54.920 -35.242 -46.168  0.00  0.00    -0.057 A 
ATOM     25  C   UNL A   1      55.503 -34.014 -45.863  0.00  0.00    -0.061 A 
ATOM     26  C   UNL A   1      56.209 -33.332 -46.842  0.00  0.00    -0.060 A 
ATOM     27  C   UNL A   1      56.299 -33.869 -48.126  0.00  0.00    -0.040 A 
ATOM     28  C   UNL A   1      55.680 -35.089 -48.467  0.00  0.00    +0.039 A 
ENDBRANCH  18  28
ENDBRANCH  17  19
ENDBRANCH   1  17
TORSDOF 3
ENDMDL
MODEL 18
REMARK VINA RESULT:    -7.014      3.490      4.516
REMARK INTER + INTRA:          -8.519
REMARK INTER:                  -7.908
REMARK INTRA:                  -0.612
REMARK UNBOUND:                -0.275
REMARK  Name = cpd258.pdb
REMARK  7 active torsions:
REMARK  status: ('A' for Active; 'I' for Inactive)
REMARK    1  A    between atoms: C_1  and  C_2
REMARK    2  A    between atoms: C_7  and  N_8
REMARK    3  A    between atoms: C_9  and  O_11
REMARK    4  A    between atoms: O_11  and  C_12
REMARK    5  A    between atoms: C_18  and  C_19
REMARK    6  A    between atoms: N_22  and  C_23
REMARK    7  A    between atoms: N_26  and  C_27
REMARK                            x       y       z     vdW  Elec       q    Type
REMARK                         _______ _______ _______ _____ _____    ______ ____
ROOT
ATOM      1  C   UNL A   1      36.281 -39.548 -29.010  0.00  0.00    +0.134 A 
ATOM      2  C   UNL A   1      35.969 -40.686 -29.776  0.00  0.00    -0.017 A 
ATOM      3  C   UNL A   1      34.728 -40.784 -30.411  0.00  0.00    -0.037 A 
ATOM      4  C   UNL A   1      33.854 -39.721 -30.300  0.00  0.00    +0.032 A 
ATOM      5  C   UNL A   1      34.195 -38.586 -29.529  0.00  0.00    -0.017 A 
ATOM      6  C   UNL A   1      35.406 -38.473 -28.877  0.00  0.00    -0.014 A 
ATOM      7  C   UNL A   1      32.992 -37.695 -29.566  0.00  0.00    +0.002 C 
ATOM      8  C   UNL A   1      32.057 -38.127 -28.404  0.00  0.00    -0.055 C 
ATOM      9  C   UNL A   1      33.092 -36.197 -29.658  0.00  0.00    -0.054 C 
ATOM     10  C   UNL A   1      31.746 -35.872 -30.293  0.00  0.00    -0.048 C 
ATOM     11  N   UNL A   1      31.336 -37.091 -31.144  0.00  0.00    +0.433 N 
ATOM     12  C   UNL A   1      31.046 -36.595 -32.544  0.00  0.00    -0.060 C 
ATOM     13  O   UNL A   1      30.184 -37.666 -30.675  0.00  0.00    -0.289 OA
ATOM     14  C   UNL A   1      32.607 -38.039 -31.110  0.00  0.00    +0.039 C 
ATOM     15  N   UNL A   1      32.561 -39.551 -30.859  0.00  0.00    -0.341 N 
ATOM     16  C   UNL A   1      32.093 -40.475 -31.875  0.00  0.00    -0.001 C 
ENDROOT
BRANCH   1  17
ATOM     17  O   UNL A   1      37.540 -39.440 -28.374  0.00  0.00    -0.411 OA
BRANCH  17  19
ATOM     18  N   UNL A   1      38.595 -37.981 -29.858  0.00  0.00    -0.251 N 
ATOM     19  C   UNL A   1      38.412 -38.343 -28.543  0.00  0.00    +0.410 C 
ATOM     20  O   UNL A   1      38.900 -37.830 -27.547  0.00  0.00    -0.226 OA
ATOM     21  H   UNL A   1      38.143 -38.558 -30.514  0.00  0.00    +0.000 HD
BRANCH  18  28
ATOM     22  C   UNL A   1      37.369 -35.421 -31.200  0.00  0.00    -0.038 C 
ATOM     23  C   UNL A   1      38.824 -35.775 -31.074  0.00  0.00    -0.029 A 
ATOM     24  C   UNL A   1      39.737 -34.852 -31.634  0.00  0.00    -0.057 A 
ATOM     25  C   UNL A   1      41.114 -35.009 -31.498  0.00  0.00    -0.061 A 
ATOM     26  C   UNL A   1      41.610 -36.093 -30.792  0.00  0.00    -0.060 A 
ATOM     27  C   UNL A   1      40.726 -37.028 -30.253  0.00  0.00    -0.040 A 
ATOM     28  C   UNL A   1      39.330 -36.910 -30.417  0.00  0.00    +0.039 A 
ENDBRANCH  18  28
ENDBRANCH  17  19
ENDBRANCH   1  17
TORSDOF 3
ENDMDL
MODEL 19
REMARK VINA RESULT:    -6.965      4.893      5.661
REMARK INTER + INTRA:          -8.461
REMARK INTER:                  -8.172
REMARK INTRA:                  -0.289
REMARK UNBOUND:                -0.275
REMARK  Name = cpd258.pdb
REMARK  7 active torsions:
REMARK  status: ('A' for Active; 'I' for Inactive)
REMARK    1  A    between atoms: C_1  and  C_2
REMARK    2  A    between atoms: C_7  and  N_8
REMARK    3  A    between atoms: C_9  and  O_11
REMARK    4  A    between atoms: O_11  and  C_12
REMARK    5  A    between atoms: C_18  and  C_19
REMARK    6  A    between atoms: N_22  and  C_23
REMARK    7  A    between atoms: N_26  and  C_27
REMARK                            x       y       z     vdW  Elec       q    Type
REMARK                         _______ _______ _______ _____ _____    ______ ____
ROOT
ATOM      1  C   UNL A   1      35.343 -38.968 -30.315  0.00  0.00    +0.134 A 
ATOM      2  C   UNL A   1      35.922 -40.159 -30.791  0.00  0.00    -0.017 A 
ATOM      3  C   UNL A   1      35.234 -40.951 -31.714  0.00  0.00    -0.037 A 
ATOM      4  C   UNL A   1      34.009 -40.505 -32.171  0.00  0.00    +0.032 A 
ATOM      5  C   UNL A   1      33.453 -39.300 -31.680  0.00  0.00    -0.017 A 
ATOM      6  C   UNL A   1      34.104 -38.510 -30.755  0.00  0.00    -0.014 A 
ATOM      7  C   UNL A   1      32.105 -39.186 -32.322  0.00  0.00    +0.002 C 
ATOM      8  C   UNL A   1      31.095 -39.947 -31.421  0.00  0.00    -0.055 C 
ATOM      9  C   UNL A   1      31.537 -37.876 -32.793  0.00  0.00    -0.054 C 
ATOM     10  C   UNL A   1      30.573 -38.366 -33.866  0.00  0.00    -0.048 C 
ATOM     11  N   UNL A   1      31.144 -39.685 -34.425  0.00  0.00    +0.433 N 
ATOM     12  C   UNL A   1      31.246 -39.537 -35.928  0.00  0.00    -0.060 C 
ATOM     13  O   UNL A   1      30.303 -40.739 -34.182  0.00  0.00    -0.289 OA
ATOM     14  C   UNL A   1      32.573 -39.811 -33.751  0.00  0.00    +0.039 C 
ATOM     15  N   UNL A   1      33.127 -41.092 -33.114  0.00  0.00    -0.341 N 
ATOM     16  C   UNL A   1      33.583 -42.206 -33.924  0.00  0.00    -0.001 C 
ENDROOT
BRANCH   1  17
ATOM     17  O   UNL A   1      36.041 -38.158 -29.388  0.00  0.00    -0.411 OA
BRANCH  17  19
ATOM     18  N   UNL A   1      38.135 -37.566 -30.231  0.00  0.00    -0.251 N 
ATOM     19  C   UNL A   1      36.921 -37.119 -29.763  0.00  0.00    +0.410 C 
ATOM     20  O   UNL A   1      36.539 -35.964 -29.648  0.00  0.00    -0.226 OA
ATOM     21  H   UNL A   1      38.258 -38.542 -30.198  0.00  0.00    +0.000 HD
BRANCH  18  28
ATOM     22  C   UNL A   1      41.138 -37.954 -29.402  0.00  0.00    -0.038 C 
ATOM     23  C   UNL A   1      40.584 -36.948 -30.371  0.00  0.00    -0.029 A 
ATOM     24  C   UNL A   1      41.525 -36.077 -30.965  0.00  0.00    -0.057 A 
ATOM     25  C   UNL A   1      41.158 -35.167 -31.954  0.00  0.00    -0.061 A 
ATOM     26  C   UNL A   1      39.840 -35.114 -32.377  0.00  0.00    -0.060 A 
ATOM     27  C   UNL A   1      38.892 -35.949 -31.785  0.00  0.00    -0.040 A 
ATOM     28  C   UNL A   1      39.234 -36.846 -30.752  0.00  0.00    +0.039 A 
ENDBRANCH  18  28
ENDBRANCH  17  19
ENDBRANCH   1  17
TORSDOF 3
ENDMDL
MODEL 20
REMARK VINA RESULT:    -6.901     16.728     18.106
REMARK INTER + INTRA:          -8.387
REMARK INTER:                  -8.125
REMARK INTRA:                  -0.262
REMARK UNBOUND:                -0.275
REMARK  Name = cpd258.pdb
REMARK  7 active torsions:
REMARK  status: ('A' for Active; 'I' for Inactive)
REMARK    1  A    between atoms: C_1  and  C_2
REMARK    2  A    between atoms: C_7  and  N_8
REMARK    3  A    between atoms: C_9  and  O_11
REMARK    4  A    between atoms: O_11  and  C_12
REMARK    5  A    between atoms: C_18  and  C_19
REMARK    6  A    between atoms: N_22  and  C_23
REMARK    7  A    between atoms: N_26  and  C_27
REMARK                            x       y       z     vdW  Elec       q    Type
REMARK                         _______ _______ _______ _____ _____    ______ ____
ROOT
ATOM      1  C   UNL A   1      42.093 -19.739 -38.535  0.00  0.00    +0.134 A 
ATOM      2  C   UNL A   1      41.423 -20.904 -38.951  0.00  0.00    -0.017 A 
ATOM      3  C   UNL A   1      40.754 -21.699 -38.017  0.00  0.00    -0.037 A 
ATOM      4  C   UNL A   1      40.734 -21.280 -36.700  0.00  0.00    +0.032 A 
ATOM      5  C   UNL A   1      41.410 -20.101 -36.310  0.00  0.00    -0.017 A 
ATOM      6  C   UNL A   1      42.093 -19.310 -37.210  0.00  0.00    -0.014 A 
ATOM      7  C   UNL A   1      41.246 -20.014 -34.824  0.00  0.00    +0.002 C 
ATOM      8  C   UNL A   1      42.408 -20.820 -34.180  0.00  0.00    -0.055 C 
ATOM      9  C   UNL A   1      41.022 -18.713 -34.105  0.00  0.00    -0.054 C 
ATOM     10  C   UNL A   1      40.310 -19.210 -32.854  0.00  0.00    -0.048 C 
ATOM     11  N   UNL A   1      39.559 -20.502 -33.239  0.00  0.00    +0.433 N 
ATOM     12  C   UNL A   1      38.110 -20.324 -32.841  0.00  0.00    -0.060 C 
ATOM     13  O   UNL A   1      40.035 -21.584 -32.547  0.00  0.00    -0.289 OA
ATOM     14  C   UNL A   1      39.727 -20.599 -34.813  0.00  0.00    +0.039 C 
ATOM     15  N   UNL A   1      40.114 -21.875 -35.571  0.00  0.00    -0.341 N 
ATOM     16  C   UNL A   1      39.170 -22.960 -35.761  0.00  0.00    -0.001 C 
ENDROOT
BRANCH   1  17
ATOM     17  O   UNL A   1      42.763 -18.926 -39.479  0.00  0.00    -0.411 OA
BRANCH  17  19
ATOM     18  N   UNL A   1      44.364 -20.586 -39.834  0.00  0.00    -0.251 N 
ATOM     19  C   UNL A   1      43.914 -19.335 -40.187  0.00  0.00    +0.410 C 
ATOM     20  O   UNL A   1      44.385 -18.574 -41.019  0.00  0.00    -0.226 OA
ATOM     21  H   UNL A   1      43.864 -21.016 -39.103  0.00  0.00    +0.000 HD
BRANCH  18  28
ATOM     22  C   UNL A   1      44.461 -21.882 -42.692  0.00  0.00    -0.038 C 
ATOM     23  C   UNL A   1      45.492 -21.997 -41.605  0.00  0.00    -0.029 A 
ATOM     24  C   UNL A   1      46.625 -22.786 -41.907  0.00  0.00    -0.057 A 
ATOM     25  C   UNL A   1      47.700 -22.892 -41.027  0.00  0.00    -0.061 A 
ATOM     26  C   UNL A   1      47.667 -22.203 -39.825  0.00  0.00    -0.060 A 
ATOM     27  C   UNL A   1      46.546 -21.439 -39.498  0.00  0.00    -0.040 A 
ATOM     28  C   UNL A   1      45.430 -21.354 -40.356  0.00  0.00    +0.039 A 
ENDBRANCH  18  28
ENDBRANCH  17  19
ENDBRANCH   1  17
TORSDOF 3
ENDMDL
