@<TRIPOS>MOLECULE
*****
 27 30 0 0 0
SMALL
GASTEIGER

@<TRIPOS>ATOM
      1 C           5.9462    1.4462    0.0000 C.3     1  UNL1        0.0324
      2 C           5.9534    0.4294    0.0000 C.ar    1  UNL1       -0.0064
      3 C           6.8375   -0.0727    0.0000 C.ar    1  UNL1       -0.0030
      4 C           6.8446   -1.0895    0.0000 C.ar    1  UNL1       -0.0002
      5 C           5.9677   -1.6041    0.0000 C.ar    1  UNL1        0.0013
      6 C           5.0836   -1.1019    0.0000 C.ar    1  UNL1        0.0164
      7 C           5.0764   -0.0851    0.0000 C.ar    1  UNL1        0.0727
      8 N           4.1923    0.4171    0.0000 N.am    1  UNL1       -0.1424
      9 C           4.1851    1.4338    0.0000 C.2     1  UNL1        0.4300
     10 O           5.0621    1.9484    0.0000 O.2     1  UNL1       -0.2238
     11 O           3.3010    1.9360    0.0000 O.3     1  UNL1       -0.4089
     12 C           2.4241    1.4214    0.0000 C.ar    1  UNL1        0.1499
     13 C           2.4306    0.4919    0.0000 C.ar    1  UNL1        0.0389
     14 C           1.6289    0.0215    0.0000 C.ar    1  UNL1        0.0175
     15 C           0.8207    0.4806    0.0000 C.ar    1  UNL1        0.0484
     16 C           0.8141    1.4101    0.0000 C.ar    1  UNL1        0.0010
     17 C           1.6158    1.8805    0.0000 C.ar    1  UNL1        0.0349
     18 C          -0.0002    1.8802    0.0000 C.3     1  UNL1        0.0894
     19 C           0.4998    2.7463    0.0000 C.3     1  UNL1        0.0123
     20 C          -0.8147    2.3505    0.0000 C.3     1  UNL1        0.0723
     21 C          -1.6354    1.8699    0.0000 C.3     1  UNL1        0.1067
     22 N          -1.6288    0.9404    0.0000 N.3     1  UNL1        0.2728
     23 C          -2.4931    0.4374    0.0000 C.3     1  UNL1        0.1677
     24 O          -2.4949    1.4404    0.0000 O.co2   1  UNL1       -0.7702
     25 C          -0.8143    0.4701    0.0000 C.3     1  UNL1        0.1391
     26 N          -0.0000   -0.0000    0.0000 N.pl3   1  UNL1       -0.2662
     27 C           0.0031   -1.0000    0.0000 C.3     1  UNL1        0.1174
@<TRIPOS>UNITY_ATOM_ATTR
22 1
charge 1
24 1
charge -1
@<TRIPOS>BOND
     1     1     2    1
     2     2     3   ar
     3     3     4   ar
     4     4     5   ar
     5     5     6   ar
     6     6     7   ar
     7     2     7   ar
     8     7     8    1
     9     8     9   am
    10     9    10    2
    11     9    11    1
    12    11    12    1
    13    12    13   ar
    14    13    14   ar
    15    14    15   ar
    16    15    16   ar
    17    16    17   ar
    18    12    17   ar
    19    16    18    1
    20    18    19    1
    21    18    20    1
    22    20    21    1
    23    21    22    1
    24    22    23    1
    25    22    24    1
    26    22    25    1
    27    18    25    1
    28    25    26    1
    29    15    26    1
    30    26    27    1
