REMARK  Name = cpd70.pdb
REMARK  8 active torsions:
REMARK  status: ('A' for Active; 'I' for Inactive)
REMARK    1  A    between atoms: C_1  and  C_2
REMARK    2  A    between atoms: C_11  and  N_12
REMARK    3  A    between atoms: C_13  and  C_14
REMARK    4  A    between atoms: C_14  and  O_15
REMARK    5  A    between atoms: O_15  and  C_16
REMARK    6  A    between atoms: C_16  and  C_17
REMARK    7  A    between atoms: C_21  and  C_22
REMARK    8  A    between atoms: C_22  and  C_24
REMARK                            x       y       z     vdW  Elec       q    Type
REMARK                         _______ _______ _______ _____ _____    ______ ____
ROOT
ATOM      1  C   UNL A   1      -4.196  -1.680   0.225  0.00  0.00    -0.022 C 
ATOM      2  C   UNL A   1      -4.302  -0.184   0.171  0.00  0.00    +0.046 A 
ATOM      3  N   UNL A   1      -5.538   0.278   0.479  0.00  0.00    -0.251 NA
ATOM      4  C   UNL A   1      -5.801   1.586   0.431  0.00  0.00    +0.074 A 
ATOM      5  C   UNL A   1      -7.110   1.948   0.718  0.00  0.00    -0.036 A 
ATOM      6  C   UNL A   1      -7.538   3.271   0.700  0.00  0.00    -0.058 A 
ATOM      7  C   UNL A   1      -6.627   4.264   0.395  0.00  0.00    -0.043 A 
ATOM      8  C   UNL A   1      -5.299   3.924   0.106  0.00  0.00    +0.052 A 
ATOM      9 CL   UNL A   1      -4.256   5.278  -0.211  0.00  0.00    -0.083 Cl
ATOM     10  C   UNL A   1      -4.841   2.563   0.106  0.00  0.00    +0.040 A 
ATOM     11  C   UNL A   1      -3.518   2.062  -0.169  0.00  0.00    +0.042 A 
ATOM     12  C   UNL A   1      -3.252   0.664  -0.179  0.00  0.00    +0.020 A 
ENDROOT
BRANCH  11  13
ATOM     13  N   UNL A   1      -2.510   2.943  -0.645  0.00  0.00    -0.357 N 
ATOM     14  H   UNL A   1      -2.668   3.915  -0.649  0.00  0.00    +0.000 HD
ATOM     15  H   UNL A   1      -1.654   2.582  -0.971  0.00  0.00    +0.000 HD
ENDBRANCH  11  13
BRANCH  12  16
ATOM     16  C   UNL A   1      -1.880   0.190  -0.627  0.00  0.00    +0.077 C 
BRANCH  16  17
ATOM     17  O   UNL A   1      -1.637  -1.210  -0.502  0.00  0.00    -0.370 OA
BRANCH  17  18
ATOM     18  C   UNL A   1      -0.466  -1.635  -1.198  0.00  0.00    +0.073 C 
BRANCH  18  19
ATOM     19  C   UNL A   1       0.790  -1.270  -0.446  0.00  0.00    -0.021 A 
ATOM     20  C   UNL A   1       1.137  -1.952   0.725  0.00  0.00    -0.056 A 
ATOM     21  C   UNL A   1       2.288  -1.604   1.431  0.00  0.00    -0.061 A 
ATOM     22  C   UNL A   1       3.102  -0.560   0.983  0.00  0.00    -0.051 A 
ATOM     23  C   UNL A   1       2.765   0.144  -0.178  0.00  0.00    +0.027 A 
ATOM     24  C   UNL A   1       1.609  -0.220  -0.888  0.00  0.00    -0.046 A 
BRANCH  23  25
ATOM     25  C   UNL A   1       3.575   1.290  -0.696  0.00  0.00    +0.265 C 
ATOM     26  O   UNL A   1       3.137   1.932  -1.654  0.00  0.00    -0.283 OA
BRANCH  25  27
ATOM     27  C   UNL A   1       4.889   1.613  -0.005  0.00  0.00    +0.455 C 
ATOM     28  F   UNL A   1       5.736   0.545   0.027  0.00  0.00    -0.163 F 
ATOM     29  F   UNL A   1       4.710   1.994   1.292  0.00  0.00    -0.163 F 
ATOM     30  F   UNL A   1       5.577   2.623  -0.604  0.00  0.00    -0.163 F 
ENDBRANCH  25  27
ENDBRANCH  23  25
ENDBRANCH  18  19
ENDBRANCH  17  18
ENDBRANCH  16  17
ENDBRANCH  12  16
TORSDOF 7
