REMARK  Name = cpd301.pdb
REMARK  23 active torsions:
REMARK  status: ('A' for Active; 'I' for Inactive)
REMARK    1  A    between atoms: C_1  and  C_2
REMARK    2  A    between atoms: C_2  and  N_3
REMARK    3  A    between atoms: N_3  and  C_4
REMARK    4  A    between atoms: N_3  and  C_6
REMARK    5  A    between atoms: C_4  and  C_5
REMARK    6  A    between atoms: C_6  and  C_7
REMARK    7  A    between atoms: C_7  and  C_8
REMARK    8  A    between atoms: C_8  and  C_9
REMARK    9  A    between atoms: C_9  and  C_10
REMARK   10  A    between atoms: C_10  and  C_11
REMARK   11  A    between atoms: C_11  and  O_12
REMARK   12  A    between atoms: O_12  and  C_13
REMARK   13  A    between atoms: C_13  and  C_15
REMARK   14  A    between atoms: C_15  and  C_16
REMARK   15  A    between atoms: C_16  and  C_17
REMARK   16  A    between atoms: C_16  and  C_18
REMARK   17  A    between atoms: C_18  and  C_19
REMARK   18  A    between atoms: C_19  and  C_20
REMARK   19  A    between atoms: C_21  and  C_22
REMARK   20  A    between atoms: C_22  and  O_23
REMARK   21  A    between atoms: C_27  and  C_28
REMARK   22  A    between atoms: C_27  and  C_29
REMARK   23  A    between atoms: C_33  and  C_34
REMARK                            x       y       z     vdW  Elec       q    Type
REMARK                         _______ _______ _______ _____ _____    ______ ____
ROOT
ATOM      1  C   UNL     1      -2.004  -4.059   0.691  0.00  0.00    -0.034 C 
ATOM      2  C   UNL     1      -0.484  -4.200   0.569  0.00  0.00    -0.062 C 
ENDROOT
BRANCH   1   3
ATOM      3  C   UNL     1      -2.749  -4.543  -0.565  0.00  0.00    +0.048 C 
BRANCH   3   4
ATOM      4  C   UNL     1      -2.060  -5.620  -1.378  0.00  0.00    +0.307 C 
ATOM      5  O   UNL     1      -1.453  -5.333  -2.406  0.00  0.00    -0.251 OA
BRANCH   4   6
ATOM      6  O   UNL     1      -2.117  -6.904  -0.966  0.00  0.00    -0.465 OA
BRANCH   6   7
ATOM      7  C   UNL     1      -2.674  -7.356   0.277  0.00  0.00    +0.092 C 
BRANCH   7   8
ATOM      8  C   UNL     1      -4.159  -7.643   0.127  0.00  0.00    -0.019 C 
BRANCH   8   9
ATOM      9  C   UNL     1      -4.750  -8.160   1.438  0.00  0.00    -0.050 C 
BRANCH   9  10
ATOM     10  C   UNL     1      -6.107  -8.839   1.249  0.00  0.00    -0.052 C 
BRANCH  10  11
ATOM     11  C   UNL     1      -5.969 -10.162   0.490  0.00  0.00    -0.040 C 
BRANCH  11  12
ATOM     12  C   UNL     1      -7.277 -10.956   0.474  0.00  0.00    -0.001 C 
BRANCH  12  13
ATOM     13  N   UNL     1      -7.239 -12.180  -0.354  0.00  0.00    -0.303 N 
ATOM     14  H   UNL     1      -7.060 -11.871  -1.309  0.00  0.00    +0.000 HD
BRANCH  13  15
ATOM     15  C   UNL     1      -6.148 -13.100   0.027  0.00  0.00    -0.004 C 
ATOM     16  C   UNL     1      -4.942 -12.953  -0.897  0.00  0.00    -0.052 C 
ENDBRANCH  13  15
BRANCH  13  18
ATOM     17  C   UNL     1      -9.710 -12.103  -0.852  0.00  0.00    -0.052 C 
ATOM     18  C   UNL     1      -8.531 -12.894  -0.292  0.00  0.00    -0.004 C 
ENDBRANCH  13  18
ENDBRANCH  12  13
ENDBRANCH  11  12
ENDBRANCH  10  11
ENDBRANCH   9  10
ENDBRANCH   8   9
ENDBRANCH   7   8
ENDBRANCH   6   7
ENDBRANCH   4   6
ENDBRANCH   3   4
ENDBRANCH   1   3
BRANCH   1  19
ATOM     19  C   UNL     1      -2.472  -2.665   1.198  0.00  0.00    -0.049 C 
BRANCH  19  20
ATOM     20  C   UNL     1      -2.579  -1.500   0.183  0.00  0.00    -0.046 C 
BRANCH  20  21
ATOM     21  C   UNL     1      -1.801  -0.146   0.581  0.00  0.00    -0.012 C 
ATOM     22  C   UNL     1      -2.743   0.991   0.173  0.00  0.00    -0.045 C 
ATOM     23  C   UNL     1      -2.299   1.815  -0.776  0.00  0.00    -0.082 C 
ATOM     24  C   UNL     1      -0.876   1.683  -1.171  0.00  0.00    -0.031 C 
ATOM     25  C   UNL     1       0.000   1.000   0.000  0.00  0.00    -0.027 C 
ATOM     26  C   UNL     1       1.537   1.648  -0.330  0.00  0.00    -0.031 C 
ATOM     27  C   UNL     1       1.659   3.025   0.372  0.00  0.00    -0.060 C 
ATOM     28  C   UNL     1       1.854   1.848  -1.837  0.00  0.00    -0.060 C 
ATOM     29  C   UNL     1       2.677   0.738   0.197  0.00  0.00    -0.048 C 
ATOM     30  C   UNL     1       2.332   0.146   1.539  0.00  0.00    -0.052 C 
ATOM     31  C   UNL     1       0.822  -0.037   1.639  0.00  0.00    -0.047 C 
ATOM     32  C   UNL     1       0.000   0.000   0.000  0.00  0.00    -0.022 C 
ATOM     33  C   UNL     1       0.000  -1.000   0.000  0.00  0.00    -0.059 C 
BRANCH  22  34
ATOM     34  C   UNL     1      -4.078   1.123   0.858  0.00  0.00    +0.066 C 
BRANCH  34  35
ATOM     35  O   UNL     1      -4.536   2.469   0.833  0.00  0.00    -0.391 OA
ATOM     36  H   UNL     1      -3.902   3.035   1.300  0.00  0.00    +0.000 HD
ENDBRANCH  34  35
ENDBRANCH  22  34
ENDBRANCH  20  21
ENDBRANCH  19  20
ENDBRANCH   1  19
TORSDOF 17
