@<TRIPOS>MOLECULE
*****
 34 35 0 0 0
SMALL
GASTEIGER

@<TRIPOS>ATOM
      1 C          -7.7942  -10.5000    0.0000 C.3     1  UNL1        0.0188
      2 C          -6.9282  -11.0000    0.0000 C.3     1  UNL1        0.0721
      3 N          -6.0622  -10.5000    0.0000 N.3     1  UNL1       -0.2727
      4 C          -5.1962  -11.0000    0.0000 C.3     1  UNL1        0.0721
      5 C          -4.3301  -10.5000    0.0000 C.3     1  UNL1        0.0188
      6 C          -6.0622   -9.5000    0.0000 C.3     1  UNL1        0.0721
      7 C          -5.1962   -9.0000    0.0000 C.3     1  UNL1        0.0173
      8 C          -5.1962   -8.0000    0.0000 C.3     1  UNL1        0.0016
      9 C          -4.3301   -7.5000    0.0000 C.3     1  UNL1        0.0039
     10 C          -4.3301   -6.5000    0.0000 C.3     1  UNL1        0.0474
     11 C          -3.4641   -6.0000    0.0000 C.3     1  UNL1        0.2084
     12 O          -3.4641   -5.0000    0.0000 O.3     1  UNL1       -0.4485
     13 C          -2.5981   -4.5000    0.0000 C.2     1  UNL1        0.3170
     14 O          -1.7321   -5.0000    0.0000 O.2     1  UNL1       -0.2501
     15 C          -2.5981   -3.5000    0.0000 C.3     1  UNL1        0.1096
     16 C          -1.7321   -3.0000    0.0000 C.3     1  UNL1        0.0111
     17 C          -0.8660   -3.5000    0.0000 C.3     1  UNL1        0.0006
     18 C          -1.7321   -2.0000    0.0000 C.3     1  UNL1        0.0009
     19 C          -0.8660   -1.5000    0.0000 C.3     1  UNL1        0.0041
     20 C          -0.8660   -0.5000    0.0000 C.3     1  UNL1        0.0205
     21 C          -1.7321   -0.0000    0.0000 C.2     1  UNL1       -0.0162
     22 C          -2.5981   -0.5000    0.0000 C.3     1  UNL1        0.2041
     23 O          -3.4641   -0.0000    0.0000 O.3     1  UNL1       -0.2155
     24 C          -1.7321    1.0000    0.0000 C.2     1  UNL1       -0.0321
     25 C          -0.8660    1.5000    0.0000 C.3     1  UNL1        0.0255
     26 C          -0.0000    1.0000    0.0000 C.3     1  UNL1        0.0046
     27 C           0.8660    1.5000    0.0000 C.3     1  UNL1        0.0003
     28 C           1.3660    2.3660    0.0000 C.3     1  UNL1        0.0000
     29 C           0.3660    2.3660    0.0000 C.3     1  UNL1        0.0000
     30 C           1.7321    1.0000    0.0000 C.3     1  UNL1        0.0000
     31 C           1.7321    0.0000    0.0000 C.3     1  UNL1        0.0000
     32 C           0.8660   -0.5000    0.0000 C.3     1  UNL1        0.0003
     33 C           0.0000   -0.0000    0.0000 C.3     1  UNL1        0.0038
     34 C           0.0000   -1.0000    0.0000 C.3     1  UNL1        0.0003
@<TRIPOS>BOND
     1     1     2    1
     2     2     3    1
     3     3     4    1
     4     4     5    1
     5     3     6    1
     6     6     7    1
     7     7     8    1
     8     8     9    1
     9     9    10    1
    10    10    11    1
    11    11    12    1
    12    12    13    1
    13    13    14    2
    14    13    15    1
    15    15    16    1
    16    16    17    1
    17    16    18    1
    18    18    19    1
    19    19    20    1
    20    20    21    1
    21    21    22    1
    22    22    23    1
    23    21    24    2
    24    24    25    1
    25    25    26    1
    26    26    27    1
    27    27    28    1
    28    27    29    1
    29    27    30    1
    30    30    31    1
    31    31    32    1
    32    32    33    1
    33    20    33    1
    34    26    33    1
    35    33    34    1
