MODEL 1
REMARK VINA RESULT:    -4.221      0.000      0.000
REMARK INTER + INTRA:          -3.238
REMARK INTER:                  -4.714
REMARK INTRA:                   1.476
REMARK UNBOUND:                 1.476
REMARK  Name = cpd216.pdb
REMARK  8 active torsions:
REMARK  status: ('A' for Active; 'I' for Inactive)
REMARK    1  A    between atoms: C_1  and  C_2
REMARK    2  A    between atoms: C_2  and  O_3
REMARK    3  A    between atoms: O_3  and  C_4
REMARK    4  A    between atoms: C_4  and  C_5
REMARK    5  A    between atoms: C_5  and  N_6
REMARK    6  A    between atoms: N_6  and  C_7
REMARK    7  A    between atoms: N_6  and  C_8
REMARK    8  A    between atoms: N_6  and  C_9
REMARK                            x       y       z     vdW  Elec       q    Type
REMARK                         _______ _______ _______ _____ _____    ______ ____
ROOT
ATOM      1  C   UNL     1      48.174 -39.811 -29.564  0.00  0.00    -0.065 C 
ENDROOT
BRANCH   1   2
ATOM      2  N   UNL     1      48.893 -39.352 -30.085  0.00  0.00    +0.376 N 
ATOM      3  C   UNL     1      48.944 -38.639 -29.385  0.00  0.00    -0.101 C 
ATOM      4  C   UNL     1      49.613 -38.892 -30.606  0.00  0.00    -0.101 C 
ATOM      5  C   UNL     1      48.843 -40.065 -30.784  0.00  0.00    -0.101 C 
ENDBRANCH   1   2
BRANCH   1   6
ATOM      6  C   UNL     1      46.395 -39.926 -29.547  0.00  0.00    +0.033 C 
BRANCH   6   7
ATOM      7  O   UNL     1      46.069 -41.031 -28.697  0.00  0.00    -0.382 OA
BRANCH   7   9
ATOM      8  C   UNL     1      45.232 -41.931 -30.807  0.00  0.00    -0.042 C 
ATOM      9  C   UNL     1      45.164 -41.965 -29.291  0.00  0.00    +0.045 C 
ENDBRANCH   7   9
ENDBRANCH   6   7
ENDBRANCH   1   6
TORSDOF 4
ENDMDL
MODEL 2
REMARK VINA RESULT:    -4.157      2.605      4.447
REMARK INTER + INTRA:          -3.167
REMARK INTER:                  -4.701
REMARK INTRA:                   1.534
REMARK UNBOUND:                 1.476
REMARK  Name = cpd216.pdb
REMARK  8 active torsions:
REMARK  status: ('A' for Active; 'I' for Inactive)
REMARK    1  A    between atoms: C_1  and  C_2
REMARK    2  A    between atoms: C_2  and  O_3
REMARK    3  A    between atoms: O_3  and  C_4
REMARK    4  A    between atoms: C_4  and  C_5
REMARK    5  A    between atoms: C_5  and  N_6
REMARK    6  A    between atoms: N_6  and  C_7
REMARK    7  A    between atoms: N_6  and  C_8
REMARK    8  A    between atoms: N_6  and  C_9
REMARK                            x       y       z     vdW  Elec       q    Type
REMARK                         _______ _______ _______ _____ _____    ______ ____
ROOT
ATOM      1  C   UNL     1      45.399 -40.765 -30.042  0.00  0.00    -0.065 C 
ENDROOT
BRANCH   1   2
ATOM      2  N   UNL     1      45.323 -41.762 -30.041  0.00  0.00    +0.376 N 
ATOM      3  C   UNL     1      45.881 -41.806 -30.869  0.00  0.00    -0.101 C 
ATOM      4  C   UNL     1      45.247 -42.759 -30.039  0.00  0.00    -0.101 C 
ATOM      5  C   UNL     1      44.765 -41.718 -29.212  0.00  0.00    -0.101 C 
ENDBRANCH   1   2
BRANCH   1   6
ATOM      6  C   UNL     1      46.348 -39.491 -29.232  0.00  0.00    +0.033 C 
BRANCH   6   7
ATOM      7  O   UNL     1      45.731 -38.246 -29.577  0.00  0.00    -0.382 OA
BRANCH   7   9
ATOM      8  C   UNL     1      46.039 -35.850 -29.929  0.00  0.00    -0.042 C 
ATOM      9  C   UNL     1      46.499 -37.100 -29.202  0.00  0.00    +0.045 C 
ENDBRANCH   7   9
ENDBRANCH   6   7
ENDBRANCH   1   6
TORSDOF 4
ENDMDL
MODEL 3
REMARK VINA RESULT:    -4.130     29.978     31.109
REMARK INTER + INTRA:          -3.137
REMARK INTER:                  -4.622
REMARK INTRA:                   1.486
REMARK UNBOUND:                 1.476
REMARK  Name = cpd216.pdb
REMARK  8 active torsions:
REMARK  status: ('A' for Active; 'I' for Inactive)
REMARK    1  A    between atoms: C_1  and  C_2
REMARK    2  A    between atoms: C_2  and  O_3
REMARK    3  A    between atoms: O_3  and  C_4
REMARK    4  A    between atoms: C_4  and  C_5
REMARK    5  A    between atoms: C_5  and  N_6
REMARK    6  A    between atoms: N_6  and  C_7
REMARK    7  A    between atoms: N_6  and  C_8
REMARK    8  A    between atoms: N_6  and  C_9
REMARK                            x       y       z     vdW  Elec       q    Type
REMARK                         _______ _______ _______ _____ _____    ______ ____
ROOT
ATOM      1  C   UNL     1      63.353 -26.029  -6.769  0.00  0.00    -0.065 C 
ENDROOT
BRANCH   1   2
ATOM      2  N   UNL     1      63.039 -26.961  -6.590  0.00  0.00    +0.376 N 
ATOM      3  C   UNL     1      62.232 -26.798  -7.158  0.00  0.00    -0.101 C 
ATOM      4  C   UNL     1      62.724 -27.893  -6.411  0.00  0.00    -0.101 C 
ATOM      5  C   UNL     1      63.845 -27.124  -6.021  0.00  0.00    -0.101 C 
ENDBRANCH   1   2
BRANCH   1   6
ATOM      6  C   UNL     1      64.543 -25.190  -7.799  0.00  0.00    +0.033 C 
BRANCH   6   7
ATOM      7  O   UNL     1      63.970 -23.919  -8.125  0.00  0.00    -0.382 OA
BRANCH   7   9
ATOM      8  C   UNL     1      62.772 -24.475 -10.179  0.00  0.00    -0.042 C 
ATOM      9  C   UNL     1      63.884 -23.670  -9.530  0.00  0.00    +0.045 C 
ENDBRANCH   7   9
ENDBRANCH   6   7
ENDBRANCH   1   6
TORSDOF 4
ENDMDL
MODEL 4
REMARK VINA RESULT:    -4.092      1.889      4.204
REMARK INTER + INTRA:          -3.094
REMARK INTER:                  -4.629
REMARK INTRA:                   1.535
REMARK UNBOUND:                 1.476
REMARK  Name = cpd216.pdb
REMARK  8 active torsions:
REMARK  status: ('A' for Active; 'I' for Inactive)
REMARK    1  A    between atoms: C_1  and  C_2
REMARK    2  A    between atoms: C_2  and  O_3
REMARK    3  A    between atoms: O_3  and  C_4
REMARK    4  A    between atoms: C_4  and  C_5
REMARK    5  A    between atoms: C_5  and  N_6
REMARK    6  A    between atoms: N_6  and  C_7
REMARK    7  A    between atoms: N_6  and  C_8
REMARK    8  A    between atoms: N_6  and  C_9
REMARK                            x       y       z     vdW  Elec       q    Type
REMARK                         _______ _______ _______ _____ _____    ______ ____
ROOT
ATOM      1  C   UNL     1      45.972 -39.999 -29.099  0.00  0.00    -0.065 C 
ENDROOT
BRANCH   1   2
ATOM      2  N   UNL     1      45.087 -40.290 -29.463  0.00  0.00    +0.376 N 
ATOM      3  C   UNL     1      44.850 -39.337 -29.650  0.00  0.00    -0.101 C 
ATOM      4  C   UNL     1      44.202 -40.582 -29.827  0.00  0.00    -0.101 C 
ATOM      5  C   UNL     1      45.324 -41.244 -29.276  0.00  0.00    -0.101 C 
ENDBRANCH   1   2
BRANCH   1   6
ATOM      6  C   UNL     1      47.681 -39.953 -29.606  0.00  0.00    +0.033 C 
BRANCH   6   7
ATOM      7  O   UNL     1      48.393 -39.279 -28.563  0.00  0.00    -0.382 OA
BRANCH   7   9
ATOM      8  C   UNL     1      50.024 -39.101 -30.371  0.00  0.00    -0.042 C 
ATOM      9  C   UNL     1      49.565 -38.595 -29.016  0.00  0.00    +0.045 C 
ENDBRANCH   7   9
ENDBRANCH   6   7
ENDBRANCH   1   6
TORSDOF 4
ENDMDL
MODEL 5
REMARK VINA RESULT:    -4.010      7.557      8.367
REMARK INTER + INTRA:          -3.002
REMARK INTER:                  -4.477
REMARK INTRA:                   1.475
REMARK UNBOUND:                 1.476
REMARK  Name = cpd216.pdb
REMARK  8 active torsions:
REMARK  status: ('A' for Active; 'I' for Inactive)
REMARK    1  A    between atoms: C_1  and  C_2
REMARK    2  A    between atoms: C_2  and  O_3
REMARK    3  A    between atoms: O_3  and  C_4
REMARK    4  A    between atoms: C_4  and  C_5
REMARK    5  A    between atoms: C_5  and  N_6
REMARK    6  A    between atoms: N_6  and  C_7
REMARK    7  A    between atoms: N_6  and  C_8
REMARK    8  A    between atoms: N_6  and  C_9
REMARK                            x       y       z     vdW  Elec       q    Type
REMARK                         _______ _______ _______ _____ _____    ______ ____
ROOT
ATOM      1  C   UNL     1      41.787 -36.258 -31.382  0.00  0.00    -0.065 C 
ENDROOT
BRANCH   1   2
ATOM      2  N   UNL     1      42.041 -37.184 -31.104  0.00  0.00    +0.376 N 
ATOM      3  C   UNL     1      42.876 -37.119 -31.651  0.00  0.00    -0.101 C 
ATOM      4  C   UNL     1      42.296 -38.111 -30.826  0.00  0.00    -0.101 C 
ATOM      5  C   UNL     1      41.207 -37.250 -30.557  0.00  0.00    -0.101 C 
ENDBRANCH   1   2
BRANCH   1   6
ATOM      6  C   UNL     1      40.771 -35.458 -32.610  0.00  0.00    +0.033 C 
BRANCH   6   7
ATOM      7  O   UNL     1      40.420 -34.179 -32.072  0.00  0.00    -0.382 OA
BRANCH   7   9
ATOM      8  C   UNL     1      38.229 -35.234 -31.854  0.00  0.00    -0.042 C 
ATOM      9  C   UNL     1      39.010 -33.944 -32.022  0.00  0.00    +0.045 C 
ENDBRANCH   7   9
ENDBRANCH   6   7
ENDBRANCH   1   6
TORSDOF 4
ENDMDL
MODEL 6
REMARK VINA RESULT:    -3.881     29.391     30.611
REMARK INTER + INTRA:          -2.858
REMARK INTER:                  -4.469
REMARK INTRA:                   1.610
REMARK UNBOUND:                 1.476
REMARK  Name = cpd216.pdb
REMARK  8 active torsions:
REMARK  status: ('A' for Active; 'I' for Inactive)
REMARK    1  A    between atoms: C_1  and  C_2
REMARK    2  A    between atoms: C_2  and  O_3
REMARK    3  A    between atoms: O_3  and  C_4
REMARK    4  A    between atoms: C_4  and  C_5
REMARK    5  A    between atoms: C_5  and  N_6
REMARK    6  A    between atoms: N_6  and  C_7
REMARK    7  A    between atoms: N_6  and  C_8
REMARK    8  A    between atoms: N_6  and  C_9
REMARK                            x       y       z     vdW  Elec       q    Type
REMARK                         _______ _______ _______ _____ _____    ______ ____
ROOT
ATOM      1  C   UNL     1      62.112 -24.629  -8.491  0.00  0.00    -0.065 C 
ENDROOT
BRANCH   1   2
ATOM      2  N   UNL     1      62.642 -24.377  -9.301  0.00  0.00    +0.376 N 
ATOM      3  C   UNL     1      63.152 -23.709  -8.761  0.00  0.00    -0.101 C 
ATOM      4  C   UNL     1      63.171 -24.126 -10.112  0.00  0.00    -0.101 C 
ATOM      5  C   UNL     1      62.131 -25.046  -9.842  0.00  0.00    -0.101 C 
ENDBRANCH   1   2
BRANCH   1   6
ATOM      6  C   UNL     1      62.398 -25.206  -6.828  0.00  0.00    +0.033 C 
BRANCH   6   7
ATOM      7  O   UNL     1      62.293 -26.633  -6.873  0.00  0.00    -0.382 OA
BRANCH   7   9
ATOM      8  C   UNL     1      64.728 -26.673  -6.697  0.00  0.00    -0.042 C 
ATOM      9  C   UNL     1      63.411 -27.310  -6.293  0.00  0.00    +0.045 C 
ENDBRANCH   7   9
ENDBRANCH   6   7
ENDBRANCH   1   6
TORSDOF 4
ENDMDL
MODEL 7
REMARK VINA RESULT:    -3.879     26.267     27.091
REMARK INTER + INTRA:          -2.856
REMARK INTER:                  -4.357
REMARK INTRA:                   1.500
REMARK UNBOUND:                 1.476
REMARK  Name = cpd216.pdb
REMARK  8 active torsions:
REMARK  status: ('A' for Active; 'I' for Inactive)
REMARK    1  A    between atoms: C_1  and  C_2
REMARK    2  A    between atoms: C_2  and  O_3
REMARK    3  A    between atoms: O_3  and  C_4
REMARK    4  A    between atoms: C_4  and  C_5
REMARK    5  A    between atoms: C_5  and  N_6
REMARK    6  A    between atoms: N_6  and  C_7
REMARK    7  A    between atoms: N_6  and  C_8
REMARK    8  A    between atoms: N_6  and  C_9
REMARK                            x       y       z     vdW  Elec       q    Type
REMARK                         _______ _______ _______ _____ _____    ______ ____
ROOT
ATOM      1  C   UNL     1      57.415 -20.895 -45.811  0.00  0.00    -0.065 C 
ENDROOT
BRANCH   1   2
ATOM      2  N   UNL     1      56.887 -20.069 -45.613  0.00  0.00    +0.376 N 
ATOM      3  C   UNL     1      56.084 -20.480 -46.045  0.00  0.00    -0.101 C 
ATOM      4  C   UNL     1      56.358 -19.244 -45.415  0.00  0.00    -0.101 C 
ATOM      5  C   UNL     1      57.690 -19.659 -45.181  0.00  0.00    -0.101 C 
ENDBRANCH   1   2
BRANCH   1   6
ATOM      6  C   UNL     1      58.445 -21.549 -47.111  0.00  0.00    +0.033 C 
BRANCH   6   7
ATOM      7  O   UNL     1      58.250 -22.967 -47.107  0.00  0.00    -0.382 OA
BRANCH   7   9
ATOM      8  C   UNL     1      56.214 -23.882 -48.095  0.00  0.00    -0.042 C 
ATOM      9  C   UNL     1      57.659 -23.470 -48.308  0.00  0.00    +0.045 C 
ENDBRANCH   7   9
ENDBRANCH   6   7
ENDBRANCH   1   6
TORSDOF 4
ENDMDL
MODEL 8
REMARK VINA RESULT:    -3.810      3.423      4.229
REMARK INTER + INTRA:          -2.780
REMARK INTER:                  -4.329
REMARK INTRA:                   1.550
REMARK UNBOUND:                 1.476
REMARK  Name = cpd216.pdb
REMARK  8 active torsions:
REMARK  status: ('A' for Active; 'I' for Inactive)
REMARK    1  A    between atoms: C_1  and  C_2
REMARK    2  A    between atoms: C_2  and  O_3
REMARK    3  A    between atoms: O_3  and  C_4
REMARK    4  A    between atoms: C_4  and  C_5
REMARK    5  A    between atoms: C_5  and  N_6
REMARK    6  A    between atoms: N_6  and  C_7
REMARK    7  A    between atoms: N_6  and  C_8
REMARK    8  A    between atoms: N_6  and  C_9
REMARK                            x       y       z     vdW  Elec       q    Type
REMARK                         _______ _______ _______ _____ _____    ______ ____
ROOT
ATOM      1  C   UNL     1      48.760 -37.957 -30.348  0.00  0.00    -0.065 C 
ENDROOT
BRANCH   1   2
ATOM      2  N   UNL     1      49.467 -38.658 -30.262  0.00  0.00    +0.376 N 
ATOM      3  C   UNL     1      49.171 -38.842 -29.324  0.00  0.00    -0.101 C 
ATOM      4  C   UNL     1      50.175 -39.360 -30.176  0.00  0.00    -0.101 C 
ATOM      5  C   UNL     1      49.763 -38.475 -31.199  0.00  0.00    -0.101 C 
ENDBRANCH   1   2
BRANCH   1   6
ATOM      6  C   UNL     1      48.580 -36.198 -30.117  0.00  0.00    +0.033 C 
BRANCH   6   7
ATOM      7  O   UNL     1      47.778 -35.727 -31.205  0.00  0.00    -0.382 OA
BRANCH   7   9
ATOM      8  C   UNL     1      45.508 -35.641 -30.310  0.00  0.00    -0.042 C 
ATOM      9  C   UNL     1      46.714 -34.861 -30.802  0.00  0.00    +0.045 C 
ENDBRANCH   7   9
ENDBRANCH   6   7
ENDBRANCH   1   6
TORSDOF 4
ENDMDL
MODEL 9
REMARK VINA RESULT:    -3.769     21.497     22.491
REMARK INTER + INTRA:          -2.734
REMARK INTER:                  -4.191
REMARK INTRA:                   1.457
REMARK UNBOUND:                 1.476
REMARK  Name = cpd216.pdb
REMARK  8 active torsions:
REMARK  status: ('A' for Active; 'I' for Inactive)
REMARK    1  A    between atoms: C_1  and  C_2
REMARK    2  A    between atoms: C_2  and  O_3
REMARK    3  A    between atoms: O_3  and  C_4
REMARK    4  A    between atoms: C_4  and  C_5
REMARK    5  A    between atoms: C_5  and  N_6
REMARK    6  A    between atoms: N_6  and  C_7
REMARK    7  A    between atoms: N_6  and  C_8
REMARK    8  A    between atoms: N_6  and  C_9
REMARK                            x       y       z     vdW  Elec       q    Type
REMARK                         _______ _______ _______ _____ _____    ______ ____
ROOT
ATOM      1  C   UNL     1      47.160 -21.690 -41.108  0.00  0.00    -0.065 C 
ENDROOT
BRANCH   1   2
ATOM      2  N   UNL     1      47.658 -22.509 -41.394  0.00  0.00    +0.376 N 
ATOM      3  C   UNL     1      46.887 -22.777 -41.971  0.00  0.00    -0.101 C 
ATOM      4  C   UNL     1      48.156 -23.328 -41.679  0.00  0.00    -0.101 C 
ATOM      5  C   UNL     1      48.429 -22.242 -40.816  0.00  0.00    -0.101 C 
ENDBRANCH   1   2
BRANCH   1   6
ATOM      6  C   UNL     1      46.878 -20.025 -41.680  0.00  0.00    +0.033 C 
BRANCH   6   7
ATOM      7  O   UNL     1      45.710 -19.556 -40.997  0.00  0.00    -0.382 OA
BRANCH   7   9
ATOM      8  C   UNL     1      44.360 -19.910 -43.000  0.00  0.00    -0.042 C 
ATOM      9  C   UNL     1      44.732 -18.976 -41.863  0.00  0.00    +0.045 C 
ENDBRANCH   7   9
ENDBRANCH   6   7
ENDBRANCH   1   6
TORSDOF 4
ENDMDL
MODEL 10
REMARK VINA RESULT:    -3.722     21.344     22.319
REMARK INTER + INTRA:          -2.681
REMARK INTER:                  -4.176
REMARK INTRA:                   1.495
REMARK UNBOUND:                 1.476
REMARK  Name = cpd216.pdb
REMARK  8 active torsions:
REMARK  status: ('A' for Active; 'I' for Inactive)
REMARK    1  A    between atoms: C_1  and  C_2
REMARK    2  A    between atoms: C_2  and  O_3
REMARK    3  A    between atoms: O_3  and  C_4
REMARK    4  A    between atoms: C_4  and  C_5
REMARK    5  A    between atoms: C_5  and  N_6
REMARK    6  A    between atoms: N_6  and  C_7
REMARK    7  A    between atoms: N_6  and  C_8
REMARK    8  A    between atoms: N_6  and  C_9
REMARK                            x       y       z     vdW  Elec       q    Type
REMARK                         _______ _______ _______ _____ _____    ______ ____
ROOT
ATOM      1  C   UNL     1      47.114 -22.227 -41.875  0.00  0.00    -0.065 C 
ENDROOT
BRANCH   1   2
ATOM      2  N   UNL     1      47.927 -22.287 -41.296  0.00  0.00    +0.376 N 
ATOM      3  C   UNL     1      47.576 -23.132 -40.891  0.00  0.00    -0.101 C 
ATOM      4  C   UNL     1      48.741 -22.348 -40.718  0.00  0.00    -0.101 C 
ATOM      5  C   UNL     1      48.278 -21.443 -41.701  0.00  0.00    -0.101 C 
ENDBRANCH   1   2
BRANCH   1   6
ATOM      6  C   UNL     1      45.396 -21.770 -41.731  0.00  0.00    +0.033 C 
BRANCH   6   7
ATOM      7  O   UNL     1      44.993 -21.303 -43.022  0.00  0.00    -0.382 OA
BRANCH   7   9
ATOM      8  C   UNL     1      44.854 -19.147 -41.883  0.00  0.00    -0.042 C 
ATOM      9  C   UNL     1      44.326 -20.038 -42.994  0.00  0.00    +0.045 C 
ENDBRANCH   7   9
ENDBRANCH   6   7
ENDBRANCH   1   6
TORSDOF 4
ENDMDL
MODEL 11
REMARK VINA RESULT:    -3.708     26.158     26.953
REMARK INTER + INTRA:          -2.665
REMARK INTER:                  -4.183
REMARK INTRA:                   1.518
REMARK UNBOUND:                 1.476
REMARK  Name = cpd216.pdb
REMARK  8 active torsions:
REMARK  status: ('A' for Active; 'I' for Inactive)
REMARK    1  A    between atoms: C_1  and  C_2
REMARK    2  A    between atoms: C_2  and  O_3
REMARK    3  A    between atoms: O_3  and  C_4
REMARK    4  A    between atoms: C_4  and  C_5
REMARK    5  A    between atoms: C_5  and  N_6
REMARK    6  A    between atoms: N_6  and  C_7
REMARK    7  A    between atoms: N_6  and  C_8
REMARK    8  A    between atoms: N_6  and  C_9
REMARK                            x       y       z     vdW  Elec       q    Type
REMARK                         _______ _______ _______ _____ _____    ______ ____
ROOT
ATOM      1  C   UNL     1      56.330 -22.876 -48.206  0.00  0.00    -0.065 C 
ENDROOT
BRANCH   1   2
ATOM      2  N   UNL     1      56.212 -23.839 -48.451  0.00  0.00    +0.376 N 
ATOM      3  C   UNL     1      57.140 -24.033 -48.131  0.00  0.00    -0.101 C 
ATOM      4  C   UNL     1      56.095 -24.801 -48.696  0.00  0.00    -0.101 C 
ATOM      5  C   UNL     1      55.285 -23.644 -48.771  0.00  0.00    -0.101 C 
ENDBRANCH   1   2
BRANCH   1   6
ATOM      6  C   UNL     1      56.097 -21.814 -46.793  0.00  0.00    +0.033 C 
BRANCH   6   7
ATOM      7  O   UNL     1      56.743 -20.576 -47.107  0.00  0.00    -0.382 OA
BRANCH   7   9
ATOM      8  C   UNL     1      56.694 -18.972 -45.267  0.00  0.00    -0.042 C 
ATOM      9  C   UNL     1      57.489 -20.024 -46.019  0.00  0.00    +0.045 C 
ENDBRANCH   7   9
ENDBRANCH   6   7
ENDBRANCH   1   6
TORSDOF 4
ENDMDL
MODEL 12
REMARK VINA RESULT:    -3.644      5.337      6.400
REMARK INTER + INTRA:          -2.594
REMARK INTER:                  -4.120
REMARK INTRA:                   1.526
REMARK UNBOUND:                 1.476
REMARK  Name = cpd216.pdb
REMARK  8 active torsions:
REMARK  status: ('A' for Active; 'I' for Inactive)
REMARK    1  A    between atoms: C_1  and  C_2
REMARK    2  A    between atoms: C_2  and  O_3
REMARK    3  A    between atoms: O_3  and  C_4
REMARK    4  A    between atoms: C_4  and  C_5
REMARK    5  A    between atoms: C_5  and  N_6
REMARK    6  A    between atoms: N_6  and  C_7
REMARK    7  A    between atoms: N_6  and  C_8
REMARK    8  A    between atoms: N_6  and  C_9
REMARK                            x       y       z     vdW  Elec       q    Type
REMARK                         _______ _______ _______ _____ _____    ______ ____
ROOT
ATOM      1  C   UNL     1      42.148 -37.022 -30.757  0.00  0.00    -0.065 C 
ENDROOT
BRANCH   1   2
ATOM      2  N   UNL     1      41.500 -36.450 -31.260  0.00  0.00    +0.376 N 
ATOM      3  C   UNL     1      42.258 -36.037 -31.766  0.00  0.00    -0.101 C 
ATOM      4  C   UNL     1      40.852 -35.878 -31.763  0.00  0.00    -0.101 C 
ATOM      5  C   UNL     1      40.743 -36.862 -30.754  0.00  0.00    -0.101 C 
ENDBRANCH   1   2
BRANCH   1   6
ATOM      6  C   UNL     1      42.750 -38.700 -30.775  0.00  0.00    +0.033 C 
BRANCH   6   7
ATOM      7  O   UNL     1      43.805 -38.761 -29.809  0.00  0.00    -0.382 OA
BRANCH   7   9
ATOM      8  C   UNL     1      45.919 -39.936 -29.476  0.00  0.00    -0.042 C 
ATOM      9  C   UNL     1      44.424 -40.047 -29.715  0.00  0.00    +0.045 C 
ENDBRANCH   7   9
ENDBRANCH   6   7
ENDBRANCH   1   6
TORSDOF 4
ENDMDL
MODEL 13
REMARK VINA RESULT:    -3.594     26.060     27.364
REMARK INTER + INTRA:          -2.538
REMARK INTER:                  -4.115
REMARK INTRA:                   1.577
REMARK UNBOUND:                 1.476
REMARK  Name = cpd216.pdb
REMARK  8 active torsions:
REMARK  status: ('A' for Active; 'I' for Inactive)
REMARK    1  A    between atoms: C_1  and  C_2
REMARK    2  A    between atoms: C_2  and  O_3
REMARK    3  A    between atoms: O_3  and  C_4
REMARK    4  A    between atoms: C_4  and  C_5
REMARK    5  A    between atoms: C_5  and  N_6
REMARK    6  A    between atoms: N_6  and  C_7
REMARK    7  A    between atoms: N_6  and  C_8
REMARK    8  A    between atoms: N_6  and  C_9
REMARK                            x       y       z     vdW  Elec       q    Type
REMARK                         _______ _______ _______ _____ _____    ______ ____
ROOT
ATOM      1  C   UNL     1      56.442 -21.212 -46.603  0.00  0.00    -0.065 C 
ENDROOT
BRANCH   1   2
ATOM      2  N   UNL     1      56.807 -22.135 -46.728  0.00  0.00    +0.376 N 
ATOM      3  C   UNL     1      55.903 -22.518 -46.541  0.00  0.00    -0.101 C 
ATOM      4  C   UNL     1      57.172 -23.057 -46.853  0.00  0.00    -0.101 C 
ATOM      5  C   UNL     1      57.712 -21.752 -46.915  0.00  0.00    -0.101 C 
ENDBRANCH   1   2
BRANCH   1   6
ATOM      6  C   UNL     1      56.652 -19.825 -45.502  0.00  0.00    +0.033 C 
BRANCH   6   7
ATOM      7  O   UNL     1      55.394 -19.142 -45.468  0.00  0.00    -0.382 OA
BRANCH   7   9
ATOM      8  C   UNL     1      56.232 -17.137 -46.581  0.00  0.00    -0.042 C 
ATOM      9  C   UNL     1      55.515 -17.720 -45.377  0.00  0.00    +0.045 C 
ENDBRANCH   7   9
ENDBRANCH   6   7
ENDBRANCH   1   6
TORSDOF 4
ENDMDL
MODEL 14
REMARK VINA RESULT:    -3.542      8.053      8.749
REMARK INTER + INTRA:          -2.480
REMARK INTER:                  -3.957
REMARK INTRA:                   1.477
REMARK UNBOUND:                 1.476
REMARK  Name = cpd216.pdb
REMARK  8 active torsions:
REMARK  status: ('A' for Active; 'I' for Inactive)
REMARK    1  A    between atoms: C_1  and  C_2
REMARK    2  A    between atoms: C_2  and  O_3
REMARK    3  A    between atoms: O_3  and  C_4
REMARK    4  A    between atoms: C_4  and  C_5
REMARK    5  A    between atoms: C_5  and  N_6
REMARK    6  A    between atoms: N_6  and  C_7
REMARK    7  A    between atoms: N_6  and  C_8
REMARK    8  A    between atoms: N_6  and  C_9
REMARK                            x       y       z     vdW  Elec       q    Type
REMARK                         _______ _______ _______ _____ _____    ______ ____
ROOT
ATOM      1  C   UNL     1      40.974 -35.844 -31.258  0.00  0.00    -0.065 C 
ENDROOT
BRANCH   1   2
ATOM      2  N   UNL     1      41.726 -36.491 -31.134  0.00  0.00    +0.376 N 
ATOM      3  C   UNL     1      41.144 -37.055 -30.548  0.00  0.00    -0.101 C 
ATOM      4  C   UNL     1      42.479 -37.138 -31.009  0.00  0.00    -0.101 C 
ATOM      5  C   UNL     1      42.309 -35.927 -31.719  0.00  0.00    -0.101 C 
ENDBRANCH   1   2
BRANCH   1   6
ATOM      6  C   UNL     1      39.524 -35.654 -32.278  0.00  0.00    +0.033 C 
BRANCH   6   7
ATOM      7  O   UNL     1      38.660 -34.746 -31.587  0.00  0.00    -0.382 OA
BRANCH   7   9
ATOM      8  C   UNL     1      37.419 -36.292 -30.162  0.00  0.00    -0.042 C 
ATOM      9  C   UNL     1      37.368 -35.288 -31.299  0.00  0.00    +0.045 C 
ENDBRANCH   7   9
ENDBRANCH   6   7
ENDBRANCH   1   6
TORSDOF 4
ENDMDL
MODEL 15
REMARK VINA RESULT:    -3.486     20.957     21.823
REMARK INTER + INTRA:          -2.417
REMARK INTER:                  -3.953
REMARK INTRA:                   1.536
REMARK UNBOUND:                 1.476
REMARK  Name = cpd216.pdb
REMARK  8 active torsions:
REMARK  status: ('A' for Active; 'I' for Inactive)
REMARK    1  A    between atoms: C_1  and  C_2
REMARK    2  A    between atoms: C_2  and  O_3
REMARK    3  A    between atoms: O_3  and  C_4
REMARK    4  A    between atoms: C_4  and  C_5
REMARK    5  A    between atoms: C_5  and  N_6
REMARK    6  A    between atoms: N_6  and  C_7
REMARK    7  A    between atoms: N_6  and  C_8
REMARK    8  A    between atoms: N_6  and  C_9
REMARK                            x       y       z     vdW  Elec       q    Type
REMARK                         _______ _______ _______ _____ _____    ______ ____
ROOT
ATOM      1  C   UNL     1      46.804 -21.906 -41.501  0.00  0.00    -0.065 C 
ENDROOT
BRANCH   1   2
ATOM      2  N   UNL     1      47.707 -22.311 -41.354  0.00  0.00    +0.376 N 
ATOM      3  C   UNL     1      48.129 -21.551 -41.848  0.00  0.00    -0.101 C 
ATOM      4  C   UNL     1      48.609 -22.716 -41.206  0.00  0.00    -0.101 C 
ATOM      5  C   UNL     1      47.285 -23.070 -40.859  0.00  0.00    -0.101 C 
ENDBRANCH   1   2
BRANCH   1   6
ATOM      6  C   UNL     1      45.395 -22.124 -42.571  0.00  0.00    +0.033 C 
BRANCH   6   7
ATOM      7  O   UNL     1      44.550 -20.988 -42.364  0.00  0.00    -0.382 OA
BRANCH   7   9
ATOM      8  C   UNL     1      43.251 -21.270 -40.315  0.00  0.00    -0.042 C 
ATOM      9  C   UNL     1      43.264 -21.317 -41.833  0.00  0.00    +0.045 C 
ENDBRANCH   7   9
ENDBRANCH   6   7
ENDBRANCH   1   6
TORSDOF 4
ENDMDL
MODEL 16
REMARK VINA RESULT:    -3.391     31.466     33.037
REMARK INTER + INTRA:          -2.311
REMARK INTER:                  -3.853
REMARK INTRA:                   1.542
REMARK UNBOUND:                 1.476
REMARK  Name = cpd216.pdb
REMARK  8 active torsions:
REMARK  status: ('A' for Active; 'I' for Inactive)
REMARK    1  A    between atoms: C_1  and  C_2
REMARK    2  A    between atoms: C_2  and  O_3
REMARK    3  A    between atoms: O_3  and  C_4
REMARK    4  A    between atoms: C_4  and  C_5
REMARK    5  A    between atoms: C_5  and  N_6
REMARK    6  A    between atoms: N_6  and  C_7
REMARK    7  A    between atoms: N_6  and  C_8
REMARK    8  A    between atoms: N_6  and  C_9
REMARK                            x       y       z     vdW  Elec       q    Type
REMARK                         _______ _______ _______ _____ _____    ______ ____
ROOT
ATOM      1  C   UNL     1      63.700 -25.883  -6.379  0.00  0.00    -0.065 C 
ENDROOT
BRANCH   1   2
ATOM      2  N   UNL     1      63.021 -26.574  -6.628  0.00  0.00    +0.376 N 
ATOM      3  C   UNL     1      62.378 -25.851  -6.881  0.00  0.00    -0.101 C 
ATOM      4  C   UNL     1      62.343 -27.265  -6.878  0.00  0.00    -0.101 C 
ATOM      5  C   UNL     1      63.664 -27.297  -6.375  0.00  0.00    -0.101 C 
ENDBRANCH   1   2
BRANCH   1   6
ATOM      6  C   UNL     1      64.319 -25.080  -4.912  0.00  0.00    +0.033 C 
BRANCH   6   7
ATOM      7  O   UNL     1      64.706 -23.760  -5.307  0.00  0.00    -0.382 OA
BRANCH   7   9
ATOM      8  C   UNL     1      65.565 -23.190  -3.094  0.00  0.00    -0.042 C 
ATOM      9  C   UNL     1      64.654 -22.804  -4.245  0.00  0.00    +0.045 C 
ENDBRANCH   7   9
ENDBRANCH   6   7
ENDBRANCH   1   6
TORSDOF 4
ENDMDL
MODEL 17
REMARK VINA RESULT:    -3.377      8.693      9.944
REMARK INTER + INTRA:          -2.295
REMARK INTER:                  -3.842
REMARK INTRA:                   1.547
REMARK UNBOUND:                 1.476
REMARK  Name = cpd216.pdb
REMARK  8 active torsions:
REMARK  status: ('A' for Active; 'I' for Inactive)
REMARK    1  A    between atoms: C_1  and  C_2
REMARK    2  A    between atoms: C_2  and  O_3
REMARK    3  A    between atoms: O_3  and  C_4
REMARK    4  A    between atoms: C_4  and  C_5
REMARK    5  A    between atoms: C_5  and  N_6
REMARK    6  A    between atoms: N_6  and  C_7
REMARK    7  A    between atoms: N_6  and  C_8
REMARK    8  A    between atoms: N_6  and  C_9
REMARK                            x       y       z     vdW  Elec       q    Type
REMARK                         _______ _______ _______ _____ _____    ______ ____
ROOT
ATOM      1  C   UNL     1      38.483 -35.950 -30.875  0.00  0.00    -0.065 C 
ENDROOT
BRANCH   1   2
ATOM      2  N   UNL     1      37.569 -36.353 -30.824  0.00  0.00    +0.376 N 
ATOM      3  C   UNL     1      37.936 -37.117 -30.292  0.00  0.00    -0.101 C 
ATOM      4  C   UNL     1      36.656 -36.756 -30.772  0.00  0.00    -0.101 C 
ATOM      5  C   UNL     1      37.202 -35.589 -31.355  0.00  0.00    -0.101 C 
ENDBRANCH   1   2
BRANCH   1   6
ATOM      6  C   UNL     1      39.957 -36.091 -31.868  0.00  0.00    +0.033 C 
BRANCH   6   7
ATOM      7  O   UNL     1      41.050 -35.716 -31.023  0.00  0.00    -0.382 OA
BRANCH   7   9
ATOM      8  C   UNL     1      42.266 -37.571 -32.045  0.00  0.00    -0.042 C 
ATOM      9  C   UNL     1      41.981 -36.774 -30.784  0.00  0.00    +0.045 C 
ENDBRANCH   7   9
ENDBRANCH   6   7
ENDBRANCH   1   6
TORSDOF 4
ENDMDL
MODEL 18
REMARK VINA RESULT:    -3.365     18.865     20.207
REMARK INTER + INTRA:          -2.282
REMARK INTER:                  -3.796
REMARK INTRA:                   1.514
REMARK UNBOUND:                 1.476
REMARK  Name = cpd216.pdb
REMARK  8 active torsions:
REMARK  status: ('A' for Active; 'I' for Inactive)
REMARK    1  A    between atoms: C_1  and  C_2
REMARK    2  A    between atoms: C_2  and  O_3
REMARK    3  A    between atoms: O_3  and  C_4
REMARK    4  A    between atoms: C_4  and  C_5
REMARK    5  A    between atoms: C_5  and  N_6
REMARK    6  A    between atoms: N_6  and  C_7
REMARK    7  A    between atoms: N_6  and  C_8
REMARK    8  A    between atoms: N_6  and  C_9
REMARK                            x       y       z     vdW  Elec       q    Type
REMARK                         _______ _______ _______ _____ _____    ______ ____
ROOT
ATOM      1  C   UNL     1      55.340 -35.430 -46.684  0.00  0.00    -0.065 C 
ENDROOT
BRANCH   1   2
ATOM      2  N   UNL     1      54.502 -35.139 -46.222  0.00  0.00    +0.376 N 
ATOM      3  C   UNL     1      53.976 -35.793 -46.765  0.00  0.00    -0.101 C 
ATOM      4  C   UNL     1      53.665 -34.849 -45.760  0.00  0.00    -0.101 C 
ATOM      5  C   UNL     1      55.029 -34.485 -45.679  0.00  0.00    -0.101 C 
ENDBRANCH   1   2
BRANCH   1   6
ATOM      6  C   UNL     1      56.373 -34.909 -48.042  0.00  0.00    +0.033 C 
BRANCH   6   7
ATOM      7  O   UNL     1      56.986 -36.093 -48.561  0.00  0.00    -0.382 OA
BRANCH   7   9
ATOM      8  C   UNL     1      55.396 -35.553 -50.334  0.00  0.00    -0.042 C 
ATOM      9  C   UNL     1      56.517 -36.461 -49.861  0.00  0.00    +0.045 C 
ENDBRANCH   7   9
ENDBRANCH   6   7
ENDBRANCH   1   6
TORSDOF 4
ENDMDL
MODEL 19
REMARK VINA RESULT:    -3.212     20.896     21.457
REMARK INTER + INTRA:          -2.111
REMARK INTER:                  -3.631
REMARK INTRA:                   1.520
REMARK UNBOUND:                 1.476
REMARK  Name = cpd216.pdb
REMARK  8 active torsions:
REMARK  status: ('A' for Active; 'I' for Inactive)
REMARK    1  A    between atoms: C_1  and  C_2
REMARK    2  A    between atoms: C_2  and  O_3
REMARK    3  A    between atoms: O_3  and  C_4
REMARK    4  A    between atoms: C_4  and  C_5
REMARK    5  A    between atoms: C_5  and  N_6
REMARK    6  A    between atoms: N_6  and  C_7
REMARK    7  A    between atoms: N_6  and  C_8
REMARK    8  A    between atoms: N_6  and  C_9
REMARK                            x       y       z     vdW  Elec       q    Type
REMARK                         _______ _______ _______ _____ _____    ______ ____
ROOT
ATOM      1  C   UNL     1      47.119 -21.632 -40.622  0.00  0.00    -0.065 C 
ENDROOT
BRANCH   1   2
ATOM      2  N   UNL     1      47.103 -22.443 -41.207  0.00  0.00    +0.376 N 
ATOM      3  C   UNL     1      46.261 -22.116 -41.636  0.00  0.00    -0.101 C 
ATOM      4  C   UNL     1      47.086 -23.254 -41.792  0.00  0.00    -0.101 C 
ATOM      5  C   UNL     1      47.945 -22.770 -40.777  0.00  0.00    -0.101 C 
ENDBRANCH   1   2
BRANCH   1   6
ATOM      6  C   UNL     1      46.520 -21.119 -39.023  0.00  0.00    +0.033 C 
BRANCH   6   7
ATOM      7  O   UNL     1      47.192 -19.894 -38.713  0.00  0.00    -0.382 OA
BRANCH   7   9
ATOM      8  C   UNL     1      46.293 -20.392 -36.498  0.00  0.00    -0.042 C 
ATOM      9  C   UNL     1      46.814 -19.333 -37.453  0.00  0.00    +0.045 C 
ENDBRANCH   7   9
ENDBRANCH   6   7
ENDBRANCH   1   6
TORSDOF 4
ENDMDL
MODEL 20
REMARK VINA RESULT:    -3.105     29.938     30.301
REMARK INTER + INTRA:          -1.991
REMARK INTER:                  -3.610
REMARK INTRA:                   1.619
REMARK UNBOUND:                 1.476
REMARK  Name = cpd216.pdb
REMARK  8 active torsions:
REMARK  status: ('A' for Active; 'I' for Inactive)
REMARK    1  A    between atoms: C_1  and  C_2
REMARK    2  A    between atoms: C_2  and  O_3
REMARK    3  A    between atoms: O_3  and  C_4
REMARK    4  A    between atoms: C_4  and  C_5
REMARK    5  A    between atoms: C_5  and  N_6
REMARK    6  A    between atoms: N_6  and  C_7
REMARK    7  A    between atoms: N_6  and  C_8
REMARK    8  A    between atoms: N_6  and  C_9
REMARK                            x       y       z     vdW  Elec       q    Type
REMARK                         _______ _______ _______ _____ _____    ______ ____
ROOT
ATOM      1  C   UNL     1      63.267 -14.352 -30.345  0.00  0.00    -0.065 C 
ENDROOT
BRANCH   1   2
ATOM      2  N   UNL     1      62.319 -14.071 -30.496  0.00  0.00    +0.376 N 
ATOM      3  C   UNL     1      62.450 -14.159 -31.483  0.00  0.00    -0.101 C 
ATOM      4  C   UNL     1      61.372 -13.789 -30.647  0.00  0.00    -0.101 C 
ATOM      5  C   UNL     1      62.188 -13.982 -29.508  0.00  0.00    -0.101 C 
ENDBRANCH   1   2
BRANCH   1   6
ATOM      6  C   UNL     1      64.332 -15.732 -30.720  0.00  0.00    +0.033 C 
BRANCH   6   7
ATOM      7  O   UNL     1      65.640 -15.368 -30.266  0.00  0.00    -0.382 OA
BRANCH   7   9
ATOM      8  C   UNL     1      66.210 -17.120 -31.869  0.00  0.00    -0.042 C 
ATOM      9  C   UNL     1      66.697 -15.951 -31.032  0.00  0.00    +0.045 C 
ENDBRANCH   7   9
ENDBRANCH   6   7
ENDBRANCH   1   6
TORSDOF 4
ENDMDL
