REMARK  Name = cpd216.pdb
REMARK  8 active torsions:
REMARK  status: ('A' for Active; 'I' for Inactive)
REMARK    1  A    between atoms: C_1  and  C_2
REMARK    2  A    between atoms: C_2  and  O_3
REMARK    3  A    between atoms: O_3  and  C_4
REMARK    4  A    between atoms: C_4  and  C_5
REMARK    5  A    between atoms: C_5  and  N_6
REMARK    6  A    between atoms: N_6  and  C_7
REMARK    7  A    between atoms: N_6  and  C_8
REMARK    8  A    between atoms: N_6  and  C_9
REMARK                            x       y       z     vdW  Elec       q    Type
REMARK                         _______ _______ _______ _____ _____    ______ ____
ROOT
ATOM      1  C   UNL     1      -1.000  -1.000   0.000  0.00  0.00    -0.065 C 
ENDROOT
BRANCH   1   2
ATOM      2  N   UNL     1       0.000  -1.000   0.000  0.00  0.00    +0.376 N 
ATOM      3  C   UNL     1       0.000  -2.000   0.000  0.00  0.00    -0.101 C 
ATOM      4  C   UNL     1       1.000  -1.000   0.000  0.00  0.00    -0.101 C 
ATOM      5  C   UNL     1       0.000   0.000   0.000  0.00  0.00    -0.101 C 
ENDBRANCH   1   2
BRANCH   1   6
ATOM      6  C   UNL     1      -2.341   0.175   0.030  0.00  0.00    +0.033 C 
BRANCH   6   7
ATOM      7  O   UNL     1      -3.550  -0.591   0.006  0.00  0.00    -0.382 OA
BRANCH   7   9
ATOM      8  C   UNL     1      -5.081   0.920  -1.149  0.00  0.00    -0.042 C 
ATOM      9  C   UNL     1      -4.734   0.199   0.141  0.00  0.00    +0.045 C 
ENDBRANCH   7   9
ENDBRANCH   6   7
ENDBRANCH   1   6
TORSDOF 4
