@<TRIPOS>MOLECULE
*****
 9 8 0 0 0
SMALL
GASTEIGER

@<TRIPOS>ATOM
      1 C          -2.5000    1.5981    0.0000 C.3     1  UNL1        0.0347
      2 C          -3.0000    0.7321    0.0000 C.3     1  UNL1        0.1425
      3 O          -2.5000   -0.1340    0.0000 O.3     1  UNL1       -0.3476
      4 C          -1.5000   -0.1340    0.0000 C.3     1  UNL1        0.2028
      5 C          -1.0000   -1.0000    0.0000 C.3     1  UNL1        0.1419
      6 N          -0.0000   -1.0000    0.0000 N.4     1  UNL1        0.3125
      7 C          -0.0000   -2.0000    0.0000 C.3     1  UNL1        0.1711
      8 C           1.0000   -1.0000    0.0000 C.3     1  UNL1        0.1711
      9 C           0.0000   -0.0000    0.0000 C.3     1  UNL1        0.1711
@<TRIPOS>UNITY_ATOM_ATTR
6 1
charge 1
@<TRIPOS>BOND
     1     1     2    1
     2     2     3    1
     3     3     4    1
     4     4     5    1
     5     5     6    1
     6     6     7    1
     7     6     8    1
     8     6     9    1
