REMARK  Name = cpd335.pdb
REMARK  13 active torsions:
REMARK  status: ('A' for Active; 'I' for Inactive)
REMARK    1  A    between atoms: C_1  and  O_2
REMARK    2  A    between atoms: O_2  and  C_3
REMARK    3  A    between atoms: C_5  and  C_6
REMARK    4  A    between atoms: C_6  and  C_7
REMARK    5  A    between atoms: C_7  and  C_8
REMARK    6  A    between atoms: C_7  and  C_11
REMARK    7  A    between atoms: C_8  and  C_9
REMARK    8  A    between atoms: N_13  and  C_14
REMARK    9  A    between atoms: C_14  and  C_15
REMARK   10  A    between atoms: C_15  and  C_16
REMARK   11  A    between atoms: C_16  and  N_17
REMARK   12  A    between atoms: N_17  and  C_18
REMARK   13  A    between atoms: C_34  and  O_35
REMARK                            x       y       z     vdW  Elec       q    Type
REMARK                         _______ _______ _______ _____ _____    ______ ____
ROOT
ATOM      1  C   UNL A   1      -3.749  -1.210  -0.335  0.00  0.00    +0.224 C 
ATOM      2  O   UNL A   1      -4.172  -1.310  -1.483  0.00  0.00    -0.275 OA
ATOM      3  N   UNL A   1      -4.410  -1.715   0.763  0.00  0.00    -0.315 N 
ATOM      4  H   UNL A   1      -3.986  -1.644   1.649  0.00  0.00    +0.000 HD
ENDROOT
BRANCH   1   5
ATOM      5  C   UNL A   1      -2.417  -0.548  -0.043  0.00  0.00    +0.097 C 
BRANCH   5   6
ATOM      6  C   UNL A   1      -2.572   0.585   0.951  0.00  0.00    +0.142 C 
ATOM      7  C   UNL A   1      -2.269   1.976   0.462  0.00  0.00    -0.005 C 
ATOM      8  O   UNL A   1      -2.953   0.379   2.107  0.00  0.00    -0.297 OA
ENDBRANCH   5   6
BRANCH   5   9
ATOM      9  C   UNL A   1      -1.411  -1.586   0.464  0.00  0.00    -0.010 C 
BRANCH   9  12
ATOM     10  C   UNL A   1       2.057  -0.564  -0.771  0.00  0.00    +0.162 A 
ATOM     11  C   UNL A   1       0.756  -1.075  -0.739  0.00  0.00    -0.013 A 
ATOM     12  C   UNL A   1       0.007  -1.062   0.451  0.00  0.00    -0.043 A 
ATOM     13  C   UNL A   1       0.574  -0.527   1.614  0.00  0.00    -0.055 A 
ATOM     14  C   UNL A   1       1.869  -0.011   1.593  0.00  0.00    -0.016 A 
ATOM     15  C   UNL A   1       2.600  -0.030   0.405  0.00  0.00    +0.158 A 
BRANCH  10  17
ATOM     16  C   UNL A   1       2.383  -1.166  -3.056  0.00  0.00    +0.079 C 
ATOM     17  O   UNL A   1       2.861  -0.529  -1.880  0.00  0.00    -0.491 OA
ENDBRANCH  10  17
BRANCH  15  18
ATOM     18  O   UNL A   1       3.872   0.479   0.384  0.00  0.00    -0.503 OA
ATOM     19  H   UNL A   1       4.368   0.469  -0.411  0.00  0.00    +0.000 HD
ENDBRANCH  15  18
ENDBRANCH   9  12
ENDBRANCH   5   9
ENDBRANCH   1   5
BRANCH   3  20
ATOM     20  C   UNL A   1      -5.711  -2.348   0.655  0.00  0.00    +0.013 C 
BRANCH  20  21
ATOM     21  C   UNL A   1      -6.832  -1.315   0.565  0.00  0.00    -0.022 C 
BRANCH  21  22
ATOM     22  C   UNL A   1      -8.215  -1.961   0.620  0.00  0.00    +0.011 C 
BRANCH  22  23
ATOM     23  N   UNL A   1      -8.423  -2.803  -0.564  0.00  0.00    -0.343 N 
ATOM     24  H   UNL A   1      -7.795  -2.857  -1.320  0.00  0.00    +0.000 HD
BRANCH  23  25
ATOM     25  C   UNL A   1      -9.645  -3.534  -0.486  0.00  0.00    +0.041 A 
ATOM     26  C   UNL A   1      -9.617  -4.825   0.078  0.00  0.00    -0.005 A 
ATOM     27  C   UNL A   1     -10.832  -5.490   0.241  0.00  0.00    +0.047 A 
ATOM     28  N   UNL A   1     -12.020  -4.961  -0.135  0.00  0.00    -0.251 NA
ATOM     29  C   UNL A   1     -12.046  -3.736  -0.676  0.00  0.00    +0.073 A 
ATOM     30  C   UNL A   1     -13.280  -3.217  -1.045  0.00  0.00    -0.036 A 
ATOM     31  C   UNL A   1     -13.412  -1.947  -1.608  0.00  0.00    -0.060 A 
ATOM     32  C   UNL A   1     -12.284  -1.168  -1.810  0.00  0.00    -0.061 A 
ATOM     33  C   UNL A   1     -11.033  -1.668  -1.448  0.00  0.00    -0.051 A 
ATOM     34  C   UNL A   1     -10.887  -2.959  -0.877  0.00  0.00    +0.021 A 
ATOM     35  C   UNL A   1     -10.900  -6.891   0.793  0.00  0.00    -0.010 C 
ATOM     36  C   UNL A   1      -9.650  -7.301   1.563  0.00  0.00    -0.047 C 
ATOM     37  C   UNL A   1      -8.408  -6.962   0.752  0.00  0.00    -0.049 C 
ATOM     38  C   UNL A   1      -8.318  -5.454   0.523  0.00  0.00    -0.024 C 
ENDBRANCH  23  25
ENDBRANCH  22  23
ENDBRANCH  21  22
ENDBRANCH  20  21
ENDBRANCH   3  20
TORSDOF 11
