@<TRIPOS>MOLECULE
*****
 35 38 0 0 0
SMALL
GASTEIGER

@<TRIPOS>ATOM
      1 C           0.8660   -2.5000    0.0000 C.3     1  UNL1        0.2526
      2 O           0.8660   -1.5000    0.0000 O.3     1  UNL1       -0.4682
      3 C          -0.0000   -1.0000    0.0000 C.ar    1  UNL1        0.1771
      4 C          -0.8660   -1.5000    0.0000 C.ar    1  UNL1        0.0360
      5 C          -1.7321   -1.0000    0.0000 C.ar    1  UNL1       -0.0181
      6 C          -2.5981   -1.5000    0.0000 C.3     1  UNL1        0.0430
      7 C          -3.4641   -1.0000    0.0000 C.3     1  UNL1        0.1398
      8 C          -3.4641    0.0000    0.0000 C.2     1  UNL1        0.1597
      9 C          -2.5981    0.5000    0.0000 C.3     1  UNL1        0.0728
     10 O          -4.3301    0.5000    0.0000 O.2     1  UNL1       -0.2955
     11 C          -4.3301   -1.5000    0.0000 C.2     1  UNL1        0.2483
     12 O          -5.1962   -1.0000    0.0000 O.2     1  UNL1       -0.2729
     13 N          -4.3301   -2.5000    0.0000 N.am    1  UNL1       -0.2050
     14 C          -5.1962   -3.0000    0.0000 C.3     1  UNL1        0.1170
     15 C          -6.0622   -2.5000    0.0000 C.3     1  UNL1        0.0467
     16 C          -6.9282   -3.0000    0.0000 C.3     1  UNL1        0.1140
     17 N          -7.7942   -2.5000    0.0000 N.pl3   1  UNL1       -0.2378
     18 C          -8.6603   -3.0000    0.0000 C.ar    1  UNL1        0.0638
     19 C          -8.6603   -4.0000    0.0000 C.ar    1  UNL1        0.0062
     20 C          -9.5263   -4.5000    0.0000 C.ar    1  UNL1        0.0562
     21 N         -10.3923   -4.0000    0.0000 N.ar    1  UNL1       -0.2499
     22 C         -10.3923   -3.0000    0.0000 C.ar    1  UNL1        0.0821
     23 C         -11.2583   -2.5000    0.0000 C.ar    1  UNL1        0.0191
     24 C         -11.2583   -1.5000    0.0000 C.ar    1  UNL1        0.0015
     25 C         -10.3923   -1.0000    0.0000 C.ar    1  UNL1        0.0001
     26 C          -9.5263   -1.5000    0.0000 C.ar    1  UNL1        0.0028
     27 C          -9.5263   -2.5000    0.0000 C.ar    1  UNL1        0.0322
     28 C          -9.5263   -5.5000    0.0000 C.3     1  UNL1        0.0455
     29 C          -8.6603   -6.0000    0.0000 C.3     1  UNL1        0.0066
     30 C          -7.7942   -5.5000    0.0000 C.3     1  UNL1        0.0052
     31 C          -7.7942   -4.5000    0.0000 C.3     1  UNL1        0.0289
     32 C          -1.7321    0.0000    0.0000 C.ar    1  UNL1       -0.0008
     33 C          -0.8660    0.5000    0.0000 C.ar    1  UNL1        0.0449
     34 C           0.0000    0.0000    0.0000 C.ar    1  UNL1        0.2293
     35 O           0.8660    0.5000    0.0000 O.3     1  UNL1       -0.2833
@<TRIPOS>BOND
     1     1     2    1
     2     2     3    1
     3     3     4   ar
     4     4     5   ar
     5     5     6    1
     6     6     7    1
     7     7     8    1
     8     8     9    1
     9     8    10    2
    10     7    11    1
    11    11    12    2
    12    11    13   am
    13    13    14    1
    14    14    15    1
    15    15    16    1
    16    16    17    1
    17    17    18    1
    18    18    19   ar
    19    19    20   ar
    20    20    21   ar
    21    21    22   ar
    22    22    23   ar
    23    23    24   ar
    24    24    25   ar
    25    25    26   ar
    26    26    27   ar
    27    18    27   ar
    28    22    27   ar
    29    20    28    1
    30    28    29    1
    31    29    30    1
    32    30    31    1
    33    19    31    1
    34     5    32   ar
    35    32    33   ar
    36    33    34   ar
    37     3    34   ar
    38    34    35    1
