@<TRIPOS>MOLECULE
*****
 26 29 0 0 0
SMALL
GASTEIGER

@<TRIPOS>ATOM
      1 O           1.0934    0.6637    0.0000 O.2     1  UNL1       -0.2695
      2 C           1.8366   -0.0055    0.0000 C.2     1  UNL1        0.2554
      3 C           2.8147    0.2024    0.0000 C.ar    1  UNL1        0.0584
      4 C           3.3147    1.0685    0.0000 C.ar    1  UNL1        0.0047
      5 C           4.3147    1.0685    0.0000 C.ar    1  UNL1        0.0001
      6 C           4.8147    0.2024    0.0000 C.ar    1  UNL1        0.0001
      7 C           4.3147   -0.6636    0.0000 C.ar    1  UNL1        0.0047
      8 C           3.3147   -0.6636    0.0000 C.ar    1  UNL1        0.0584
      9 C           2.6456   -1.4067    0.0000 C.2     1  UNL1        0.2554
     10 O           2.8535   -2.3849    0.0000 O.2     1  UNL1       -0.2695
     11 N           1.7321   -1.0000    0.0000 N.am    1  UNL1       -0.2185
     12 C           0.8660   -1.5000    0.0000 C.3     1  UNL1        0.1284
     13 C           0.0000   -1.0000    0.0000 C.ar    1  UNL1        0.0103
     14 C          -0.8660   -1.5000    0.0000 C.ar    1  UNL1        0.0732
     15 C          -1.7321   -1.0000    0.0000 C.ar    1  UNL1        0.2901
     16 N          -1.7321   -0.0000    0.0000 N.ar    1  UNL1       -0.1554
     17 C          -2.5981    0.5000    0.0000 C.3     1  UNL1        0.3524
     18 C          -2.5981    1.5000    0.0000 C.ar    1  UNL1        0.0829
     19 C          -3.4641    2.0000    0.0000 C.ar    1  UNL1        0.0047
     20 C          -3.4641    3.0000    0.0000 C.ar    1  UNL1        0.0000
     21 C          -2.5981    3.5000    0.0000 C.ar    1  UNL1        0.0023
     22 C          -1.7321    3.0000    0.0000 C.ar    1  UNL1        0.0295
     23 C          -1.7321    2.0000    0.0000 C.ar    1  UNL1        0.1427
     24 F          -0.8660    1.5000    0.0000 F       1  UNL1       -0.2043
     25 C          -0.8660    0.5000    0.0000 C.ar    1  UNL1        0.2901
     26 C           0.0000   -0.0000    0.0000 C.ar    1  UNL1        0.0732
@<TRIPOS>UNITY_ATOM_ATTR
16 1
charge 1
@<TRIPOS>BOND
     1     1     2    2
     2     2     3    1
     3     3     4   ar
     4     4     5   ar
     5     5     6   ar
     6     6     7   ar
     7     7     8   ar
     8     3     8   ar
     9     8     9    1
    10     9    10    2
    11     9    11   am
    12     2    11   am
    13    11    12    1
    14    12    13    1
    15    13    14   ar
    16    14    15   ar
    17    15    16   ar
    18    16    17    1
    19    17    18    1
    20    18    19   ar
    21    19    20   ar
    22    20    21   ar
    23    21    22   ar
    24    22    23   ar
    25    18    23   ar
    26    23    24    1
    27    16    25   ar
    28    25    26   ar
    29    13    26   ar
