REMARK  Name = cpd146.pdb
REMARK  4 active torsions:
REMARK  status: ('A' for Active; 'I' for Inactive)
REMARK    1  A    between atoms: N_11  and  C_12
REMARK    2  A    between atoms: C_12  and  C_13
REMARK    3  A    between atoms: N_16  and  C_17
REMARK    4  A    between atoms: C_17  and  C_18
REMARK                            x       y       z     vdW  Elec       q    Type
REMARK                         _______ _______ _______ _____ _____    ______ ____
ROOT
ATOM      1  C   UNL A   1      -0.100  -1.711   0.060  0.00  0.00    -0.027 A 
ATOM      2  C   UNL A   1      -0.952  -1.275   1.076  0.00  0.00    -0.041 A 
ATOM      3  C   UNL A   1      -2.109  -0.575   0.754  0.00  0.00    +0.005 A 
ATOM      4  N   UNL A   1      -2.415  -0.301  -0.536  0.00  0.00    -0.349 N 
ATOM      5  C   UNL A   1      -1.588  -0.685  -1.536  0.00  0.00    +0.005 A 
ATOM      6  C   UNL A   1      -0.423  -1.393  -1.260  0.00  0.00    -0.041 A 
ENDROOT
BRANCH   1   7
ATOM      7  C   UNL A   1       1.165  -2.473   0.388  0.00  0.00    +0.048 C 
BRANCH   7  18
ATOM      8  O   UNL A   1       2.138  -0.740   2.552  0.00  0.00    -0.270 OA
ATOM      9  C   UNL A   1       2.702  -0.862   1.481  0.00  0.00    +0.254 C 
ATOM     10  C   UNL A   1       3.930  -0.169   1.089  0.00  0.00    +0.049 A 
ATOM     11  C   UNL A   1       4.746   0.684   1.805  0.00  0.00    -0.049 A 
ATOM     12  C   UNL A   1       5.871   1.191   1.146  0.00  0.00    -0.061 A 
ATOM     13  C   UNL A   1       6.147   0.841  -0.193  0.00  0.00    -0.061 A 
ATOM     14  C   UNL A   1       5.302  -0.021  -0.899  0.00  0.00    -0.049 A 
ATOM     15  C   UNL A   1       4.200  -0.510  -0.226  0.00  0.00    +0.049 A 
ATOM     16  C   UNL A   1       3.141  -1.414  -0.672  0.00  0.00    +0.254 C 
ATOM     17  O   UNL A   1       3.022  -1.849  -1.802  0.00  0.00    -0.270 OA
ATOM     18  N   UNL A   1       2.322  -1.612   0.404  0.00  0.00    -0.230 N 
ENDBRANCH   7  18
ENDBRANCH   1   7
BRANCH   4  19
ATOM     19  C   UNL A   1      -3.680   0.408  -0.854  0.00  0.00    +0.050 C 
BRANCH  19  20
ATOM     20  C   UNL A   1      -3.585   1.871  -0.538  0.00  0.00    +0.007 A 
ATOM     21  C   UNL A   1      -4.248   2.432   0.562  0.00  0.00    -0.054 A 
ATOM     22  C   UNL A   1      -4.134   3.800   0.826  0.00  0.00    -0.061 A 
ATOM     23  C   UNL A   1      -3.364   4.615  -0.003  0.00  0.00    -0.059 A 
ATOM     24  C   UNL A   1      -2.704   4.067  -1.101  0.00  0.00    -0.026 A 
ATOM     25  C   UNL A   1      -2.821   2.706  -1.357  0.00  0.00    +0.128 A 
ATOM     26  F   UNL A   1      -2.185   2.181  -2.413  0.00  0.00    -0.205 F 
ENDBRANCH  19  20
ENDBRANCH   4  19
TORSDOF 4
