MODEL 1
REMARK VINA RESULT:    -7.996      0.000      0.000
REMARK INTER + INTRA:         -10.793
REMARK INTER:                  -9.866
REMARK INTRA:                  -0.927
REMARK UNBOUND:                -0.927
REMARK  Name = cpd146.pdb
REMARK  4 active torsions:
REMARK  status: ('A' for Active; 'I' for Inactive)
REMARK    1  A    between atoms: N_11  and  C_12
REMARK    2  A    between atoms: C_12  and  C_13
REMARK    3  A    between atoms: N_16  and  C_17
REMARK    4  A    between atoms: C_17  and  C_18
REMARK                            x       y       z     vdW  Elec       q    Type
REMARK                         _______ _______ _______ _____ _____    ______ ____
ROOT
ATOM      1  C   UNL A   1      36.778 -38.983 -28.672  0.00  0.00    -0.027 A 
ATOM      2  C   UNL A   1      37.167 -40.275 -29.029  0.00  0.00    -0.041 A 
ATOM      3  C   UNL A   1      36.223 -41.169 -29.521  0.00  0.00    +0.005 A 
ATOM      4  N   UNL A   1      34.925 -40.803 -29.649  0.00  0.00    -0.349 N 
ATOM      5  C   UNL A   1      34.519 -39.566 -29.280  0.00  0.00    +0.005 A 
ATOM      6  C   UNL A   1      35.431 -38.638 -28.788  0.00  0.00    -0.041 A 
ENDROOT
BRANCH   1   7
ATOM      7  C   UNL A   1      37.789 -37.995 -28.133  0.00  0.00    +0.048 C 
BRANCH   7  18
ATOM      8  O   UNL A   1      40.589 -38.886 -28.104  0.00  0.00    -0.270 OA
ATOM      9  C   UNL A   1      40.106 -38.209 -28.992  0.00  0.00    +0.254 C 
ATOM     10  C   UNL A   1      40.826 -37.720 -30.169  0.00  0.00    +0.049 A 
ATOM     11  C   UNL A   1      42.125 -37.943 -30.582  0.00  0.00    -0.049 A 
ATOM     12  C   UNL A   1      42.527 -37.331 -31.774  0.00  0.00    -0.061 A 
ATOM     13  C   UNL A   1      41.637 -36.521 -32.511  0.00  0.00    -0.061 A 
ATOM     14  C   UNL A   1      40.328 -36.306 -32.068  0.00  0.00    -0.049 A 
ATOM     15  C   UNL A   1      39.954 -36.923 -30.891  0.00  0.00    +0.049 A 
ATOM     16  C   UNL A   1      38.682 -36.900 -30.171  0.00  0.00    +0.254 C 
ATOM     17  O   UNL A   1      37.713 -36.233 -30.483  0.00  0.00    -0.270 OA
ATOM     18  N   UNL A   1      38.834 -37.719 -29.088  0.00  0.00    -0.230 N 
ENDBRANCH   7  18
ENDBRANCH   1   7
BRANCH   4  19
ATOM     19  C   UNL A   1      33.947 -41.763 -30.221  0.00  0.00    +0.050 C 
BRANCH  19  20
ATOM     20  C   UNL A   1      33.423 -41.291 -31.545  0.00  0.00    +0.007 A 
ATOM     21  C   UNL A   1      32.090 -40.891 -31.710  0.00  0.00    -0.054 A 
ATOM     22  C   UNL A   1      31.639 -40.455 -32.959  0.00  0.00    -0.061 A 
ATOM     23  C   UNL A   1      32.509 -40.419 -34.048  0.00  0.00    -0.059 A 
ATOM     24  C   UNL A   1      33.835 -40.817 -33.894  0.00  0.00    -0.026 A 
ATOM     25  C   UNL A   1      34.277 -41.249 -32.649  0.00  0.00    +0.128 A 
ATOM     26  F   UNL A   1      35.553 -41.631 -32.504  0.00  0.00    -0.205 F 
ENDBRANCH  19  20
ENDBRANCH   4  19
TORSDOF 4
ENDMDL
MODEL 2
REMARK VINA RESULT:    -7.856     18.167     20.373
REMARK INTER + INTRA:         -10.620
REMARK INTER:                  -9.797
REMARK INTRA:                  -0.823
REMARK UNBOUND:                -0.927
REMARK  Name = cpd146.pdb
REMARK  4 active torsions:
REMARK  status: ('A' for Active; 'I' for Inactive)
REMARK    1  A    between atoms: N_11  and  C_12
REMARK    2  A    between atoms: C_12  and  C_13
REMARK    3  A    between atoms: N_16  and  C_17
REMARK    4  A    between atoms: C_17  and  C_18
REMARK                            x       y       z     vdW  Elec       q    Type
REMARK                         _______ _______ _______ _____ _____    ______ ____
ROOT
ATOM      1  C   UNL A   1      42.814 -20.794 -38.453  0.00  0.00    -0.027 A 
ATOM      2  C   UNL A   1      43.036 -20.608 -37.088  0.00  0.00    -0.041 A 
ATOM      3  C   UNL A   1      42.264 -21.300 -36.161  0.00  0.00    +0.005 A 
ATOM      4  N   UNL A   1      41.290 -22.147 -36.569  0.00  0.00    -0.349 N 
ATOM      5  C   UNL A   1      41.034 -22.320 -37.886  0.00  0.00    +0.005 A 
ATOM      6  C   UNL A   1      41.786 -21.652 -38.848  0.00  0.00    -0.041 A 
ENDROOT
BRANCH   1   7
ATOM      7  C   UNL A   1      43.641 -20.051 -39.478  0.00  0.00    +0.048 C 
BRANCH   7  18
ATOM      8  O   UNL A   1      43.711 -21.554 -42.001  0.00  0.00    -0.270 OA
ATOM      9  C   UNL A   1      44.640 -21.510 -41.217  0.00  0.00    +0.254 C 
ATOM     10  C   UNL A   1      45.921 -22.198 -41.385  0.00  0.00    +0.049 A 
ATOM     11  C   UNL A   1      46.400 -22.958 -42.433  0.00  0.00    -0.049 A 
ATOM     12  C   UNL A   1      47.688 -23.487 -42.299  0.00  0.00    -0.061 A 
ATOM     13  C   UNL A   1      48.453 -23.249 -41.138  0.00  0.00    -0.061 A 
ATOM     14  C   UNL A   1      47.944 -22.479 -40.087  0.00  0.00    -0.049 A 
ATOM     15  C   UNL A   1      46.672 -21.967 -40.244  0.00  0.00    +0.049 A 
ATOM     16  C   UNL A   1      45.866 -21.139 -39.348  0.00  0.00    +0.254 C 
ATOM     17  O   UNL A   1      46.187 -20.809 -38.222  0.00  0.00    -0.270 OA
ATOM     18  N   UNL A   1      44.701 -20.871 -40.011  0.00  0.00    -0.230 N 
ENDBRANCH   7  18
ENDBRANCH   1   7
BRANCH   4  19
ATOM     19  C   UNL A   1      40.511 -22.907 -35.559  0.00  0.00    +0.050 C 
BRANCH  19  20
ATOM     20  C   UNL A   1      39.684 -21.997 -34.702  0.00  0.00    +0.007 A 
ATOM     21  C   UNL A   1      38.675 -21.189 -35.245  0.00  0.00    -0.054 A 
ATOM     22  C   UNL A   1      37.922 -20.354 -34.414  0.00  0.00    -0.061 A 
ATOM     23  C   UNL A   1      38.172 -20.316 -33.042  0.00  0.00    -0.059 A 
ATOM     24  C   UNL A   1      39.175 -21.112 -32.494  0.00  0.00    -0.026 A 
ATOM     25  C   UNL A   1      39.919 -21.941 -33.326  0.00  0.00    +0.128 A 
ATOM     26  F   UNL A   1      40.883 -22.706 -32.796  0.00  0.00    -0.205 F 
ENDBRANCH  19  20
ENDBRANCH   4  19
TORSDOF 4
ENDMDL
MODEL 3
REMARK VINA RESULT:    -7.728     18.131     20.348
REMARK INTER + INTRA:         -10.462
REMARK INTER:                  -9.559
REMARK INTRA:                  -0.903
REMARK UNBOUND:                -0.927
REMARK  Name = cpd146.pdb
REMARK  4 active torsions:
REMARK  status: ('A' for Active; 'I' for Inactive)
REMARK    1  A    between atoms: N_11  and  C_12
REMARK    2  A    between atoms: C_12  and  C_13
REMARK    3  A    between atoms: N_16  and  C_17
REMARK    4  A    between atoms: C_17  and  C_18
REMARK                            x       y       z     vdW  Elec       q    Type
REMARK                         _______ _______ _______ _____ _____    ______ ____
ROOT
ATOM      1  C   UNL A   1      42.567 -20.689 -38.511  0.00  0.00    -0.027 A 
ATOM      2  C   UNL A   1      42.788 -20.593 -37.136  0.00  0.00    -0.041 A 
ATOM      3  C   UNL A   1      42.011 -21.340 -36.258  0.00  0.00    +0.005 A 
ATOM      4  N   UNL A   1      41.032 -22.152 -36.721  0.00  0.00    -0.349 N 
ATOM      5  C   UNL A   1      40.777 -22.237 -38.047  0.00  0.00    +0.005 A 
ATOM      6  C   UNL A   1      41.534 -21.512 -38.962  0.00  0.00    -0.041 A 
ENDROOT
BRANCH   1   7
ATOM      7  C   UNL A   1      43.400 -19.884 -39.484  0.00  0.00    +0.048 C 
BRANCH   7  18
ATOM      8  O   UNL A   1      46.064 -20.437 -38.376  0.00  0.00    -0.270 OA
ATOM      9  C   UNL A   1      45.669 -20.885 -39.435  0.00  0.00    +0.254 C 
ATOM     10  C   UNL A   1      46.443 -21.747 -40.330  0.00  0.00    +0.049 A 
ATOM     11  C   UNL A   1      47.702 -22.294 -40.180  0.00  0.00    -0.049 A 
ATOM     12  C   UNL A   1      48.176 -23.094 -41.225  0.00  0.00    -0.061 A 
ATOM     13  C   UNL A   1      47.393 -23.322 -42.377  0.00  0.00    -0.061 A 
ATOM     14  C   UNL A   1      46.123 -22.752 -42.507  0.00  0.00    -0.049 A 
ATOM     15  C   UNL A   1      45.677 -21.969 -41.462  0.00  0.00    +0.049 A 
ATOM     16  C   UNL A   1      44.419 -21.243 -41.291  0.00  0.00    +0.254 C 
ATOM     17  O   UNL A   1      43.542 -21.155 -42.129  0.00  0.00    -0.270 OA
ATOM     18  N   UNL A   1      44.469 -20.668 -40.052  0.00  0.00    -0.230 N 
ENDBRANCH   7  18
ENDBRANCH   1   7
BRANCH   4  19
ATOM     19  C   UNL A   1      40.248 -22.973 -35.764  0.00  0.00    +0.050 C 
BRANCH  19  20
ATOM     20  C   UNL A   1      39.539 -22.117 -34.757  0.00  0.00    +0.007 A 
ATOM     21  C   UNL A   1      38.478 -21.277 -35.121  0.00  0.00    -0.054 A 
ATOM     22  C   UNL A   1      37.840 -20.494 -34.154  0.00  0.00    -0.061 A 
ATOM     23  C   UNL A   1      38.256 -20.542 -32.824  0.00  0.00    -0.059 A 
ATOM     24  C   UNL A   1      39.312 -21.371 -32.453  0.00  0.00    -0.026 A 
ATOM     25  C   UNL A   1      39.942 -22.147 -33.419  0.00  0.00    +0.128 A 
ATOM     26  F   UNL A   1      40.957 -22.944 -33.061  0.00  0.00    -0.205 F 
ENDBRANCH  19  20
ENDBRANCH   4  19
TORSDOF 4
ENDMDL
MODEL 4
REMARK VINA RESULT:    -7.626      3.491      7.829
REMARK INTER + INTRA:         -10.337
REMARK INTER:                 -10.159
REMARK INTRA:                  -0.178
REMARK UNBOUND:                -0.927
REMARK  Name = cpd146.pdb
REMARK  4 active torsions:
REMARK  status: ('A' for Active; 'I' for Inactive)
REMARK    1  A    between atoms: N_11  and  C_12
REMARK    2  A    between atoms: C_12  and  C_13
REMARK    3  A    between atoms: N_16  and  C_17
REMARK    4  A    between atoms: C_17  and  C_18
REMARK                            x       y       z     vdW  Elec       q    Type
REMARK                         _______ _______ _______ _____ _____    ______ ____
ROOT
ATOM      1  C   UNL A   1      35.706 -37.258 -30.245  0.00  0.00    -0.027 A 
ATOM      2  C   UNL A   1      35.682 -36.154 -31.099  0.00  0.00    -0.041 A 
ATOM      3  C   UNL A   1      36.872 -35.530 -31.454  0.00  0.00    +0.005 A 
ATOM      4  N   UNL A   1      38.057 -35.974 -30.971  0.00  0.00    -0.349 N 
ATOM      5  C   UNL A   1      38.102 -37.022 -30.117  0.00  0.00    +0.005 A 
ATOM      6  C   UNL A   1      36.936 -37.680 -29.740  0.00  0.00    -0.041 A 
ENDROOT
BRANCH   1   7
ATOM      7  C   UNL A   1      34.422 -37.951 -29.845  0.00  0.00    +0.048 C 
BRANCH   7  18
ATOM      8  O   UNL A   1      35.076 -39.403 -27.376  0.00  0.00    -0.270 OA
ATOM      9  C   UNL A   1      34.427 -38.374 -27.401  0.00  0.00    +0.254 C 
ATOM     10  C   UNL A   1      33.860 -37.704 -26.230  0.00  0.00    +0.049 A 
ATOM     11  C   UNL A   1      33.966 -38.003 -24.887  0.00  0.00    -0.049 A 
ATOM     12  C   UNL A   1      33.302 -37.157 -23.992  0.00  0.00    -0.061 A 
ATOM     13  C   UNL A   1      32.558 -36.051 -24.455  0.00  0.00    -0.061 A 
ATOM     14  C   UNL A   1      32.460 -35.772 -25.822  0.00  0.00    -0.049 A 
ATOM     15  C   UNL A   1      33.126 -36.620 -26.684  0.00  0.00    +0.049 A 
ATOM     16  C   UNL A   1      33.222 -36.605 -28.143  0.00  0.00    +0.254 C 
ATOM     17  O   UNL A   1      32.633 -35.832 -28.875  0.00  0.00    -0.270 OA
ATOM     18  N   UNL A   1      34.044 -37.641 -28.488  0.00  0.00    -0.230 N 
ENDBRANCH   7  18
ENDBRANCH   1   7
BRANCH   4  19
ATOM     19  C   UNL A   1      39.316 -35.317 -31.403  0.00  0.00    +0.050 C 
BRANCH  19  20
ATOM     20  C   UNL A   1      40.450 -36.296 -31.477  0.00  0.00    +0.007 A 
ATOM     21  C   UNL A   1      40.970 -36.910 -30.329  0.00  0.00    -0.054 A 
ATOM     22  C   UNL A   1      42.026 -37.819 -30.438  0.00  0.00    -0.061 A 
ATOM     23  C   UNL A   1      42.570 -38.119 -31.686  0.00  0.00    -0.059 A 
ATOM     24  C   UNL A   1      42.062 -37.512 -32.833  0.00  0.00    -0.026 A 
ATOM     25  C   UNL A   1      41.011 -36.610 -32.717  0.00  0.00    +0.128 A 
ATOM     26  F   UNL A   1      40.524 -36.027 -33.821  0.00  0.00    -0.205 F 
ENDBRANCH  19  20
ENDBRANCH   4  19
TORSDOF 4
ENDMDL
MODEL 5
REMARK VINA RESULT:    -7.618     18.617     21.245
REMARK INTER + INTRA:         -10.326
REMARK INTER:                  -9.484
REMARK INTRA:                  -0.842
REMARK UNBOUND:                -0.927
REMARK  Name = cpd146.pdb
REMARK  4 active torsions:
REMARK  status: ('A' for Active; 'I' for Inactive)
REMARK    1  A    between atoms: N_11  and  C_12
REMARK    2  A    between atoms: C_12  and  C_13
REMARK    3  A    between atoms: N_16  and  C_17
REMARK    4  A    between atoms: C_17  and  C_18
REMARK                            x       y       z     vdW  Elec       q    Type
REMARK                         _______ _______ _______ _____ _____    ______ ____
ROOT
ATOM      1  C   UNL A   1      40.980 -21.193 -39.290  0.00  0.00    -0.027 A 
ATOM      2  C   UNL A   1      41.418 -21.965 -40.367  0.00  0.00    -0.041 A 
ATOM      3  C   UNL A   1      42.570 -21.601 -41.055  0.00  0.00    +0.005 A 
ATOM      4  N   UNL A   1      43.268 -20.497 -40.698  0.00  0.00    -0.349 N 
ATOM      5  C   UNL A   1      42.845 -19.715 -39.678  0.00  0.00    +0.005 A 
ATOM      6  C   UNL A   1      41.702 -20.045 -38.959  0.00  0.00    -0.041 A 
ENDROOT
BRANCH   1   7
ATOM      7  C   UNL A   1      39.729 -21.570 -38.528  0.00  0.00    +0.048 C 
BRANCH   7  18
ATOM      8  O   UNL A   1      41.126 -23.192 -36.516  0.00  0.00    -0.270 OA
ATOM      9  C   UNL A   1      40.567 -22.141 -36.265  0.00  0.00    +0.254 C 
ATOM     10  C   UNL A   1      40.483 -21.524 -34.940  0.00  0.00    +0.049 A 
ATOM     11  C   UNL A   1      41.037 -21.907 -33.735  0.00  0.00    -0.049 A 
ATOM     12  C   UNL A   1      40.777 -21.094 -32.627  0.00  0.00    -0.061 A 
ATOM     13  C   UNL A   1      39.979 -19.936 -32.748  0.00  0.00    -0.061 A 
ATOM     14  C   UNL A   1      39.424 -19.572 -33.979  0.00  0.00    -0.049 A 
ATOM     15  C   UNL A   1      39.698 -20.389 -35.058  0.00  0.00    +0.049 A 
ATOM     16  C   UNL A   1      39.277 -20.288 -36.454  0.00  0.00    +0.254 C 
ATOM     17  O   UNL A   1      38.512 -19.451 -36.896  0.00  0.00    -0.270 OA
ATOM     18  N   UNL A   1      39.868 -21.330 -37.113  0.00  0.00    -0.230 N 
ENDBRANCH   7  18
ENDBRANCH   1   7
BRANCH   4  19
ATOM     19  C   UNL A   1      44.519 -20.157 -41.421  0.00  0.00    +0.050 C 
BRANCH  19  20
ATOM     20  C   UNL A   1      45.566 -21.215 -41.236  0.00  0.00    +0.007 A 
ATOM     21  C   UNL A   1      46.302 -21.324 -40.049  0.00  0.00    -0.054 A 
ATOM     22  C   UNL A   1      47.269 -22.325 -39.913  0.00  0.00    -0.061 A 
ATOM     23  C   UNL A   1      47.508 -23.218 -40.956  0.00  0.00    -0.059 A 
ATOM     24  C   UNL A   1      46.784 -23.116 -42.142  0.00  0.00    -0.026 A 
ATOM     25  C   UNL A   1      45.824 -22.119 -42.270  0.00  0.00    +0.128 A 
ATOM     26  F   UNL A   1      45.128 -22.022 -43.411  0.00  0.00    -0.205 F 
ENDBRANCH  19  20
ENDBRANCH   4  19
TORSDOF 4
ENDMDL
MODEL 6
REMARK VINA RESULT:    -7.355      2.413      4.006
REMARK INTER + INTRA:         -10.003
REMARK INTER:                  -9.202
REMARK INTRA:                  -0.801
REMARK UNBOUND:                -0.927
REMARK  Name = cpd146.pdb
REMARK  4 active torsions:
REMARK  status: ('A' for Active; 'I' for Inactive)
REMARK    1  A    between atoms: N_11  and  C_12
REMARK    2  A    between atoms: C_12  and  C_13
REMARK    3  A    between atoms: N_16  and  C_17
REMARK    4  A    between atoms: C_17  and  C_18
REMARK                            x       y       z     vdW  Elec       q    Type
REMARK                         _______ _______ _______ _____ _____    ______ ____
ROOT
ATOM      1  C   UNL A   1      36.461 -39.014 -28.346  0.00  0.00    -0.027 A 
ATOM      2  C   UNL A   1      36.904 -40.261 -28.790  0.00  0.00    -0.041 A 
ATOM      3  C   UNL A   1      35.980 -41.254 -29.095  0.00  0.00    +0.005 A 
ATOM      4  N   UNL A   1      34.652 -41.029 -28.954  0.00  0.00    -0.349 N 
ATOM      5  C   UNL A   1      34.200 -39.840 -28.494  0.00  0.00    +0.005 A 
ATOM      6  C   UNL A   1      35.089 -38.816 -28.184  0.00  0.00    -0.041 A 
ENDROOT
BRANCH   1   7
ATOM      7  C   UNL A   1      37.449 -37.920 -28.008  0.00  0.00    +0.048 C 
BRANCH   7  18
ATOM      8  O   UNL A   1      36.684 -36.422 -30.417  0.00  0.00    -0.270 OA
ATOM      9  C   UNL A   1      37.810 -36.834 -30.209  0.00  0.00    +0.254 C 
ATOM     10  C   UNL A   1      38.951 -36.669 -31.111  0.00  0.00    +0.049 A 
ATOM     11  C   UNL A   1      39.055 -35.993 -32.310  0.00  0.00    -0.049 A 
ATOM     12  C   UNL A   1      40.301 -36.013 -32.945  0.00  0.00    -0.061 A 
ATOM     13  C   UNL A   1      41.395 -36.702 -32.377  0.00  0.00    -0.061 A 
ATOM     14  C   UNL A   1      41.262 -37.384 -31.164  0.00  0.00    -0.049 A 
ATOM     15  C   UNL A   1      40.023 -37.347 -30.555  0.00  0.00    +0.049 A 
ATOM     16  C   UNL A   1      39.563 -37.948 -29.304  0.00  0.00    +0.254 C 
ATOM     17  O   UNL A   1      40.227 -38.680 -28.594  0.00  0.00    -0.270 OA
ATOM     18  N   UNL A   1      38.262 -37.561 -29.144  0.00  0.00    -0.230 N 
ENDBRANCH   7  18
ENDBRANCH   1   7
BRANCH   4  19
ATOM     19  C   UNL A   1      33.686 -42.092 -29.330  0.00  0.00    +0.050 C 
BRANCH  19  20
ATOM     20  C   UNL A   1      33.241 -42.879 -28.134  0.00  0.00    +0.007 A 
ATOM     21  C   UNL A   1      34.105 -43.759 -27.467  0.00  0.00    -0.054 A 
ATOM     22  C   UNL A   1      33.655 -44.474 -26.353  0.00  0.00    -0.061 A 
ATOM     23  C   UNL A   1      32.345 -44.320 -25.900  0.00  0.00    -0.059 A 
ATOM     24  C   UNL A   1      31.478 -43.450 -26.559  0.00  0.00    -0.026 A 
ATOM     25  C   UNL A   1      31.932 -42.742 -27.665  0.00  0.00    +0.128 A 
ATOM     26  F   UNL A   1      31.097 -41.906 -28.296  0.00  0.00    -0.205 F 
ENDBRANCH  19  20
ENDBRANCH   4  19
TORSDOF 4
ENDMDL
MODEL 7
REMARK VINA RESULT:    -7.296      4.428      5.314
REMARK INTER + INTRA:          -9.929
REMARK INTER:                  -9.292
REMARK INTRA:                  -0.637
REMARK UNBOUND:                -0.927
REMARK  Name = cpd146.pdb
REMARK  4 active torsions:
REMARK  status: ('A' for Active; 'I' for Inactive)
REMARK    1  A    between atoms: N_11  and  C_12
REMARK    2  A    between atoms: C_12  and  C_13
REMARK    3  A    between atoms: N_16  and  C_17
REMARK    4  A    between atoms: C_17  and  C_18
REMARK                            x       y       z     vdW  Elec       q    Type
REMARK                         _______ _______ _______ _____ _____    ______ ____
ROOT
ATOM      1  C   UNL A   1      35.344 -37.466 -29.479  0.00  0.00    -0.027 A 
ATOM      2  C   UNL A   1      34.239 -37.209 -30.293  0.00  0.00    -0.041 A 
ATOM      3  C   UNL A   1      33.244 -36.343 -29.853  0.00  0.00    +0.005 A 
ATOM      4  N   UNL A   1      33.329 -35.752 -28.638  0.00  0.00    -0.349 N 
ATOM      5  C   UNL A   1      34.375 -36.010 -27.819  0.00  0.00    +0.005 A 
ATOM      6  C   UNL A   1      35.396 -36.866 -28.220  0.00  0.00    -0.041 A 
ENDROOT
BRANCH   1   7
ATOM      7  C   UNL A   1      36.437 -38.406 -29.937  0.00  0.00    +0.048 C 
BRANCH   7  18
ATOM      8  O   UNL A   1      39.042 -38.662 -28.603  0.00  0.00    -0.270 OA
ATOM      9  C   UNL A   1      38.838 -37.921 -29.545  0.00  0.00    +0.254 C 
ATOM     10  C   UNL A   1      39.832 -37.036 -30.155  0.00  0.00    +0.049 A 
ATOM     11  C   UNL A   1      41.177 -36.878 -29.887  0.00  0.00    -0.049 A 
ATOM     12  C   UNL A   1      41.873 -35.941 -30.657  0.00  0.00    -0.061 A 
ATOM     13  C   UNL A   1      41.218 -35.194 -31.659  0.00  0.00    -0.061 A 
ATOM     14  C   UNL A   1      39.854 -35.369 -31.909  0.00  0.00    -0.049 A 
ATOM     15  C   UNL A   1      39.189 -36.301 -31.137  0.00  0.00    +0.049 A 
ATOM     16  C   UNL A   1      37.786 -36.713 -31.148  0.00  0.00    +0.254 C 
ATOM     17  O   UNL A   1      36.915 -36.215 -31.836  0.00  0.00    -0.270 OA
ATOM     18  N   UNL A   1      37.667 -37.705 -30.215  0.00  0.00    -0.230 N 
ENDBRANCH   7  18
ENDBRANCH   1   7
BRANCH   4  19
ATOM     19  C   UNL A   1      32.276 -34.796 -28.214  0.00  0.00    +0.050 C 
BRANCH  19  20
ATOM     20  C   UNL A   1      32.077 -33.710 -29.229  0.00  0.00    +0.007 A 
ATOM     21  C   UNL A   1      30.883 -33.588 -29.953  0.00  0.00    -0.054 A 
ATOM     22  C   UNL A   1      30.734 -32.562 -30.890  0.00  0.00    -0.061 A 
ATOM     23  C   UNL A   1      31.769 -31.655 -31.112  0.00  0.00    -0.059 A 
ATOM     24  C   UNL A   1      32.961 -31.770 -30.399  0.00  0.00    -0.026 A 
ATOM     25  C   UNL A   1      33.102 -32.793 -29.468  0.00  0.00    +0.128 A 
ATOM     26  F   UNL A   1      34.249 -32.901 -28.783  0.00  0.00    -0.205 F 
ENDBRANCH  19  20
ENDBRANCH   4  19
TORSDOF 4
ENDMDL
MODEL 8
REMARK VINA RESULT:    -7.252      1.692      2.145
REMARK INTER + INTRA:          -9.875
REMARK INTER:                  -8.990
REMARK INTRA:                  -0.885
REMARK UNBOUND:                -0.927
REMARK  Name = cpd146.pdb
REMARK  4 active torsions:
REMARK  status: ('A' for Active; 'I' for Inactive)
REMARK    1  A    between atoms: N_11  and  C_12
REMARK    2  A    between atoms: C_12  and  C_13
REMARK    3  A    between atoms: N_16  and  C_17
REMARK    4  A    between atoms: C_17  and  C_18
REMARK                            x       y       z     vdW  Elec       q    Type
REMARK                         _______ _______ _______ _____ _____    ______ ____
ROOT
ATOM      1  C   UNL A   1      36.127 -37.635 -30.237  0.00  0.00    -0.027 A 
ATOM      2  C   UNL A   1      36.248 -39.015 -30.406  0.00  0.00    -0.041 A 
ATOM      3  C   UNL A   1      35.296 -39.706 -31.147  0.00  0.00    +0.005 A 
ATOM      4  N   UNL A   1      34.244 -39.057 -31.698  0.00  0.00    -0.349 N 
ATOM      5  C   UNL A   1      34.087 -37.725 -31.520  0.00  0.00    +0.005 A 
ATOM      6  C   UNL A   1      35.019 -36.993 -30.792  0.00  0.00    -0.041 A 
ENDROOT
BRANCH   1   7
ATOM      7  C   UNL A   1      37.150 -36.864 -29.433  0.00  0.00    +0.048 C 
BRANCH   7  18
ATOM      8  O   UNL A   1      39.408 -38.367 -28.305  0.00  0.00    -0.270 OA
ATOM      9  C   UNL A   1      39.457 -37.774 -29.366  0.00  0.00    +0.254 C 
ATOM     10  C   UNL A   1      40.629 -37.698 -30.238  0.00  0.00    +0.049 A 
ATOM     11  C   UNL A   1      41.870 -38.293 -30.128  0.00  0.00    -0.049 A 
ATOM     12  C   UNL A   1      42.796 -38.028 -31.142  0.00  0.00    -0.061 A 
ATOM     13  C   UNL A   1      42.466 -37.184 -32.223  0.00  0.00    -0.061 A 
ATOM     14  C   UNL A   1      41.204 -36.588 -32.310  0.00  0.00    -0.049 A 
ATOM     15  C   UNL A   1      40.307 -36.867 -31.299  0.00  0.00    +0.049 A 
ATOM     16  C   UNL A   1      38.932 -36.411 -31.098  0.00  0.00    +0.254 C 
ATOM     17  O   UNL A   1      38.352 -35.606 -31.801  0.00  0.00    -0.270 OA
ATOM     18  N   UNL A   1      38.482 -37.026 -29.963  0.00  0.00    -0.230 N 
ENDBRANCH   7  18
ENDBRANCH   1   7
BRANCH   4  19
ATOM     19  C   UNL A   1      33.267 -39.812 -32.522  0.00  0.00    +0.050 C 
BRANCH  19  20
ATOM     20  C   UNL A   1      32.635 -40.927 -31.743  0.00  0.00    +0.007 A 
ATOM     21  C   UNL A   1      31.806 -40.678 -30.640  0.00  0.00    -0.054 A 
ATOM     22  C   UNL A   1      31.233 -41.743 -29.939  0.00  0.00    -0.061 A 
ATOM     23  C   UNL A   1      31.484 -43.058 -30.329  0.00  0.00    -0.059 A 
ATOM     24  C   UNL A   1      32.309 -43.316 -31.422  0.00  0.00    -0.026 A 
ATOM     25  C   UNL A   1      32.875 -42.252 -32.115  0.00  0.00    +0.128 A 
ATOM     26  F   UNL A   1      33.667 -42.502 -33.166  0.00  0.00    -0.205 F 
ENDBRANCH  19  20
ENDBRANCH   4  19
TORSDOF 4
ENDMDL
MODEL 9
REMARK VINA RESULT:    -7.162     18.690     21.478
REMARK INTER + INTRA:          -9.764
REMARK INTER:                  -8.932
REMARK INTRA:                  -0.831
REMARK UNBOUND:                -0.927
REMARK  Name = cpd146.pdb
REMARK  4 active torsions:
REMARK  status: ('A' for Active; 'I' for Inactive)
REMARK    1  A    between atoms: N_11  and  C_12
REMARK    2  A    between atoms: C_12  and  C_13
REMARK    3  A    between atoms: N_16  and  C_17
REMARK    4  A    between atoms: C_17  and  C_18
REMARK                            x       y       z     vdW  Elec       q    Type
REMARK                         _______ _______ _______ _____ _____    ______ ____
ROOT
ATOM      1  C   UNL A   1      41.272 -20.889 -39.373  0.00  0.00    -0.027 A 
ATOM      2  C   UNL A   1      41.758 -21.745 -40.362  0.00  0.00    -0.041 A 
ATOM      3  C   UNL A   1      42.936 -21.429 -41.029  0.00  0.00    +0.005 A 
ATOM      4  N   UNL A   1      43.614 -20.294 -40.738  0.00  0.00    -0.349 N 
ATOM      5  C   UNL A   1      43.144 -19.433 -39.806  0.00  0.00    +0.005 A 
ATOM      6  C   UNL A   1      41.973 -19.711 -39.109  0.00  0.00    -0.041 A 
ENDROOT
BRANCH   1   7
ATOM      7  C   UNL A   1      39.991 -21.211 -38.635  0.00  0.00    +0.048 C 
BRANCH   7  18
ATOM      8  O   UNL A   1      41.036 -23.129 -36.669  0.00  0.00    -0.270 OA
ATOM      9  C   UNL A   1      40.664 -22.006 -36.384  0.00  0.00    +0.254 C 
ATOM     10  C   UNL A   1      40.660 -21.434 -35.036  0.00  0.00    +0.049 A 
ATOM     11  C   UNL A   1      41.111 -21.955 -33.840  0.00  0.00    -0.049 A 
ATOM     12  C   UNL A   1      40.972 -21.151 -32.703  0.00  0.00    -0.061 A 
ATOM     13  C   UNL A   1      40.392 -19.867 -32.789  0.00  0.00    -0.061 A 
ATOM     14  C   UNL A   1      39.938 -19.364 -34.012  0.00  0.00    -0.049 A 
ATOM     15  C   UNL A   1      40.089 -20.175 -35.119  0.00  0.00    +0.049 A 
ATOM     16  C   UNL A   1      39.724 -19.949 -36.517  0.00  0.00    +0.254 C 
ATOM     17  O   UNL A   1      39.129 -18.974 -36.936  0.00  0.00    -0.270 OA
ATOM     18  N   UNL A   1      40.138 -21.053 -37.209  0.00  0.00    -0.230 N 
ENDBRANCH   7  18
ENDBRANCH   1   7
BRANCH   4  19
ATOM     19  C   UNL A   1      44.893 -20.005 -41.434  0.00  0.00    +0.050 C 
BRANCH  19  20
ATOM     20  C   UNL A   1      45.850 -21.154 -41.324  0.00  0.00    +0.007 A 
ATOM     21  C   UNL A   1      45.987 -22.101 -42.349  0.00  0.00    -0.054 A 
ATOM     22  C   UNL A   1      46.892 -23.157 -42.211  0.00  0.00    -0.061 A 
ATOM     23  C   UNL A   1      47.661 -23.278 -41.054  0.00  0.00    -0.059 A 
ATOM     24  C   UNL A   1      47.530 -22.344 -40.028  0.00  0.00    -0.026 A 
ATOM     25  C   UNL A   1      46.629 -21.296 -40.173  0.00  0.00    +0.128 A 
ATOM     26  F   UNL A   1      46.505 -20.399 -39.185  0.00  0.00    -0.205 F 
ENDBRANCH  19  20
ENDBRANCH   4  19
TORSDOF 4
ENDMDL
MODEL 10
REMARK VINA RESULT:    -7.147      6.161      7.215
REMARK INTER + INTRA:          -9.745
REMARK INTER:                  -8.954
REMARK INTRA:                  -0.791
REMARK UNBOUND:                -0.927
REMARK  Name = cpd146.pdb
REMARK  4 active torsions:
REMARK  status: ('A' for Active; 'I' for Inactive)
REMARK    1  A    between atoms: N_11  and  C_12
REMARK    2  A    between atoms: C_12  and  C_13
REMARK    3  A    between atoms: N_16  and  C_17
REMARK    4  A    between atoms: C_17  and  C_18
REMARK                            x       y       z     vdW  Elec       q    Type
REMARK                         _______ _______ _______ _____ _____    ______ ____
ROOT
ATOM      1  C   UNL A   1      34.316 -34.974 -31.055  0.00  0.00    -0.027 A 
ATOM      2  C   UNL A   1      34.801 -33.758 -30.568  0.00  0.00    -0.041 A 
ATOM      3  C   UNL A   1      33.979 -32.947 -29.794  0.00  0.00    +0.005 A 
ATOM      4  N   UNL A   1      32.707 -33.318 -29.514  0.00  0.00    -0.349 N 
ATOM      5  C   UNL A   1      32.205 -34.476 -30.001  0.00  0.00    +0.005 A 
ATOM      6  C   UNL A   1      32.993 -35.321 -30.775  0.00  0.00    -0.041 A 
ENDROOT
BRANCH   1   7
ATOM      7  C   UNL A   1      35.192 -35.871 -31.900  0.00  0.00    +0.048 C 
BRANCH   7  18
ATOM      8  O   UNL A   1      35.153 -37.772 -29.661  0.00  0.00    -0.270 OA
ATOM      9  C   UNL A   1      36.174 -37.309 -30.133  0.00  0.00    +0.254 C 
ATOM     10  C   UNL A   1      37.530 -37.602 -29.668  0.00  0.00    +0.049 A 
ATOM     11  C   UNL A   1      37.975 -38.471 -28.691  0.00  0.00    -0.049 A 
ATOM     12  C   UNL A   1      39.356 -38.533 -28.476  0.00  0.00    -0.061 A 
ATOM     13  C   UNL A   1      40.245 -37.736 -29.229  0.00  0.00    -0.061 A 
ATOM     14  C   UNL A   1      39.769 -36.860 -30.209  0.00  0.00    -0.049 A 
ATOM     15  C   UNL A   1      38.403 -36.818 -30.404  0.00  0.00    +0.049 A 
ATOM     16  C   UNL A   1      37.602 -36.022 -31.333  0.00  0.00    +0.254 C 
ATOM     17  O   UNL A   1      38.040 -35.167 -32.079  0.00  0.00    -0.270 OA
ATOM     18  N   UNL A   1      36.302 -36.402 -31.147  0.00  0.00    -0.230 N 
ENDBRANCH   7  18
ENDBRANCH   1   7
BRANCH   4  19
ATOM     19  C   UNL A   1      31.867 -32.454 -28.647  0.00  0.00    +0.050 C 
BRANCH  19  20
ATOM     20  C   UNL A   1      30.789 -31.769 -29.433  0.00  0.00    +0.007 A 
ATOM     21  C   UNL A   1      29.467 -32.235 -29.433  0.00  0.00    -0.054 A 
ATOM     22  C   UNL A   1      28.489 -31.568 -30.177  0.00  0.00    -0.061 A 
ATOM     23  C   UNL A   1      28.821 -30.438 -30.923  0.00  0.00    -0.059 A 
ATOM     24  C   UNL A   1      30.133 -29.969 -30.932  0.00  0.00    -0.026 A 
ATOM     25  C   UNL A   1      31.101 -30.637 -30.190  0.00  0.00    +0.128 A 
ATOM     26  F   UNL A   1      32.362 -30.184 -30.199  0.00  0.00    -0.205 F 
ENDBRANCH  19  20
ENDBRANCH   4  19
TORSDOF 4
ENDMDL
MODEL 11
REMARK VINA RESULT:    -7.017     18.537     21.136
REMARK INTER + INTRA:          -9.586
REMARK INTER:                  -8.716
REMARK INTRA:                  -0.870
REMARK UNBOUND:                -0.927
REMARK  Name = cpd146.pdb
REMARK  4 active torsions:
REMARK  status: ('A' for Active; 'I' for Inactive)
REMARK    1  A    between atoms: N_11  and  C_12
REMARK    2  A    between atoms: C_12  and  C_13
REMARK    3  A    between atoms: N_16  and  C_17
REMARK    4  A    between atoms: C_17  and  C_18
REMARK                            x       y       z     vdW  Elec       q    Type
REMARK                         _______ _______ _______ _____ _____    ______ ____
ROOT
ATOM      1  C   UNL A   1      41.693 -21.965 -37.398  0.00  0.00    -0.027 A 
ATOM      2  C   UNL A   1      41.480 -22.116 -38.769  0.00  0.00    -0.041 A 
ATOM      3  C   UNL A   1      42.325 -21.483 -39.673  0.00  0.00    +0.005 A 
ATOM      4  N   UNL A   1      43.349 -20.711 -39.238  0.00  0.00    -0.349 N 
ATOM      5  C   UNL A   1      43.556 -20.524 -37.914  0.00  0.00    +0.005 A 
ATOM      6  C   UNL A   1      42.738 -21.143 -36.974  0.00  0.00    -0.041 A 
ENDROOT
BRANCH   1   7
ATOM      7  C   UNL A   1      40.784 -22.644 -36.397  0.00  0.00    +0.048 C 
BRANCH   7  18
ATOM      8  O   UNL A   1      38.468 -20.993 -37.136  0.00  0.00    -0.270 OA
ATOM      9  C   UNL A   1      38.974 -20.988 -36.029  0.00  0.00    +0.254 C 
ATOM     10  C   UNL A   1      38.534 -20.164 -34.903  0.00  0.00    +0.049 A 
ATOM     11  C   UNL A   1      37.466 -19.297 -34.790  0.00  0.00    -0.049 A 
ATOM     12  C   UNL A   1      37.300 -18.647 -33.562  0.00  0.00    -0.061 A 
ATOM     13  C   UNL A   1      38.195 -18.874 -32.494  0.00  0.00    -0.061 A 
ATOM     14  C   UNL A   1      39.273 -19.754 -32.635  0.00  0.00    -0.049 A 
ATOM     15  C   UNL A   1      39.413 -20.384 -33.856  0.00  0.00    +0.049 A 
ATOM     16  C   UNL A   1      40.416 -21.343 -34.318  0.00  0.00    +0.254 C 
ATOM     17  O   UNL A   1      41.386 -21.704 -33.679  0.00  0.00    -0.270 OA
ATOM     18  N   UNL A   1      40.063 -21.688 -35.592  0.00  0.00    -0.230 N 
ENDBRANCH   7  18
ENDBRANCH   1   7
BRANCH   4  19
ATOM     19  C   UNL A   1      44.264 -20.085 -40.225  0.00  0.00    +0.050 C 
BRANCH  19  20
ATOM     20  C   UNL A   1      45.057 -21.115 -40.972  0.00  0.00    +0.007 A 
ATOM     21  C   UNL A   1      46.088 -21.839 -40.358  0.00  0.00    -0.054 A 
ATOM     22  C   UNL A   1      46.804 -22.794 -41.087  0.00  0.00    -0.061 A 
ATOM     23  C   UNL A   1      46.500 -23.030 -42.427  0.00  0.00    -0.059 A 
ATOM     24  C   UNL A   1      45.479 -22.313 -43.047  0.00  0.00    -0.026 A 
ATOM     25  C   UNL A   1      44.771 -21.366 -42.316  0.00  0.00    +0.128 A 
ATOM     26  F   UNL A   1      43.789 -20.677 -42.914  0.00  0.00    -0.205 F 
ENDBRANCH  19  20
ENDBRANCH   4  19
TORSDOF 4
ENDMDL
MODEL 12
REMARK VINA RESULT:    -6.992     18.461     20.599
REMARK INTER + INTRA:          -9.554
REMARK INTER:                  -8.699
REMARK INTRA:                  -0.855
REMARK UNBOUND:                -0.927
REMARK  Name = cpd146.pdb
REMARK  4 active torsions:
REMARK  status: ('A' for Active; 'I' for Inactive)
REMARK    1  A    between atoms: N_11  and  C_12
REMARK    2  A    between atoms: C_12  and  C_13
REMARK    3  A    between atoms: N_16  and  C_17
REMARK    4  A    between atoms: C_17  and  C_18
REMARK                            x       y       z     vdW  Elec       q    Type
REMARK                         _______ _______ _______ _____ _____    ______ ____
ROOT
ATOM      1  C   UNL A   1      43.164 -19.931 -37.078  0.00  0.00    -0.027 A 
ATOM      2  C   UNL A   1      43.526 -19.826 -35.734  0.00  0.00    -0.041 A 
ATOM      3  C   UNL A   1      42.782 -20.490 -34.765  0.00  0.00    +0.005 A 
ATOM      4  N   UNL A   1      41.703 -21.231 -35.109  0.00  0.00    -0.349 N 
ATOM      5  C   UNL A   1      41.314 -21.322 -36.402  0.00  0.00    +0.005 A 
ATOM      6  C   UNL A   1      42.032 -20.679 -37.405  0.00  0.00    -0.041 A 
ENDROOT
BRANCH   1   7
ATOM      7  C   UNL A   1      43.958 -19.216 -38.149  0.00  0.00    +0.048 C 
BRANCH   7  18
ATOM      8  O   UNL A   1      43.246 -20.243 -40.808  0.00  0.00    -0.270 OA
ATOM      9  C   UNL A   1      44.274 -20.533 -40.227  0.00  0.00    +0.254 C 
ATOM     10  C   UNL A   1      45.306 -21.438 -40.736  0.00  0.00    +0.049 A 
ATOM     11  C   UNL A   1      45.408 -22.091 -41.948  0.00  0.00    -0.049 A 
ATOM     12  C   UNL A   1      46.534 -22.897 -42.144  0.00  0.00    -0.061 A 
ATOM     13  C   UNL A   1      47.515 -23.030 -41.138  0.00  0.00    -0.061 A 
ATOM     14  C   UNL A   1      47.387 -22.363 -39.917  0.00  0.00    -0.049 A 
ATOM     15  C   UNL A   1      46.268 -21.572 -39.748  0.00  0.00    +0.049 A 
ATOM     16  C   UNL A   1      45.845 -20.758 -38.609  0.00  0.00    +0.254 C 
ATOM     17  O   UNL A   1      46.417 -20.703 -37.537  0.00  0.00    -0.270 OA
ATOM     18  N   UNL A   1      44.686 -20.139 -38.985  0.00  0.00    -0.230 N 
ENDBRANCH   7  18
ENDBRANCH   1   7
BRANCH   4  19
ATOM     19  C   UNL A   1      40.955 -21.967 -34.059  0.00  0.00    +0.050 C 
BRANCH  19  20
ATOM     20  C   UNL A   1      39.709 -21.235 -33.657  0.00  0.00    +0.007 A 
ATOM     21  C   UNL A   1      39.755 -20.082 -32.861  0.00  0.00    -0.054 A 
ATOM     22  C   UNL A   1      38.573 -19.426 -32.508  0.00  0.00    -0.061 A 
ATOM     23  C   UNL A   1      37.340 -19.914 -32.941  0.00  0.00    -0.059 A 
ATOM     24  C   UNL A   1      37.284 -21.061 -33.730  0.00  0.00    -0.026 A 
ATOM     25  C   UNL A   1      38.464 -21.708 -34.078  0.00  0.00    +0.128 A 
ATOM     26  F   UNL A   1      38.407 -22.811 -34.837  0.00  0.00    -0.205 F 
ENDBRANCH  19  20
ENDBRANCH   4  19
TORSDOF 4
ENDMDL
MODEL 13
REMARK VINA RESULT:    -6.987     17.936     21.308
REMARK INTER + INTRA:          -9.548
REMARK INTER:                  -9.042
REMARK INTRA:                  -0.506
REMARK UNBOUND:                -0.927
REMARK  Name = cpd146.pdb
REMARK  4 active torsions:
REMARK  status: ('A' for Active; 'I' for Inactive)
REMARK    1  A    between atoms: N_11  and  C_12
REMARK    2  A    between atoms: C_12  and  C_13
REMARK    3  A    between atoms: N_16  and  C_17
REMARK    4  A    between atoms: C_17  and  C_18
REMARK                            x       y       z     vdW  Elec       q    Type
REMARK                         _______ _______ _______ _____ _____    ______ ____
ROOT
ATOM      1  C   UNL A   1      41.262 -20.624 -39.188  0.00  0.00    -0.027 A 
ATOM      2  C   UNL A   1      42.010 -19.529 -38.753  0.00  0.00    -0.041 A 
ATOM      3  C   UNL A   1      43.299 -19.338 -39.237  0.00  0.00    +0.005 A 
ATOM      4  N   UNL A   1      43.843 -20.209 -40.118  0.00  0.00    -0.349 N 
ATOM      5  C   UNL A   1      43.149 -21.296 -40.530  0.00  0.00    +0.005 A 
ATOM      6  C   UNL A   1      41.854 -21.523 -40.076  0.00  0.00    -0.041 A 
ENDROOT
BRANCH   1   7
ATOM      7  C   UNL A   1      39.857 -20.852 -38.674  0.00  0.00    +0.048 C 
BRANCH   7  18
ATOM      8  O   UNL A   1      38.980 -18.991 -36.577  0.00  0.00    -0.270 OA
ATOM      9  C   UNL A   1      39.378 -20.119 -36.353  0.00  0.00    +0.254 C 
ATOM     10  C   UNL A   1      39.499 -20.725 -35.027  0.00  0.00    +0.049 A 
ATOM     11  C   UNL A   1      39.151 -20.237 -33.783  0.00  0.00    -0.049 A 
ATOM     12  C   UNL A   1      39.389 -21.070 -32.684  0.00  0.00    -0.061 A 
ATOM     13  C   UNL A   1      39.962 -22.348 -32.852  0.00  0.00    -0.061 A 
ATOM     14  C   UNL A   1      40.311 -22.818 -34.122  0.00  0.00    -0.049 A 
ATOM     15  C   UNL A   1      40.064 -21.979 -35.191  0.00  0.00    +0.049 A 
ATOM     16  C   UNL A   1      40.308 -22.167 -36.620  0.00  0.00    +0.254 C 
ATOM     17  O   UNL A   1      40.868 -23.128 -37.114  0.00  0.00    -0.270 OA
ATOM     18  N   UNL A   1      39.834 -21.048 -37.245  0.00  0.00    -0.230 N 
ENDBRANCH   7  18
ENDBRANCH   1   7
BRANCH   4  19
ATOM     19  C   UNL A   1      45.205 -19.956 -40.653  0.00  0.00    +0.050 C 
BRANCH  19  20
ATOM     20  C   UNL A   1      45.845 -21.218 -41.150  0.00  0.00    +0.007 A 
ATOM     21  C   UNL A   1      45.622 -21.696 -42.448  0.00  0.00    -0.054 A 
ATOM     22  C   UNL A   1      46.237 -22.876 -42.876  0.00  0.00    -0.061 A 
ATOM     23  C   UNL A   1      47.074 -23.586 -42.015  0.00  0.00    -0.059 A 
ATOM     24  C   UNL A   1      47.299 -23.120 -40.721  0.00  0.00    -0.026 A 
ATOM     25  C   UNL A   1      46.684 -21.946 -40.303  0.00  0.00    +0.128 A 
ATOM     26  F   UNL A   1      46.902 -21.500 -39.058  0.00  0.00    -0.205 F 
ENDBRANCH  19  20
ENDBRANCH   4  19
TORSDOF 4
ENDMDL
MODEL 14
REMARK VINA RESULT:    -6.885      1.577      2.147
REMARK INTER + INTRA:          -9.422
REMARK INTER:                  -8.703
REMARK INTRA:                  -0.719
REMARK UNBOUND:                -0.927
REMARK  Name = cpd146.pdb
REMARK  4 active torsions:
REMARK  status: ('A' for Active; 'I' for Inactive)
REMARK    1  A    between atoms: N_11  and  C_12
REMARK    2  A    between atoms: C_12  and  C_13
REMARK    3  A    between atoms: N_16  and  C_17
REMARK    4  A    between atoms: C_17  and  C_18
REMARK                            x       y       z     vdW  Elec       q    Type
REMARK                         _______ _______ _______ _____ _____    ______ ____
ROOT
ATOM      1  C   UNL A   1      34.831 -38.774 -29.964  0.00  0.00    -0.027 A 
ATOM      2  C   UNL A   1      35.582 -39.461 -30.919  0.00  0.00    -0.041 A 
ATOM      3  C   UNL A   1      35.014 -40.525 -31.610  0.00  0.00    +0.005 A 
ATOM      4  N   UNL A   1      33.741 -40.913 -31.358  0.00  0.00    -0.349 N 
ATOM      5  C   UNL A   1      33.005 -40.283 -30.413  0.00  0.00    +0.005 A 
ATOM      6  C   UNL A   1      33.531 -39.209 -29.703  0.00  0.00    -0.041 A 
ENDROOT
BRANCH   1   7
ATOM      7  C   UNL A   1      35.430 -37.614 -29.200  0.00  0.00    +0.048 C 
BRANCH   7  18
ATOM      8  O   UNL A   1      37.870 -38.644 -27.929  0.00  0.00    -0.270 OA
ATOM      9  C   UNL A   1      37.873 -37.936 -28.918  0.00  0.00    +0.254 C 
ATOM     10  C   UNL A   1      39.069 -37.472 -29.622  0.00  0.00    +0.049 A 
ATOM     11  C   UNL A   1      40.403 -37.756 -29.407  0.00  0.00    -0.049 A 
ATOM     12  C   UNL A   1      41.329 -37.153 -30.266  0.00  0.00    -0.061 A 
ATOM     13  C   UNL A   1      40.905 -36.293 -31.301  0.00  0.00    -0.061 A 
ATOM     14  C   UNL A   1      39.549 -36.017 -31.496  0.00  0.00    -0.049 A 
ATOM     15  C   UNL A   1      38.655 -36.625 -30.637  0.00  0.00    +0.049 A 
ATOM     16  C   UNL A   1      37.196 -36.545 -30.574  0.00  0.00    +0.254 C 
ATOM     17  O   UNL A   1      36.504 -35.828 -31.272  0.00  0.00    -0.270 OA
ATOM     18  N   UNL A   1      36.805 -37.382 -29.567  0.00  0.00    -0.230 N 
ENDBRANCH   7  18
ENDBRANCH   1   7
BRANCH   4  19
ATOM     19  C   UNL A   1      33.145 -42.023 -32.142  0.00  0.00    +0.050 C 
BRANCH  19  20
ATOM     20  C   UNL A   1      32.976 -41.649 -33.584  0.00  0.00    +0.007 A 
ATOM     21  C   UNL A   1      32.115 -40.617 -33.982  0.00  0.00    -0.054 A 
ATOM     22  C   UNL A   1      31.985 -40.296 -35.336  0.00  0.00    -0.061 A 
ATOM     23  C   UNL A   1      32.706 -41.000 -36.299  0.00  0.00    -0.059 A 
ATOM     24  C   UNL A   1      33.562 -42.030 -35.914  0.00  0.00    -0.026 A 
ATOM     25  C   UNL A   1      33.687 -42.344 -34.566  0.00  0.00    +0.128 A 
ATOM     26  F   UNL A   1      34.511 -43.334 -34.197  0.00  0.00    -0.205 F 
ENDBRANCH  19  20
ENDBRANCH   4  19
TORSDOF 4
ENDMDL
MODEL 15
REMARK VINA RESULT:    -6.816     25.468     29.402
REMARK INTER + INTRA:          -9.337
REMARK INTER:                  -8.625
REMARK INTRA:                  -0.711
REMARK UNBOUND:                -0.927
REMARK  Name = cpd146.pdb
REMARK  4 active torsions:
REMARK  status: ('A' for Active; 'I' for Inactive)
REMARK    1  A    between atoms: N_11  and  C_12
REMARK    2  A    between atoms: C_12  and  C_13
REMARK    3  A    between atoms: N_16  and  C_17
REMARK    4  A    between atoms: C_17  and  C_18
REMARK                            x       y       z     vdW  Elec       q    Type
REMARK                         _______ _______ _______ _____ _____    ______ ____
ROOT
ATOM      1  C   UNL A   1      54.494 -33.606 -52.594  0.00  0.00    -0.027 A 
ATOM      2  C   UNL A   1      54.299 -34.973 -52.395  0.00  0.00    -0.041 A 
ATOM      3  C   UNL A   1      54.917 -35.610 -51.325  0.00  0.00    +0.005 A 
ATOM      4  N   UNL A   1      55.715 -34.920 -50.477  0.00  0.00    -0.349 N 
ATOM      5  C   UNL A   1      55.945 -33.600 -50.668  0.00  0.00    +0.005 A 
ATOM      6  C   UNL A   1      55.343 -32.922 -51.722  0.00  0.00    -0.041 A 
ENDROOT
BRANCH   1   7
ATOM      7  C   UNL A   1      53.833 -32.893 -53.753  0.00  0.00    +0.048 C 
BRANCH   7  18
ATOM      8  O   UNL A   1      56.188 -33.490 -55.405  0.00  0.00    -0.270 OA
ATOM      9  C   UNL A   1      55.793 -32.362 -55.177  0.00  0.00    +0.254 C 
ATOM     10  C   UNL A   1      56.419 -31.133 -55.666  0.00  0.00    +0.049 A 
ATOM     11  C   UNL A   1      57.498 -30.949 -56.508  0.00  0.00    -0.049 A 
ATOM     12  C   UNL A   1      57.861 -29.630 -56.798  0.00  0.00    -0.061 A 
ATOM     13  C   UNL A   1      57.151 -28.543 -56.245  0.00  0.00    -0.061 A 
ATOM     14  C   UNL A   1      56.064 -28.755 -55.390  0.00  0.00    -0.049 A 
ATOM     15  C   UNL A   1      55.724 -30.066 -55.121  0.00  0.00    +0.049 A 
ATOM     16  C   UNL A   1      54.660 -30.616 -54.283  0.00  0.00    +0.254 C 
ATOM     17  O   UNL A   1      53.904 -29.960 -53.591  0.00  0.00    -0.270 OA
ATOM     18  N   UNL A   1      54.735 -31.975 -54.404  0.00  0.00    -0.230 N 
ENDBRANCH   7  18
ENDBRANCH   1   7
BRANCH   4  19
ATOM     19  C   UNL A   1      56.325 -35.616 -49.315  0.00  0.00    +0.050 C 
BRANCH  19  20
ATOM     20  C   UNL A   1      55.703 -35.178 -48.023  0.00  0.00    +0.007 A 
ATOM     21  C   UNL A   1      54.527 -35.764 -47.535  0.00  0.00    -0.054 A 
ATOM     22  C   UNL A   1      53.977 -35.330 -46.325  0.00  0.00    -0.061 A 
ATOM     23  C   UNL A   1      54.593 -34.312 -45.598  0.00  0.00    -0.059 A 
ATOM     24  C   UNL A   1      55.760 -33.721 -46.076  0.00  0.00    -0.026 A 
ATOM     25  C   UNL A   1      56.301 -34.158 -47.279  0.00  0.00    +0.128 A 
ATOM     26  F   UNL A   1      57.425 -33.589 -47.737  0.00  0.00    -0.205 F 
ENDBRANCH  19  20
ENDBRANCH   4  19
TORSDOF 4
ENDMDL
MODEL 16
REMARK VINA RESULT:    -6.694     18.255     21.284
REMARK INTER + INTRA:          -9.186
REMARK INTER:                  -8.530
REMARK INTRA:                  -0.656
REMARK UNBOUND:                -0.927
REMARK  Name = cpd146.pdb
REMARK  4 active torsions:
REMARK  status: ('A' for Active; 'I' for Inactive)
REMARK    1  A    between atoms: N_11  and  C_12
REMARK    2  A    between atoms: C_12  and  C_13
REMARK    3  A    between atoms: N_16  and  C_17
REMARK    4  A    between atoms: C_17  and  C_18
REMARK                            x       y       z     vdW  Elec       q    Type
REMARK                         _______ _______ _______ _____ _____    ______ ____
ROOT
ATOM      1  C   UNL A   1      43.482 -19.253 -38.310  0.00  0.00    -0.027 A 
ATOM      2  C   UNL A   1      42.221 -18.717 -38.579  0.00  0.00    -0.041 A 
ATOM      3  C   UNL A   1      41.114 -19.166 -37.869  0.00  0.00    +0.005 A 
ATOM      4  N   UNL A   1      41.242 -20.128 -36.924  0.00  0.00    -0.349 N 
ATOM      5  C   UNL A   1      42.448 -20.685 -36.668  0.00  0.00    +0.005 A 
ATOM      6  C   UNL A   1      43.584 -20.261 -37.351  0.00  0.00    -0.041 A 
ENDROOT
BRANCH   1   7
ATOM      7  C   UNL A   1      44.700 -18.779 -39.072  0.00  0.00    +0.048 C 
BRANCH   7  18
ATOM      8  O   UNL A   1      47.255 -20.045 -38.361  0.00  0.00    -0.270 OA
ATOM      9  C   UNL A   1      46.562 -20.403 -39.295  0.00  0.00    +0.254 C 
ATOM     10  C   UNL A   1      46.883 -21.495 -40.215  0.00  0.00    +0.049 A 
ATOM     11  C   UNL A   1      47.941 -22.382 -40.219  0.00  0.00    -0.049 A 
ATOM     12  C   UNL A   1      47.969 -23.333 -41.245  0.00  0.00    -0.061 A 
ATOM     13  C   UNL A   1      46.958 -23.371 -42.228  0.00  0.00    -0.061 A 
ATOM     14  C   UNL A   1      45.899 -22.458 -42.205  0.00  0.00    -0.049 A 
ATOM     15  C   UNL A   1      45.892 -21.531 -41.182  0.00  0.00    +0.049 A 
ATOM     16  C   UNL A   1      44.945 -20.459 -40.880  0.00  0.00    +0.254 C 
ATOM     17  O   UNL A   1      43.990 -20.153 -41.571  0.00  0.00    -0.270 OA
ATOM     18  N   UNL A   1      45.381 -19.869 -39.727  0.00  0.00    -0.230 N 
ENDBRANCH   7  18
ENDBRANCH   1   7
BRANCH   4  19
ATOM     19  C   UNL A   1      40.051 -20.556 -36.149  0.00  0.00    +0.050 C 
BRANCH  19  20
ATOM     20  C   UNL A   1      40.434 -21.094 -34.803  0.00  0.00    +0.007 A 
ATOM     21  C   UNL A   1      40.368 -22.462 -34.509  0.00  0.00    -0.054 A 
ATOM     22  C   UNL A   1      40.736 -22.927 -33.243  0.00  0.00    -0.061 A 
ATOM     23  C   UNL A   1      41.169 -22.033 -32.264  0.00  0.00    -0.059 A 
ATOM     24  C   UNL A   1      41.235 -20.670 -32.545  0.00  0.00    -0.026 A 
ATOM     25  C   UNL A   1      40.868 -20.215 -33.806  0.00  0.00    +0.128 A 
ATOM     26  F   UNL A   1      40.934 -18.904 -34.075  0.00  0.00    -0.205 F 
ENDBRANCH  19  20
ENDBRANCH   4  19
TORSDOF 4
ENDMDL
MODEL 17
REMARK VINA RESULT:    -6.677     18.023     20.987
REMARK INTER + INTRA:          -9.165
REMARK INTER:                  -8.474
REMARK INTRA:                  -0.691
REMARK UNBOUND:                -0.927
REMARK  Name = cpd146.pdb
REMARK  4 active torsions:
REMARK  status: ('A' for Active; 'I' for Inactive)
REMARK    1  A    between atoms: N_11  and  C_12
REMARK    2  A    between atoms: C_12  and  C_13
REMARK    3  A    between atoms: N_16  and  C_17
REMARK    4  A    between atoms: C_17  and  C_18
REMARK                            x       y       z     vdW  Elec       q    Type
REMARK                         _______ _______ _______ _____ _____    ______ ____
ROOT
ATOM      1  C   UNL A   1      42.713 -20.639 -35.692  0.00  0.00    -0.027 A 
ATOM      2  C   UNL A   1      42.159 -21.451 -36.684  0.00  0.00    -0.041 A 
ATOM      3  C   UNL A   1      42.384 -21.157 -38.023  0.00  0.00    +0.005 A 
ATOM      4  N   UNL A   1      43.128 -20.083 -38.380  0.00  0.00    -0.349 N 
ATOM      5  C   UNL A   1      43.648 -19.263 -37.437  0.00  0.00    +0.005 A 
ATOM      6  C   UNL A   1      43.453 -19.523 -36.085  0.00  0.00    -0.041 A 
ENDROOT
BRANCH   1   7
ATOM      7  C   UNL A   1      42.479 -20.940 -34.229  0.00  0.00    +0.048 C 
BRANCH   7  18
ATOM      8  O   UNL A   1      40.493 -23.084 -33.924  0.00  0.00    -0.270 OA
ATOM      9  C   UNL A   1      40.249 -21.907 -33.734  0.00  0.00    +0.254 C 
ATOM     10  C   UNL A   1      38.946 -21.367 -33.342  0.00  0.00    +0.049 A 
ATOM     11  C   UNL A   1      37.763 -22.010 -33.040  0.00  0.00    -0.049 A 
ATOM     12  C   UNL A   1      36.673 -21.206 -32.689  0.00  0.00    -0.061 A 
ATOM     13  C   UNL A   1      36.790 -19.800 -32.654  0.00  0.00    -0.061 A 
ATOM     14  C   UNL A   1      37.999 -19.172 -32.970  0.00  0.00    -0.049 A 
ATOM     15  C   UNL A   1      39.060 -19.987 -33.310  0.00  0.00    +0.049 A 
ATOM     16  C   UNL A   1      40.432 -19.650 -33.687  0.00  0.00    +0.254 C 
ATOM     17  O   UNL A   1      40.859 -18.520 -33.836  0.00  0.00    -0.270 OA
ATOM     18  N   UNL A   1      41.084 -20.836 -33.875  0.00  0.00    -0.230 N 
ENDBRANCH   7  18
ENDBRANCH   1   7
BRANCH   4  19
ATOM     19  C   UNL A   1      43.391 -19.819 -39.817  0.00  0.00    +0.050 C 
BRANCH  19  20
ATOM     20  C   UNL A   1      44.430 -20.750 -40.366  0.00  0.00    +0.007 A 
ATOM     21  C   UNL A   1      45.463 -21.257 -39.566  0.00  0.00    -0.054 A 
ATOM     22  C   UNL A   1      46.412 -22.125 -40.113  0.00  0.00    -0.061 A 
ATOM     23  C   UNL A   1      46.340 -22.490 -41.457  0.00  0.00    -0.059 A 
ATOM     24  C   UNL A   1      45.319 -21.988 -42.262  0.00  0.00    -0.026 A 
ATOM     25  C   UNL A   1      44.378 -21.126 -41.711  0.00  0.00    +0.128 A 
ATOM     26  F   UNL A   1      43.397 -20.646 -42.486  0.00  0.00    -0.205 F 
ENDBRANCH  19  20
ENDBRANCH   4  19
TORSDOF 4
ENDMDL
MODEL 18
REMARK VINA RESULT:    -6.658     25.363     29.322
REMARK INTER + INTRA:          -9.142
REMARK INTER:                  -8.414
REMARK INTRA:                  -0.729
REMARK UNBOUND:                -0.927
REMARK  Name = cpd146.pdb
REMARK  4 active torsions:
REMARK  status: ('A' for Active; 'I' for Inactive)
REMARK    1  A    between atoms: N_11  and  C_12
REMARK    2  A    between atoms: C_12  and  C_13
REMARK    3  A    between atoms: N_16  and  C_17
REMARK    4  A    between atoms: C_17  and  C_18
REMARK                            x       y       z     vdW  Elec       q    Type
REMARK                         _______ _______ _______ _____ _____    ______ ____
ROOT
ATOM      1  C   UNL A   1      54.891 -33.633 -52.444  0.00  0.00    -0.027 A 
ATOM      2  C   UNL A   1      54.534 -34.976 -52.314  0.00  0.00    -0.041 A 
ATOM      3  C   UNL A   1      54.974 -35.705 -51.216  0.00  0.00    +0.005 A 
ATOM      4  N   UNL A   1      55.756 -35.129 -50.272  0.00  0.00    -0.349 N 
ATOM      5  C   UNL A   1      56.142 -33.837 -50.393  0.00  0.00    +0.005 A 
ATOM      6  C   UNL A   1      55.719 -33.069 -51.473  0.00  0.00    -0.041 A 
ENDROOT
BRANCH   1   7
ATOM      7  C   UNL A   1      54.424 -32.822 -53.632  0.00  0.00    +0.048 C 
BRANCH   7  18
ATOM      8  O   UNL A   1      54.655 -29.894 -53.698  0.00  0.00    -0.270 OA
ATOM      9  C   UNL A   1      55.505 -30.647 -54.134  0.00  0.00    +0.254 C 
ATOM     10  C   UNL A   1      56.757 -30.231 -54.767  0.00  0.00    +0.049 A 
ATOM     11  C   UNL A   1      57.293 -28.973 -54.955  0.00  0.00    -0.049 A 
ATOM     12  C   UNL A   1      58.532 -28.898 -55.600  0.00  0.00    -0.061 A 
ATOM     13  C   UNL A   1      59.193 -30.065 -56.039  0.00  0.00    -0.061 A 
ATOM     14  C   UNL A   1      58.627 -31.329 -55.842  0.00  0.00    -0.049 A 
ATOM     15  C   UNL A   1      57.406 -31.376 -55.200  0.00  0.00    +0.049 A 
ATOM     16  C   UNL A   1      56.563 -32.518 -54.848  0.00  0.00    +0.254 C 
ATOM     17  O   UNL A   1      56.792 -33.675 -55.148  0.00  0.00    -0.270 OA
ATOM     18  N   UNL A   1      55.484 -32.012 -54.180  0.00  0.00    -0.230 N 
ENDBRANCH   7  18
ENDBRANCH   1   7
BRANCH   4  19
ATOM     19  C   UNL A   1      56.174 -35.918 -49.086  0.00  0.00    +0.050 C 
BRANCH  19  20
ATOM     20  C   UNL A   1      55.525 -35.412 -47.832  0.00  0.00    +0.007 A 
ATOM     21  C   UNL A   1      56.138 -34.447 -47.022  0.00  0.00    -0.054 A 
ATOM     22  C   UNL A   1      55.501 -33.998 -45.862  0.00  0.00    -0.061 A 
ATOM     23  C   UNL A   1      54.254 -34.508 -45.501  0.00  0.00    -0.059 A 
ATOM     24  C   UNL A   1      53.638 -35.470 -46.299  0.00  0.00    -0.026 A 
ATOM     25  C   UNL A   1      54.277 -35.911 -47.451  0.00  0.00    +0.128 A 
ATOM     26  F   UNL A   1      53.682 -36.836 -48.217  0.00  0.00    -0.205 F 
ENDBRANCH  19  20
ENDBRANCH   4  19
TORSDOF 4
ENDMDL
MODEL 19
REMARK VINA RESULT:    -6.360     18.748     22.133
REMARK INTER + INTRA:          -8.775
REMARK INTER:                  -7.904
REMARK INTRA:                  -0.871
REMARK UNBOUND:                -0.927
REMARK  Name = cpd146.pdb
REMARK  4 active torsions:
REMARK  status: ('A' for Active; 'I' for Inactive)
REMARK    1  A    between atoms: N_11  and  C_12
REMARK    2  A    between atoms: C_12  and  C_13
REMARK    3  A    between atoms: N_16  and  C_17
REMARK    4  A    between atoms: C_17  and  C_18
REMARK                            x       y       z     vdW  Elec       q    Type
REMARK                         _______ _______ _______ _____ _____    ______ ____
ROOT
ATOM      1  C   UNL A   1      45.740 -18.865 -36.416  0.00  0.00    -0.027 A 
ATOM      2  C   UNL A   1      45.365 -20.091 -35.866  0.00  0.00    -0.041 A 
ATOM      3  C   UNL A   1      44.441 -20.129 -34.829  0.00  0.00    +0.005 A 
ATOM      4  N   UNL A   1      43.906 -18.986 -34.338  0.00  0.00    -0.349 N 
ATOM      5  C   UNL A   1      44.278 -17.783 -34.833  0.00  0.00    +0.005 A 
ATOM      6  C   UNL A   1      45.195 -17.699 -35.875  0.00  0.00    -0.041 A 
ENDROOT
BRANCH   1   7
ATOM      7  C   UNL A   1      46.746 -18.800 -37.545  0.00  0.00    +0.048 C 
BRANCH   7  18
ATOM      8  O   UNL A   1      45.241 -17.206 -39.500  0.00  0.00    -0.270 OA
ATOM      9  C   UNL A   1      45.509 -18.383 -39.653  0.00  0.00    +0.254 C 
ATOM     10  C   UNL A   1      45.123 -19.194 -40.809  0.00  0.00    +0.049 A 
ATOM     11  C   UNL A   1      44.466 -18.844 -41.971  0.00  0.00    -0.049 A 
ATOM     12  C   UNL A   1      44.242 -19.859 -42.907  0.00  0.00    -0.061 A 
ATOM     13  C   UNL A   1      44.672 -21.181 -42.660  0.00  0.00    -0.061 A 
ATOM     14  C   UNL A   1      45.331 -21.512 -41.472  0.00  0.00    -0.049 A 
ATOM     15  C   UNL A   1      45.542 -20.492 -40.566  0.00  0.00    +0.049 A 
ATOM     16  C   UNL A   1      46.188 -20.507 -39.255  0.00  0.00    +0.254 C 
ATOM     17  O   UNL A   1      46.606 -21.502 -38.692  0.00  0.00    -0.270 OA
ATOM     18  N   UNL A   1      46.173 -19.219 -38.800  0.00  0.00    -0.230 N 
ENDBRANCH   7  18
ENDBRANCH   1   7
BRANCH   4  19
ATOM     19  C   UNL A   1      42.886 -19.058 -33.261  0.00  0.00    +0.050 C 
BRANCH  19  20
ATOM     20  C   UNL A   1      41.831 -20.079 -33.570  0.00  0.00    +0.007 A 
ATOM     21  C   UNL A   1      41.751 -21.291 -32.870  0.00  0.00    -0.054 A 
ATOM     22  C   UNL A   1      40.752 -22.217 -33.185  0.00  0.00    -0.061 A 
ATOM     23  C   UNL A   1      39.833 -21.944 -34.197  0.00  0.00    -0.059 A 
ATOM     24  C   UNL A   1      39.907 -20.744 -34.901  0.00  0.00    -0.026 A 
ATOM     25  C   UNL A   1      40.902 -19.827 -34.582  0.00  0.00    +0.128 A 
ATOM     26  F   UNL A   1      40.971 -18.673 -35.260  0.00  0.00    -0.205 F 
ENDBRANCH  19  20
ENDBRANCH   4  19
TORSDOF 4
ENDMDL
MODEL 20
REMARK VINA RESULT:    -6.009     18.067     22.002
REMARK INTER + INTRA:          -8.341
REMARK INTER:                  -7.387
REMARK INTRA:                  -0.955
REMARK UNBOUND:                -0.927
REMARK  Name = cpd146.pdb
REMARK  4 active torsions:
REMARK  status: ('A' for Active; 'I' for Inactive)
REMARK    1  A    between atoms: N_11  and  C_12
REMARK    2  A    between atoms: C_12  and  C_13
REMARK    3  A    between atoms: N_16  and  C_17
REMARK    4  A    between atoms: C_17  and  C_18
REMARK                            x       y       z     vdW  Elec       q    Type
REMARK                         _______ _______ _______ _____ _____    ______ ____
ROOT
ATOM      1  C   UNL A   1      41.545 -20.404 -38.907  0.00  0.00    -0.027 A 
ATOM      2  C   UNL A   1      42.475 -21.146 -39.636  0.00  0.00    -0.041 A 
ATOM      3  C   UNL A   1      43.734 -20.615 -39.893  0.00  0.00    +0.005 A 
ATOM      4  N   UNL A   1      44.065 -19.378 -39.453  0.00  0.00    -0.349 N 
ATOM      5  C   UNL A   1      43.169 -18.627 -38.772  0.00  0.00    +0.005 A 
ATOM      6  C   UNL A   1      41.900 -19.122 -38.487  0.00  0.00    -0.041 A 
ENDROOT
BRANCH   1   7
ATOM      7  C   UNL A   1      40.169 -20.963 -38.618  0.00  0.00    +0.048 C 
BRANCH   7  18
ATOM      8  O   UNL A   1      41.332 -22.983 -36.829  0.00  0.00    -0.270 OA
ATOM      9  C   UNL A   1      40.568 -22.112 -36.456  0.00  0.00    +0.254 C 
ATOM     10  C   UNL A   1      40.095 -21.934 -35.083  0.00  0.00    +0.049 A 
ATOM     11  C   UNL A   1      40.424 -22.612 -33.926  0.00  0.00    -0.049 A 
ATOM     12  C   UNL A   1      39.798 -22.198 -32.746  0.00  0.00    -0.061 A 
ATOM     13  C   UNL A   1      38.869 -21.135 -32.751  0.00  0.00    -0.061 A 
ATOM     14  C   UNL A   1      38.548 -20.468 -33.937  0.00  0.00    -0.049 A 
ATOM     15  C   UNL A   1      39.182 -20.892 -35.087  0.00  0.00    +0.049 A 
ATOM     16  C   UNL A   1      39.069 -20.413 -36.464  0.00  0.00    +0.254 C 
ATOM     17  O   UNL A   1      38.296 -19.555 -36.845  0.00  0.00    -0.270 OA
ATOM     18  N   UNL A   1      39.951 -21.149 -37.204  0.00  0.00    -0.230 N 
ENDBRANCH   7  18
ENDBRANCH   1   7
BRANCH   4  19
ATOM     19  C   UNL A   1      45.432 -18.854 -39.701  0.00  0.00    +0.050 C 
BRANCH  19  20
ATOM     20  C   UNL A   1      46.125 -18.496 -38.421  0.00  0.00    +0.007 A 
ATOM     21  C   UNL A   1      46.353 -17.162 -38.054  0.00  0.00    -0.054 A 
ATOM     22  C   UNL A   1      47.001 -16.867 -36.851  0.00  0.00    -0.061 A 
ATOM     23  C   UNL A   1      47.427 -17.895 -36.011  0.00  0.00    -0.059 A 
ATOM     24  C   UNL A   1      47.208 -19.224 -36.368  0.00  0.00    -0.026 A 
ATOM     25  C   UNL A   1      46.562 -19.510 -37.565  0.00  0.00    +0.128 A 
ATOM     26  F   UNL A   1      46.352 -20.788 -37.907  0.00  0.00    -0.205 F 
ENDBRANCH  19  20
ENDBRANCH   4  19
TORSDOF 4
ENDMDL
