REMARK  Name = cpd198.pdb
REMARK  14 active torsions:
REMARK  status: ('A' for Active; 'I' for Inactive)
REMARK    1  A    between atoms: C_1  and  N_2
REMARK    2  A    between atoms: N_2  and  C_3
REMARK    3  A    between atoms: N_2  and  C_4
REMARK    4  A    between atoms: C_7  and  C_8
REMARK    5  A    between atoms: C_8  and  C_9
REMARK    6  A    between atoms: N_11  and  C_12
REMARK    7  A    between atoms: C_12  and  C_13
REMARK    8  A    between atoms: C_13  and  C_14
REMARK    9  A    between atoms: C_14  and  C_15
REMARK   10  A    between atoms: C_15  and  C_16
REMARK   11  A    between atoms: C_16  and  C_17
REMARK   12  A    between atoms: C_17  and  C_18
REMARK   13  A    between atoms: C_18  and  N_19
REMARK   14  A    between atoms: N_19  and  C_20
REMARK                            x       y       z     vdW  Elec       q    Type
REMARK                         _______ _______ _______ _____ _____    ______ ____
ROOT
ATOM      1  C   UNL     1       0.696  -3.629  -2.286  0.00  0.00    -0.052 C 
ENDROOT
BRANCH   1   2
ATOM      2  C   UNL     1       1.003  -5.036  -1.763  0.00  0.00    -0.037 C 
BRANCH   2   3
ATOM      3  C   UNL     1      -0.139  -5.657  -0.960  0.00  0.00    +0.012 C 
BRANCH   3   6
ATOM      4  C   UNL     1      -1.637  -4.333   0.505  0.00  0.00    +0.217 C 
ATOM      5  O   UNL     1      -2.547  -4.286  -0.317  0.00  0.00    -0.275 OA
ATOM      6  N   UNL     1      -0.424  -4.948   0.270  0.00  0.00    -0.315 N 
ATOM      7  H   UNL     1       0.273  -4.903   0.964  0.00  0.00    +0.000 HD
BRANCH   4   8
ATOM      8  C   UNL     1      -1.777  -3.742   1.896  0.00  0.00    +0.049 C 
BRANCH   8  12
ATOM      9  C   UNL     1       0.251   0.081   2.380  0.00  0.00    +0.029 A 
ATOM     10  C   UNL     1      -0.910  -0.044   1.599  0.00  0.00    -0.040 A 
ATOM     11  C   UNL     1      -1.561  -1.272   1.436  0.00  0.00    -0.056 A 
ATOM     12  C   UNL     1      -1.071  -2.422   2.060  0.00  0.00    -0.039 A 
ATOM     13  C   UNL     1       0.087  -2.318   2.835  0.00  0.00    -0.056 A 
ATOM     14  C   UNL     1       0.739  -1.087   2.984  0.00  0.00    -0.040 A 
BRANCH   9  16
ATOM     15  C   UNL     1       2.270   1.352   2.960  0.00  0.00    +0.000 C 
ATOM     16  N   UNL     1       0.883   1.336   2.488  0.00  0.00    -0.336 N 
ATOM     17  C   UNL     1       0.026   2.346   3.120  0.00  0.00    +0.000 C 
ENDBRANCH   9  16
ENDBRANCH   8  12
ENDBRANCH   4   8
ENDBRANCH   3   6
ENDBRANCH   2   3
ENDBRANCH   1   2
BRANCH   1  18
ATOM     18  C   UNL     1       1.371  -2.541  -1.448  0.00  0.00    -0.053 C 
BRANCH  18  19
ATOM     19  C   UNL     1       0.972  -1.143  -1.923  0.00  0.00    -0.052 C 
BRANCH  19  20
ATOM     20  C   UNL     1       1.725  -0.062  -1.144  0.00  0.00    -0.040 C 
BRANCH  20  21
ATOM     21  C   UNL     1       1.187   1.336  -1.466  0.00  0.00    -0.004 C 
BRANCH  21  22
ATOM     22  N   UNL     1       1.823   2.310  -0.579  0.00  0.00    -0.311 N 
ATOM     23  H   UNL     1       2.833   2.223  -0.694  0.00  0.00    +0.000 HD
ATOM     24  H   UNL     1       1.487   2.087   0.358  0.00  0.00    +0.000 HD
BRANCH  22  25
ATOM     25  C   UNL     1       1.465   3.720  -0.801  0.00  0.00    +0.020 C 
ATOM     26  C   UNL     1       1.884   4.227  -2.206  0.00  0.00    -0.032 C 
ATOM     27  C   UNL     1       1.581   5.730  -2.353  0.00  0.00    -0.039 C 
ATOM     28  C   UNL     1       2.366   6.515  -1.291  0.00  0.00    -0.047 C 
ATOM     29  C   UNL     1       1.955   6.049   0.113  0.00  0.00    -0.039 C 
ATOM     30  C   UNL     1       0.449   6.284   0.310  0.00  0.00    -0.047 C 
ATOM     31  C   UNL     1      -0.346   5.501  -0.745  0.00  0.00    -0.039 C 
ATOM     32  C   UNL     1       0.075   5.967  -2.148  0.00  0.00    -0.047 C 
ATOM     33  C   UNL     1      -0.047   3.997  -0.599  0.00  0.00    -0.032 C 
ATOM     34  C   UNL     1       2.252   4.547   0.254  0.00  0.00    -0.032 C 
ENDBRANCH  22  25
ENDBRANCH  21  22
ENDBRANCH  20  21
ENDBRANCH  19  20
ENDBRANCH  18  19
ENDBRANCH   1  18
TORSDOF 12
