MODEL 1
REMARK VINA RESULT:    -8.945      0.000      0.000
REMARK INTER + INTRA:         -16.308
REMARK INTER:                 -15.221
REMARK INTRA:                  -1.087
REMARK UNBOUND:                -1.087
REMARK  Name = cpd198.pdb
REMARK  14 active torsions:
REMARK  status: ('A' for Active; 'I' for Inactive)
REMARK    1  A    between atoms: C_1  and  N_2
REMARK    2  A    between atoms: N_2  and  C_3
REMARK    3  A    between atoms: N_2  and  C_4
REMARK    4  A    between atoms: C_7  and  C_8
REMARK    5  A    between atoms: C_8  and  C_9
REMARK    6  A    between atoms: N_11  and  C_12
REMARK    7  A    between atoms: C_12  and  C_13
REMARK    8  A    between atoms: C_13  and  C_14
REMARK    9  A    between atoms: C_14  and  C_15
REMARK   10  A    between atoms: C_15  and  C_16
REMARK   11  A    between atoms: C_16  and  C_17
REMARK   12  A    between atoms: C_17  and  C_18
REMARK   13  A    between atoms: C_18  and  N_19
REMARK   14  A    between atoms: N_19  and  C_20
REMARK                            x       y       z     vdW  Elec       q    Type
REMARK                         _______ _______ _______ _____ _____    ______ ____
ROOT
ATOM      1  C   UNL     1      41.897 -35.627 -32.234  0.00  0.00    -0.052 C 
ENDROOT
BRANCH   1   2
ATOM      2  C   UNL     1      42.729 -36.591 -31.382  0.00  0.00    -0.037 C 
BRANCH   2   3
ATOM      3  C   UNL     1      42.372 -38.062 -31.590  0.00  0.00    +0.012 C 
BRANCH   3   6
ATOM      4  C   UNL     1      43.375 -39.546 -29.877  0.00  0.00    +0.217 C 
ATOM      5  O   UNL     1      42.519 -39.300 -29.034  0.00  0.00    -0.275 OA
ATOM      6  N   UNL     1      43.402 -38.970 -31.131  0.00  0.00    -0.315 N 
ATOM      7  H   UNL     1      44.149 -39.184 -31.736  0.00  0.00    +0.000 HD
BRANCH   4   8
ATOM      8  C   UNL     1      44.483 -40.554 -29.631  0.00  0.00    +0.049 C 
BRANCH   8  12
ATOM      9  C   UNL     1      48.468 -38.801 -29.729  0.00  0.00    +0.029 A 
ATOM     10  C   UNL     1      48.223 -40.102 -30.198  0.00  0.00    -0.040 A 
ATOM     11  C   UNL     1      46.945 -40.671 -30.163  0.00  0.00    -0.056 A 
ATOM     12  C   UNL     1      45.861 -39.948 -29.658  0.00  0.00    -0.039 A 
ATOM     13  C   UNL     1      46.087 -38.655 -29.180  0.00  0.00    -0.056 A 
ATOM     14  C   UNL     1      47.372 -38.096 -29.209  0.00  0.00    -0.040 A 
BRANCH   9  16
ATOM     15  C   UNL     1      50.714 -38.889 -30.715  0.00  0.00    +0.000 C 
ATOM     16  N   UNL     1      49.779 -38.286 -29.762  0.00  0.00    -0.336 N 
ATOM     17  C   UNL     1      50.341 -38.087 -28.420  0.00  0.00    +0.000 C 
ENDBRANCH   9  16
ENDBRANCH   8  12
ENDBRANCH   4   8
ENDBRANCH   3   6
ENDBRANCH   2   3
ENDBRANCH   1   2
BRANCH   1  18
ATOM     18  C   UNL     1      40.451 -35.524 -31.746  0.00  0.00    -0.053 C 
BRANCH  18  19
ATOM     19  C   UNL     1      39.943 -34.083 -31.805  0.00  0.00    -0.052 C 
BRANCH  19  20
ATOM     20  C   UNL     1      38.414 -34.040 -31.842  0.00  0.00    -0.040 C 
BRANCH  20  21
ATOM     21  C   UNL     1      37.813 -35.448 -31.791  0.00  0.00    -0.004 C 
BRANCH  21  22
ATOM     22  N   UNL     1      36.563 -35.409 -31.033  0.00  0.00    -0.311 N 
ATOM     23  H   UNL     1      35.793 -35.493 -31.698  0.00  0.00    +0.000 HD
ATOM     24  H   UNL     1      36.581 -34.526 -30.522  0.00  0.00    +0.000 HD
BRANCH  22  25
ATOM     25  C   UNL     1      36.390 -36.453 -30.011  0.00  0.00    +0.020 C 
ATOM     26  C   UNL     1      37.735 -36.890 -29.372  0.00  0.00    -0.032 C 
ATOM     27  C   UNL     1      37.514 -38.052 -28.386  0.00  0.00    -0.039 C 
ATOM     28  C   UNL     1      36.912 -39.250 -29.135  0.00  0.00    -0.047 C 
ATOM     29  C   UNL     1      35.568 -38.853 -29.760  0.00  0.00    -0.039 C 
ATOM     30  C   UNL     1      34.602 -38.402 -28.653  0.00  0.00    -0.047 C 
ATOM     31  C   UNL     1      35.192 -37.202 -27.899  0.00  0.00    -0.039 C 
ATOM     32  C   UNL     1      36.541 -37.604 -27.282  0.00  0.00    -0.047 C 
ATOM     33  C   UNL     1      35.411 -36.037 -28.883  0.00  0.00    -0.032 C 
ATOM     34  C   UNL     1      35.790 -37.689 -30.739  0.00  0.00    -0.032 C 
ENDBRANCH  22  25
ENDBRANCH  21  22
ENDBRANCH  20  21
ENDBRANCH  19  20
ENDBRANCH  18  19
ENDBRANCH   1  18
TORSDOF 12
ENDMDL
MODEL 2
REMARK VINA RESULT:    -8.404      1.646      2.752
REMARK INTER + INTRA:         -15.387
REMARK INTER:                 -14.524
REMARK INTRA:                  -0.862
REMARK UNBOUND:                -1.087
REMARK  Name = cpd198.pdb
REMARK  14 active torsions:
REMARK  status: ('A' for Active; 'I' for Inactive)
REMARK    1  A    between atoms: C_1  and  N_2
REMARK    2  A    between atoms: N_2  and  C_3
REMARK    3  A    between atoms: N_2  and  C_4
REMARK    4  A    between atoms: C_7  and  C_8
REMARK    5  A    between atoms: C_8  and  C_9
REMARK    6  A    between atoms: N_11  and  C_12
REMARK    7  A    between atoms: C_12  and  C_13
REMARK    8  A    between atoms: C_13  and  C_14
REMARK    9  A    between atoms: C_14  and  C_15
REMARK   10  A    between atoms: C_15  and  C_16
REMARK   11  A    between atoms: C_16  and  C_17
REMARK   12  A    between atoms: C_17  and  C_18
REMARK   13  A    between atoms: C_18  and  N_19
REMARK   14  A    between atoms: N_19  and  C_20
REMARK                            x       y       z     vdW  Elec       q    Type
REMARK                         _______ _______ _______ _____ _____    ______ ____
ROOT
ATOM      1  C   UNL     1      42.036 -36.024 -31.868  0.00  0.00    -0.052 C 
ENDROOT
BRANCH   1   2
ATOM      2  C   UNL     1      42.810 -36.910 -30.886  0.00  0.00    -0.037 C 
BRANCH   2   3
ATOM      3  C   UNL     1      42.324 -38.358 -30.849  0.00  0.00    +0.012 C 
BRANCH   3   6
ATOM      4  C   UNL     1      43.780 -39.934 -29.608  0.00  0.00    +0.217 C 
ATOM      5  O   UNL     1      43.278 -39.679 -28.517  0.00  0.00    -0.275 OA
ATOM      6  N   UNL     1      43.403 -39.322 -30.786  0.00  0.00    -0.315 N 
ATOM      7  H   UNL     1      43.886 -39.548 -31.613  0.00  0.00    +0.000 HD
BRANCH   4   8
ATOM      8  C   UNL     1      44.854 -40.993 -29.772  0.00  0.00    +0.049 C 
BRANCH   8  12
ATOM      9  C   UNL     1      48.892 -39.368 -29.896  0.00  0.00    +0.029 A 
ATOM     10  C   UNL     1      47.906 -38.829 -29.053  0.00  0.00    -0.040 A 
ATOM     11  C   UNL     1      46.606 -39.345 -29.014  0.00  0.00    -0.056 A 
ATOM     12  C   UNL     1      46.250 -40.429 -29.820  0.00  0.00    -0.039 A 
ATOM     13  C   UNL     1      47.215 -40.973 -30.671  0.00  0.00    -0.056 A 
ATOM     14  C   UNL     1      48.512 -40.444 -30.711  0.00  0.00    -0.040 A 
BRANCH   9  16
ATOM     15  C   UNL     1      50.656 -38.170 -28.678  0.00  0.00    +0.000 C 
ATOM     16  N   UNL     1      50.178 -38.792 -29.916  0.00  0.00    -0.336 N 
ATOM     17  C   UNL     1      50.417 -37.986 -31.119  0.00  0.00    +0.000 C 
ENDBRANCH   9  16
ENDBRANCH   8  12
ENDBRANCH   4   8
ENDBRANCH   3   6
ENDBRANCH   2   3
ENDBRANCH   1   2
BRANCH   1  18
ATOM     18  C   UNL     1      40.678 -35.592 -31.309  0.00  0.00    -0.053 C 
BRANCH  18  19
ATOM     19  C   UNL     1      40.332 -34.162 -31.727  0.00  0.00    -0.052 C 
BRANCH  19  20
ATOM     20  C   UNL     1      38.822 -33.991 -31.904  0.00  0.00    -0.040 C 
BRANCH  20  21
ATOM     21  C   UNL     1      38.065 -35.262 -31.505  0.00  0.00    -0.004 C 
BRANCH  21  22
ATOM     22  N   UNL     1      36.775 -35.288 -32.194  0.00  0.00    -0.311 N 
ATOM     23  H   UNL     1      36.714 -36.168 -32.707  0.00  0.00    +0.000 HD
ATOM     24  H   UNL     1      36.764 -34.457 -32.785  0.00  0.00    +0.000 HD
BRANCH  22  25
ATOM     25  C   UNL     1      35.581 -35.182 -31.341  0.00  0.00    +0.020 C 
ATOM     26  C   UNL     1      34.394 -36.030 -31.869  0.00  0.00    -0.032 C 
ATOM     27  C   UNL     1      33.140 -35.807 -31.002  0.00  0.00    -0.039 C 
ATOM     28  C   UNL     1      32.746 -34.323 -31.049  0.00  0.00    -0.047 C 
ATOM     29  C   UNL     1      33.895 -33.459 -30.511  0.00  0.00    -0.039 C 
ATOM     30  C   UNL     1      34.203 -33.862 -29.060  0.00  0.00    -0.047 C 
ATOM     31  C   UNL     1      34.602 -35.344 -29.002  0.00  0.00    -0.039 C 
ATOM     32  C   UNL     1      33.451 -36.203 -29.548  0.00  0.00    -0.047 C 
ATOM     33  C   UNL     1      35.858 -35.570 -29.866  0.00  0.00    -0.032 C 
ATOM     34  C   UNL     1      35.147 -33.690 -31.374  0.00  0.00    -0.032 C 
ENDBRANCH  22  25
ENDBRANCH  21  22
ENDBRANCH  20  21
ENDBRANCH  19  20
ENDBRANCH  18  19
ENDBRANCH   1  18
TORSDOF 12
ENDMDL
MODEL 3
REMARK VINA RESULT:    -8.300      2.025      3.292
REMARK INTER + INTRA:         -15.209
REMARK INTER:                 -14.582
REMARK INTRA:                  -0.627
REMARK UNBOUND:                -1.087
REMARK  Name = cpd198.pdb
REMARK  14 active torsions:
REMARK  status: ('A' for Active; 'I' for Inactive)
REMARK    1  A    between atoms: C_1  and  N_2
REMARK    2  A    between atoms: N_2  and  C_3
REMARK    3  A    between atoms: N_2  and  C_4
REMARK    4  A    between atoms: C_7  and  C_8
REMARK    5  A    between atoms: C_8  and  C_9
REMARK    6  A    between atoms: N_11  and  C_12
REMARK    7  A    between atoms: C_12  and  C_13
REMARK    8  A    between atoms: C_13  and  C_14
REMARK    9  A    between atoms: C_14  and  C_15
REMARK   10  A    between atoms: C_15  and  C_16
REMARK   11  A    between atoms: C_16  and  C_17
REMARK   12  A    between atoms: C_17  and  C_18
REMARK   13  A    between atoms: C_18  and  N_19
REMARK   14  A    between atoms: N_19  and  C_20
REMARK                            x       y       z     vdW  Elec       q    Type
REMARK                         _______ _______ _______ _____ _____    ______ ____
ROOT
ATOM      1  C   UNL     1      41.026 -35.979 -30.968  0.00  0.00    -0.052 C 
ENDROOT
BRANCH   1   2
ATOM      2  C   UNL     1      42.472 -36.484 -30.922  0.00  0.00    -0.037 C 
BRANCH   2   3
ATOM      3  C   UNL     1      42.696 -37.780 -31.698  0.00  0.00    +0.012 C 
BRANCH   3   6
ATOM      4  C   UNL     1      43.277 -39.380 -29.896  0.00  0.00    +0.217 C 
ATOM      5  O   UNL     1      42.207 -39.248 -29.311  0.00  0.00    -0.275 OA
ATOM      6  N   UNL     1      43.614 -38.688 -31.042  0.00  0.00    -0.315 N 
ATOM      7  H   UNL     1      44.511 -38.815 -31.427  0.00  0.00    +0.000 HD
BRANCH   4   8
ATOM      8  C   UNL     1      44.335 -40.363 -29.429  0.00  0.00    +0.049 C 
BRANCH   8  12
ATOM      9  C   UNL     1      48.397 -38.826 -29.739  0.00  0.00    +0.029 A 
ATOM     10  C   UNL     1      47.349 -38.042 -29.227  0.00  0.00    -0.040 A 
ATOM     11  C   UNL     1      46.041 -38.531 -29.132  0.00  0.00    -0.056 A 
ATOM     12  C   UNL     1      45.739 -39.832 -29.542  0.00  0.00    -0.039 A 
ATOM     13  C   UNL     1      46.767 -40.623 -30.060  0.00  0.00    -0.056 A 
ATOM     14  C   UNL     1      48.072 -40.123 -30.162  0.00  0.00    -0.040 A 
BRANCH   9  16
ATOM     15  C   UNL     1      50.596 -38.863 -30.830  0.00  0.00    +0.000 C 
ATOM     16  N   UNL     1      49.691 -38.276 -29.839  0.00  0.00    -0.336 N 
ATOM     17  C   UNL     1      50.309 -38.046 -28.527  0.00  0.00    +0.000 C 
ENDBRANCH   9  16
ENDBRANCH   8  12
ENDBRANCH   4   8
ENDBRANCH   3   6
ENDBRANCH   2   3
ENDBRANCH   1   2
BRANCH   1  18
ATOM     18  C   UNL     1      40.045 -36.979 -30.352  0.00  0.00    -0.053 C 
BRANCH  18  19
ATOM     19  C   UNL     1      38.612 -36.444 -30.380  0.00  0.00    -0.052 C 
BRANCH  19  20
ATOM     20  C   UNL     1      37.600 -37.590 -30.453  0.00  0.00    -0.040 C 
BRANCH  20  21
ATOM     21  C   UNL     1      36.250 -37.109 -30.995  0.00  0.00    -0.004 C 
BRANCH  21  22
ATOM     22  N   UNL     1      36.405 -35.760 -31.541  0.00  0.00    -0.311 N 
ATOM     23  H   UNL     1      36.431 -35.837 -32.558  0.00  0.00    +0.000 HD
ATOM     24  H   UNL     1      37.263 -35.395 -31.126  0.00  0.00    +0.000 HD
BRANCH  22  25
ATOM     25  C   UNL     1      35.354 -34.793 -31.190  0.00  0.00    +0.020 C 
ATOM     26  C   UNL     1      35.838 -33.323 -31.293  0.00  0.00    -0.032 C 
ATOM     27  C   UNL     1      34.737 -32.355 -30.820  0.00  0.00    -0.039 C 
ATOM     28  C   UNL     1      34.387 -32.657 -29.355  0.00  0.00    -0.047 C 
ATOM     29  C   UNL     1      33.883 -34.101 -29.225  0.00  0.00    -0.039 C 
ATOM     30  C   UNL     1      32.634 -34.288 -30.101  0.00  0.00    -0.047 C 
ATOM     31  C   UNL     1      32.973 -33.991 -31.569  0.00  0.00    -0.039 C 
ATOM     32  C   UNL     1      33.484 -32.546 -31.690  0.00  0.00    -0.047 C 
ATOM     33  C   UNL     1      34.072 -34.959 -32.046  0.00  0.00    -0.032 C 
ATOM     34  C   UNL     1      34.981 -35.065 -29.705  0.00  0.00    -0.032 C 
ENDBRANCH  22  25
ENDBRANCH  21  22
ENDBRANCH  20  21
ENDBRANCH  19  20
ENDBRANCH  18  19
ENDBRANCH   1  18
TORSDOF 12
ENDMDL
MODEL 4
REMARK VINA RESULT:    -7.607      2.838      3.878
REMARK INTER + INTRA:         -14.030
REMARK INTER:                 -14.283
REMARK INTRA:                   0.253
REMARK UNBOUND:                -1.087
REMARK  Name = cpd198.pdb
REMARK  14 active torsions:
REMARK  status: ('A' for Active; 'I' for Inactive)
REMARK    1  A    between atoms: C_1  and  N_2
REMARK    2  A    between atoms: N_2  and  C_3
REMARK    3  A    between atoms: N_2  and  C_4
REMARK    4  A    between atoms: C_7  and  C_8
REMARK    5  A    between atoms: C_8  and  C_9
REMARK    6  A    between atoms: N_11  and  C_12
REMARK    7  A    between atoms: C_12  and  C_13
REMARK    8  A    between atoms: C_13  and  C_14
REMARK    9  A    between atoms: C_14  and  C_15
REMARK   10  A    between atoms: C_15  and  C_16
REMARK   11  A    between atoms: C_16  and  C_17
REMARK   12  A    between atoms: C_17  and  C_18
REMARK   13  A    between atoms: C_18  and  N_19
REMARK   14  A    between atoms: N_19  and  C_20
REMARK                            x       y       z     vdW  Elec       q    Type
REMARK                         _______ _______ _______ _____ _____    ______ ____
ROOT
ATOM      1  C   UNL     1      40.353 -36.942 -31.432  0.00  0.00    -0.052 C 
ENDROOT
BRANCH   1   2
ATOM      2  C   UNL     1      41.579 -37.486 -30.692  0.00  0.00    -0.037 C 
BRANCH   2   3
ATOM      3  C   UNL     1      41.233 -38.397 -29.515  0.00  0.00    +0.012 C 
BRANCH   3   6
ATOM      4  C   UNL     1      43.385 -39.530 -29.993  0.00  0.00    +0.217 C 
ATOM      5  O   UNL     1      43.510 -39.021 -31.102  0.00  0.00    -0.275 OA
ATOM      6  N   UNL     1      42.301 -39.311 -29.167  0.00  0.00    -0.315 N 
ATOM      7  H   UNL     1      42.253 -39.793 -28.310  0.00  0.00    +0.000 HD
BRANCH   4   8
ATOM      8  C   UNL     1      44.448 -40.436 -29.398  0.00  0.00    +0.049 C 
BRANCH   8  12
ATOM      9  C   UNL     1      48.490 -38.884 -29.865  0.00  0.00    +0.029 A 
ATOM     10  C   UNL     1      48.145 -40.180 -30.283  0.00  0.00    -0.040 A 
ATOM     11  C   UNL     1      46.849 -40.685 -30.129  0.00  0.00    -0.056 A 
ATOM     12  C   UNL     1      45.847 -39.899 -29.554  0.00  0.00    -0.039 A 
ATOM     13  C   UNL     1      46.174 -38.610 -29.125  0.00  0.00    -0.056 A 
ATOM     14  C   UNL     1      47.477 -38.117 -29.273  0.00  0.00    -0.040 A 
BRANCH   9  16
ATOM     15  C   UNL     1      50.680 -39.188 -30.934  0.00  0.00    +0.000 C 
ATOM     16  N   UNL     1      49.818 -38.436 -30.018  0.00  0.00    -0.336 N 
ATOM     17  C   UNL     1      50.453 -38.106 -28.737  0.00  0.00    +0.000 C 
ENDBRANCH   9  16
ENDBRANCH   8  12
ENDBRANCH   4   8
ENDBRANCH   3   6
ENDBRANCH   2   3
ENDBRANCH   1   2
BRANCH   1  18
ATOM     18  C   UNL     1      39.117 -36.874 -30.532  0.00  0.00    -0.053 C 
BRANCH  18  19
ATOM     19  C   UNL     1      38.124 -35.822 -31.027  0.00  0.00    -0.052 C 
BRANCH  19  20
ATOM     20  C   UNL     1      36.703 -36.144 -30.559  0.00  0.00    -0.040 C 
BRANCH  20  21
ATOM     21  C   UNL     1      35.654 -35.513 -31.480  0.00  0.00    -0.004 C 
BRANCH  21  22
ATOM     22  N   UNL     1      35.489 -34.104 -31.124  0.00  0.00    -0.311 N 
ATOM     23  H   UNL     1      35.830 -33.543 -31.904  0.00  0.00    +0.000 HD
ATOM     24  H   UNL     1      36.012 -33.978 -30.257  0.00  0.00    +0.000 HD
BRANCH  22  25
ATOM     25  C   UNL     1      34.116 -33.667 -30.823  0.00  0.00    +0.020 C 
ATOM     26  C   UNL     1      33.044 -34.598 -31.449  0.00  0.00    -0.032 C 
ATOM     27  C   UNL     1      31.630 -34.045 -31.193  0.00  0.00    -0.039 C 
ATOM     28  C   UNL     1      31.504 -32.651 -31.826  0.00  0.00    -0.047 C 
ATOM     29  C   UNL     1      32.540 -31.701 -31.209  0.00  0.00    -0.039 C 
ATOM     30  C   UNL     1      32.302 -31.600 -29.694  0.00  0.00    -0.047 C 
ATOM     31  C   UNL     1      32.429 -32.988 -29.049  0.00  0.00    -0.039 C 
ATOM     32  C   UNL     1      31.394 -33.935 -29.677  0.00  0.00    -0.047 C 
ATOM     33  C   UNL     1      33.843 -33.542 -29.301  0.00  0.00    -0.032 C 
ATOM     34  C   UNL     1      33.951 -32.259 -31.460  0.00  0.00    -0.032 C 
ENDBRANCH  22  25
ENDBRANCH  21  22
ENDBRANCH  20  21
ENDBRANCH  19  20
ENDBRANCH  18  19
ENDBRANCH   1  18
TORSDOF 12
ENDMDL
MODEL 5
REMARK VINA RESULT:    -6.794      4.519      8.142
REMARK INTER + INTRA:         -12.647
REMARK INTER:                 -10.060
REMARK INTRA:                  -2.587
REMARK UNBOUND:                -1.087
REMARK  Name = cpd198.pdb
REMARK  14 active torsions:
REMARK  status: ('A' for Active; 'I' for Inactive)
REMARK    1  A    between atoms: C_1  and  N_2
REMARK    2  A    between atoms: N_2  and  C_3
REMARK    3  A    between atoms: N_2  and  C_4
REMARK    4  A    between atoms: C_7  and  C_8
REMARK    5  A    between atoms: C_8  and  C_9
REMARK    6  A    between atoms: N_11  and  C_12
REMARK    7  A    between atoms: C_12  and  C_13
REMARK    8  A    between atoms: C_13  and  C_14
REMARK    9  A    between atoms: C_14  and  C_15
REMARK   10  A    between atoms: C_15  and  C_16
REMARK   11  A    between atoms: C_16  and  C_17
REMARK   12  A    between atoms: C_17  and  C_18
REMARK   13  A    between atoms: C_18  and  N_19
REMARK   14  A    between atoms: N_19  and  C_20
REMARK                            x       y       z     vdW  Elec       q    Type
REMARK                         _______ _______ _______ _____ _____    ______ ____
ROOT
ATOM      1  C   UNL     1      31.158 -33.722 -31.047  0.00  0.00    -0.052 C 
ENDROOT
BRANCH   1   2
ATOM      2  C   UNL     1      32.032 -33.117 -29.944  0.00  0.00    -0.037 C 
BRANCH   2   3
ATOM      3  C   UNL     1      33.508 -33.001 -30.322  0.00  0.00    +0.012 C 
BRANCH   3   6
ATOM      4  C   UNL     1      34.681 -35.168 -30.053  0.00  0.00    +0.217 C 
ATOM      5  O   UNL     1      34.236 -35.640 -31.095  0.00  0.00    -0.275 OA
ATOM      6  N   UNL     1      34.360 -33.910 -29.584  0.00  0.00    -0.315 N 
ATOM      7  H   UNL     1      34.723 -33.621 -28.716  0.00  0.00    +0.000 HD
BRANCH   4   8
ATOM      8  C   UNL     1      35.675 -35.921 -29.188  0.00  0.00    +0.049 C 
BRANCH   8  12
ATOM      9  C   UNL     1      39.483 -36.664 -31.166  0.00  0.00    +0.029 A 
ATOM     10  C   UNL     1      39.126 -37.328 -29.981  0.00  0.00    -0.040 A 
ATOM     11  C   UNL     1      37.906 -37.087 -29.339  0.00  0.00    -0.056 A 
ATOM     12  C   UNL     1      36.994 -36.172 -29.870  0.00  0.00    -0.039 A 
ATOM     13  C   UNL     1      37.335 -35.497 -31.045  0.00  0.00    -0.056 A 
ATOM     14  C   UNL     1      38.563 -35.735 -31.675  0.00  0.00    -0.040 A 
BRANCH   9  16
ATOM     15  C   UNL     1      41.835 -37.300 -30.863  0.00  0.00    +0.000 C 
ATOM     16  N   UNL     1      40.736 -36.923 -31.756  0.00  0.00    -0.336 N 
ATOM     17  C   UNL     1      41.103 -35.921 -32.763  0.00  0.00    +0.000 C 
ENDBRANCH   9  16
ENDBRANCH   8  12
ENDBRANCH   4   8
ENDBRANCH   3   6
ENDBRANCH   2   3
ENDBRANCH   1   2
BRANCH   1  18
ATOM     18  C   UNL     1      30.479 -35.019 -30.600  0.00  0.00    -0.053 C 
BRANCH  18  19
ATOM     19  C   UNL     1      31.021 -35.496 -29.252  0.00  0.00    -0.052 C 
BRANCH  19  20
ATOM     20  C   UNL     1      30.767 -36.992 -29.056  0.00  0.00    -0.040 C 
BRANCH  20  21
ATOM     21  C   UNL     1      32.061 -37.739 -28.717  0.00  0.00    -0.004 C 
BRANCH  21  22
ATOM     22  N   UNL     1      32.810 -37.984 -29.949  0.00  0.00    -0.311 N 
ATOM     23  H   UNL     1      33.412 -37.177 -30.114  0.00  0.00    +0.000 HD
ATOM     24  H   UNL     1      32.105 -38.136 -30.672  0.00  0.00    +0.000 HD
BRANCH  22  25
ATOM     25  C   UNL     1      33.656 -39.188 -29.966  0.00  0.00    +0.020 C 
ATOM     26  C   UNL     1      34.349 -39.447 -28.602  0.00  0.00    -0.032 C 
ATOM     27  C   UNL     1      35.300 -40.655 -28.698  0.00  0.00    -0.039 C 
ATOM     28  C   UNL     1      36.380 -40.372 -29.754  0.00  0.00    -0.047 C 
ATOM     29  C   UNL     1      35.723 -40.133 -31.121  0.00  0.00    -0.039 C 
ATOM     30  C   UNL     1      34.921 -41.378 -31.529  0.00  0.00    -0.047 C 
ATOM     31  C   UNL     1      33.836 -41.669 -30.481  0.00  0.00    -0.039 C 
ATOM     32  C   UNL     1      34.499 -41.901 -29.114  0.00  0.00    -0.047 C 
ATOM     33  C   UNL     1      32.882 -40.464 -30.385  0.00  0.00    -0.032 C 
ATOM     34  C   UNL     1      34.769 -38.931 -31.020  0.00  0.00    -0.032 C 
ENDBRANCH  22  25
ENDBRANCH  21  22
ENDBRANCH  20  21
ENDBRANCH  19  20
ENDBRANCH  18  19
ENDBRANCH   1  18
TORSDOF 12
ENDMDL
MODEL 6
REMARK VINA RESULT:    -6.637     17.070     20.285
REMARK INTER + INTRA:         -12.381
REMARK INTER:                 -10.437
REMARK INTRA:                  -1.943
REMARK UNBOUND:                -1.087
REMARK  Name = cpd198.pdb
REMARK  14 active torsions:
REMARK  status: ('A' for Active; 'I' for Inactive)
REMARK    1  A    between atoms: C_1  and  N_2
REMARK    2  A    between atoms: N_2  and  C_3
REMARK    3  A    between atoms: N_2  and  C_4
REMARK    4  A    between atoms: C_7  and  C_8
REMARK    5  A    between atoms: C_8  and  C_9
REMARK    6  A    between atoms: N_11  and  C_12
REMARK    7  A    between atoms: C_12  and  C_13
REMARK    8  A    between atoms: C_13  and  C_14
REMARK    9  A    between atoms: C_14  and  C_15
REMARK   10  A    between atoms: C_15  and  C_16
REMARK   11  A    between atoms: C_16  and  C_17
REMARK   12  A    between atoms: C_17  and  C_18
REMARK   13  A    between atoms: C_18  and  N_19
REMARK   14  A    between atoms: N_19  and  C_20
REMARK                            x       y       z     vdW  Elec       q    Type
REMARK                         _______ _______ _______ _____ _____    ______ ____
ROOT
ATOM      1  C   UNL     1      39.283 -21.970 -36.969  0.00  0.00    -0.052 C 
ENDROOT
BRANCH   1   2
ATOM      2  C   UNL     1      39.870 -22.864 -35.872  0.00  0.00    -0.037 C 
BRANCH   2   3
ATOM      3  C   UNL     1      39.478 -22.440 -34.457  0.00  0.00    +0.012 C 
BRANCH   3   6
ATOM      4  C   UNL     1      40.817 -20.488 -33.723  0.00  0.00    +0.217 C 
ATOM      5  O   UNL     1      40.176 -19.683 -34.392  0.00  0.00    -0.275 OA
ATOM      6  N   UNL     1      40.571 -21.846 -33.716  0.00  0.00    -0.315 N 
ATOM      7  H   UNL     1      41.160 -22.432 -33.188  0.00  0.00    +0.000 HD
BRANCH   4   8
ATOM      8  C   UNL     1      41.937 -20.052 -32.795  0.00  0.00    +0.049 C 
BRANCH   8  12
ATOM      9  C   UNL     1      45.604 -18.960 -34.874  0.00  0.00    +0.029 A 
ATOM     10  C   UNL     1      45.108 -18.197 -33.804  0.00  0.00    -0.040 A 
ATOM     11  C   UNL     1      43.926 -18.541 -33.137  0.00  0.00    -0.056 A 
ATOM     12  C   UNL     1      43.202 -19.673 -33.519  0.00  0.00    -0.039 A 
ATOM     13  C   UNL     1      43.676 -20.440 -34.586  0.00  0.00    -0.056 A 
ATOM     14  C   UNL     1      44.854 -20.082 -35.255  0.00  0.00    -0.040 A 
BRANCH   9  16
ATOM     15  C   UNL     1      46.775 -18.555 -36.994  0.00  0.00    +0.000 C 
ATOM     16  N   UNL     1      46.784 -18.553 -35.529  0.00  0.00    -0.336 N 
ATOM     17  C   UNL     1      47.989 -19.147 -34.939  0.00  0.00    +0.000 C 
ENDBRANCH   9  16
ENDBRANCH   8  12
ENDBRANCH   4   8
ENDBRANCH   3   6
ENDBRANCH   2   3
ENDBRANCH   1   2
BRANCH   1  18
ATOM     18  C   UNL     1      40.319 -21.608 -38.035  0.00  0.00    -0.053 C 
BRANCH  18  19
ATOM     19  C   UNL     1      41.290 -20.539 -37.530  0.00  0.00    -0.052 C 
BRANCH  19  20
ATOM     20  C   UNL     1      41.879 -19.737 -38.693  0.00  0.00    -0.040 C 
BRANCH  20  21
ATOM     21  C   UNL     1      43.395 -19.574 -38.547  0.00  0.00    -0.004 C 
BRANCH  21  22
ATOM     22  N   UNL     1      44.041 -20.864 -38.786  0.00  0.00    -0.311 N 
ATOM     23  H   UNL     1      43.325 -21.588 -38.720  0.00  0.00    +0.000 HD
ATOM     24  H   UNL     1      44.776 -20.936 -38.082  0.00  0.00    +0.000 HD
BRANCH  22  25
ATOM     25  C   UNL     1      44.720 -21.020 -40.082  0.00  0.00    +0.020 C 
ATOM     26  C   UNL     1      46.010 -21.876 -39.980  0.00  0.00    -0.032 C 
ATOM     27  C   UNL     1      46.737 -21.925 -41.337  0.00  0.00    -0.039 C 
ATOM     28  C   UNL     1      47.122 -20.500 -41.762  0.00  0.00    -0.047 C 
ATOM     29  C   UNL     1      45.861 -19.634 -41.892  0.00  0.00    -0.039 C 
ATOM     30  C   UNL     1      44.926 -20.248 -42.946  0.00  0.00    -0.047 C 
ATOM     31  C   UNL     1      44.531 -21.673 -42.530  0.00  0.00    -0.039 C 
ATOM     32  C   UNL     1      45.798 -22.532 -42.394  0.00  0.00    -0.047 C 
ATOM     33  C   UNL     1      43.802 -21.627 -41.174  0.00  0.00    -0.032 C 
ATOM     34  C   UNL     1      45.134 -19.593 -40.538  0.00  0.00    -0.032 C 
ENDBRANCH  22  25
ENDBRANCH  21  22
ENDBRANCH  20  21
ENDBRANCH  19  20
ENDBRANCH  18  19
ENDBRANCH   1  18
TORSDOF 12
ENDMDL
MODEL 7
REMARK VINA RESULT:    -6.628     16.829     19.432
REMARK INTER + INTRA:         -12.365
REMARK INTER:                  -9.269
REMARK INTRA:                  -3.097
REMARK UNBOUND:                -1.087
REMARK  Name = cpd198.pdb
REMARK  14 active torsions:
REMARK  status: ('A' for Active; 'I' for Inactive)
REMARK    1  A    between atoms: C_1  and  N_2
REMARK    2  A    between atoms: N_2  and  C_3
REMARK    3  A    between atoms: N_2  and  C_4
REMARK    4  A    between atoms: C_7  and  C_8
REMARK    5  A    between atoms: C_8  and  C_9
REMARK    6  A    between atoms: N_11  and  C_12
REMARK    7  A    between atoms: C_12  and  C_13
REMARK    8  A    between atoms: C_13  and  C_14
REMARK    9  A    between atoms: C_14  and  C_15
REMARK   10  A    between atoms: C_15  and  C_16
REMARK   11  A    between atoms: C_16  and  C_17
REMARK   12  A    between atoms: C_17  and  C_18
REMARK   13  A    between atoms: C_18  and  N_19
REMARK   14  A    between atoms: N_19  and  C_20
REMARK                            x       y       z     vdW  Elec       q    Type
REMARK                         _______ _______ _______ _____ _____    ______ ____
ROOT
ATOM      1  C   UNL     1      42.623 -17.816 -37.490  0.00  0.00    -0.052 C 
ENDROOT
BRANCH   1   2
ATOM      2  C   UNL     1      42.684 -18.424 -36.086  0.00  0.00    -0.037 C 
BRANCH   2   3
ATOM      3  C   UNL     1      43.972 -18.102 -35.331  0.00  0.00    +0.012 C 
BRANCH   3   6
ATOM      4  C   UNL     1      45.815 -19.553 -36.133  0.00  0.00    +0.217 C 
ATOM      5  O   UNL     1      45.473 -20.516 -35.454  0.00  0.00    -0.275 OA
ATOM      6  N   UNL     1      45.167 -18.334 -36.115  0.00  0.00    -0.315 N 
ATOM      7  H   UNL     1      45.531 -17.595 -36.655  0.00  0.00    +0.000 HD
BRANCH   4   8
ATOM      8  C   UNL     1      46.980 -19.625 -37.103  0.00  0.00    +0.049 C 
BRANCH   8  12
ATOM      9  C   UNL     1      45.801 -20.579 -41.185  0.00  0.00    +0.029 A 
ATOM     10  C   UNL     1      46.016 -19.254 -40.770  0.00  0.00    -0.040 A 
ATOM     11  C   UNL     1      46.389 -18.943 -39.458  0.00  0.00    -0.056 A 
ATOM     12  C   UNL     1      46.567 -19.956 -38.513  0.00  0.00    -0.039 A 
ATOM     13  C   UNL     1      46.351 -21.280 -38.905  0.00  0.00    -0.056 A 
ATOM     14  C   UNL     1      45.967 -21.582 -40.218  0.00  0.00    -0.040 A 
BRANCH   9  16
ATOM     15  C   UNL     1      44.296 -20.033 -43.046  0.00  0.00    +0.000 C 
ATOM     16  N   UNL     1      45.400 -20.835 -42.511  0.00  0.00    -0.336 N 
ATOM     17  C   UNL     1      45.289 -22.270 -42.800  0.00  0.00    +0.000 C 
ENDBRANCH   9  16
ENDBRANCH   8  12
ENDBRANCH   4   8
ENDBRANCH   3   6
ENDBRANCH   2   3
ENDBRANCH   1   2
BRANCH   1  18
ATOM     18  C   UNL     1      42.108 -18.813 -38.531  0.00  0.00    -0.053 C 
BRANCH  18  19
ATOM     19  C   UNL     1      42.869 -20.137 -38.459  0.00  0.00    -0.052 C 
BRANCH  19  20
ATOM     20  C   UNL     1      42.212 -21.198 -39.345  0.00  0.00    -0.040 C 
BRANCH  20  21
ATOM     21  C   UNL     1      40.753 -21.437 -38.943  0.00  0.00    -0.004 C 
BRANCH  21  22
ATOM     22  N   UNL     1      40.702 -22.486 -37.925  0.00  0.00    -0.311 N 
ATOM     23  H   UNL     1      41.654 -22.825 -37.779  0.00  0.00    +0.000 HD
ATOM     24  H   UNL     1      40.058 -23.188 -38.287  0.00  0.00    +0.000 HD
BRANCH  22  25
ATOM     25  C   UNL     1      40.160 -22.092 -36.614  0.00  0.00    +0.020 C 
ATOM     26  C   UNL     1      39.370 -20.758 -36.673  0.00  0.00    -0.032 C 
ATOM     27  C   UNL     1      38.911 -20.337 -35.264  0.00  0.00    -0.039 C 
ATOM     28  C   UNL     1      40.140 -20.143 -34.364  0.00  0.00    -0.047 C 
ATOM     29  C   UNL     1      40.931 -21.456 -34.269  0.00  0.00    -0.039 C 
ATOM     30  C   UNL     1      40.031 -22.554 -33.680  0.00  0.00    -0.047 C 
ATOM     31  C   UNL     1      38.800 -22.758 -34.575  0.00  0.00    -0.039 C 
ATOM     32  C   UNL     1      38.017 -21.439 -34.671  0.00  0.00    -0.047 C 
ATOM     33  C   UNL     1      39.256 -23.182 -35.984  0.00  0.00    -0.032 C 
ATOM     34  C   UNL     1      41.382 -21.877 -35.677  0.00  0.00    -0.032 C 
ENDBRANCH  22  25
ENDBRANCH  21  22
ENDBRANCH  20  21
ENDBRANCH  19  20
ENDBRANCH  18  19
ENDBRANCH   1  18
TORSDOF 12
ENDMDL
MODEL 8
REMARK VINA RESULT:    -6.589     17.686     20.874
REMARK INTER + INTRA:         -12.299
REMARK INTER:                  -9.718
REMARK INTRA:                  -2.581
REMARK UNBOUND:                -1.087
REMARK  Name = cpd198.pdb
REMARK  14 active torsions:
REMARK  status: ('A' for Active; 'I' for Inactive)
REMARK    1  A    between atoms: C_1  and  N_2
REMARK    2  A    between atoms: N_2  and  C_3
REMARK    3  A    between atoms: N_2  and  C_4
REMARK    4  A    between atoms: C_7  and  C_8
REMARK    5  A    between atoms: C_8  and  C_9
REMARK    6  A    between atoms: N_11  and  C_12
REMARK    7  A    between atoms: C_12  and  C_13
REMARK    8  A    between atoms: C_13  and  C_14
REMARK    9  A    between atoms: C_14  and  C_15
REMARK   10  A    between atoms: C_15  and  C_16
REMARK   11  A    between atoms: C_16  and  C_17
REMARK   12  A    between atoms: C_17  and  C_18
REMARK   13  A    between atoms: C_18  and  N_19
REMARK   14  A    between atoms: N_19  and  C_20
REMARK                            x       y       z     vdW  Elec       q    Type
REMARK                         _______ _______ _______ _____ _____    ______ ____
ROOT
ATOM      1  C   UNL     1      40.512 -21.904 -35.290  0.00  0.00    -0.052 C 
ENDROOT
BRANCH   1   2
ATOM      2  C   UNL     1      40.453 -20.951 -34.092  0.00  0.00    -0.037 C 
BRANCH   2   3
ATOM      3  C   UNL     1      41.709 -20.976 -33.223  0.00  0.00    +0.012 C 
BRANCH   3   6
ATOM      4  C   UNL     1      43.903 -20.100 -33.975  0.00  0.00    +0.217 C 
ATOM      5  O   UNL     1      43.791 -19.042 -33.362  0.00  0.00    -0.275 OA
ATOM      6  N   UNL     1      42.933 -21.081 -33.990  0.00  0.00    -0.315 N 
ATOM      7  H   UNL     1      43.078 -21.883 -34.544  0.00  0.00    +0.000 HD
BRANCH   4   8
ATOM      8  C   UNL     1      45.157 -20.450 -34.755  0.00  0.00    +0.049 C 
BRANCH   8  12
ATOM      9  C   UNL     1      45.976 -17.691 -38.023  0.00  0.00    +0.029 A 
ATOM     10  C   UNL     1      44.679 -17.862 -37.510  0.00  0.00    -0.040 A 
ATOM     11  C   UNL     1      44.411 -18.752 -36.464  0.00  0.00    -0.056 A 
ATOM     12  C   UNL     1      45.441 -19.500 -35.889  0.00  0.00    -0.039 A 
ATOM     13  C   UNL     1      46.736 -19.349 -36.391  0.00  0.00    -0.056 A 
ATOM     14  C   UNL     1      46.994 -18.464 -37.446  0.00  0.00    -0.040 A 
BRANCH   9  16
ATOM     15  C   UNL     1      47.400 -15.982 -39.062  0.00  0.00    +0.000 C 
ATOM     16  N   UNL     1      46.186 -16.802 -39.096  0.00  0.00    -0.336 N 
ATOM     17  C   UNL     1      44.974 -16.058 -39.457  0.00  0.00    +0.000 C 
ENDBRANCH   9  16
ENDBRANCH   8  12
ENDBRANCH   4   8
ENDBRANCH   3   6
ENDBRANCH   2   3
ENDBRANCH   1   2
BRANCH   1  18
ATOM     18  C   UNL     1      39.457 -21.571 -36.346  0.00  0.00    -0.053 C 
BRANCH  18  19
ATOM     19  C   UNL     1      40.013 -20.625 -37.412  0.00  0.00    -0.052 C 
BRANCH  19  20
ATOM     20  C   UNL     1      41.543 -20.652 -37.426  0.00  0.00    -0.040 C 
BRANCH  20  21
ATOM     21  C   UNL     1      42.077 -21.403 -38.650  0.00  0.00    -0.004 C 
BRANCH  21  22
ATOM     22  N   UNL     1      42.294 -20.451 -39.739  0.00  0.00    -0.311 N 
ATOM     23  H   UNL     1      42.219 -19.511 -39.351  0.00  0.00    +0.000 HD
ATOM     24  H   UNL     1      41.588 -20.672 -40.441  0.00  0.00    +0.000 HD
BRANCH  22  25
ATOM     25  C   UNL     1      43.586 -20.547 -40.437  0.00  0.00    +0.020 C 
ATOM     26  C   UNL     1      44.038 -19.193 -41.044  0.00  0.00    -0.032 C 
ATOM     27  C   UNL     1      45.340 -19.366 -41.848  0.00  0.00    -0.039 C 
ATOM     28  C   UNL     1      45.105 -20.365 -42.991  0.00  0.00    -0.047 C 
ATOM     29  C   UNL     1      44.678 -21.724 -42.417  0.00  0.00    -0.039 C 
ATOM     30  C   UNL     1      45.780 -22.257 -41.488  0.00  0.00    -0.047 C 
ATOM     31  C   UNL     1      46.021 -21.266 -40.339  0.00  0.00    -0.039 C 
ATOM     32  C   UNL     1      46.442 -19.906 -40.920  0.00  0.00    -0.047 C 
ATOM     33  C   UNL     1      44.721 -21.093 -39.532  0.00  0.00    -0.032 C 
ATOM     34  C   UNL     1      43.382 -21.546 -41.610  0.00  0.00    -0.032 C 
ENDBRANCH  22  25
ENDBRANCH  21  22
ENDBRANCH  20  21
ENDBRANCH  19  20
ENDBRANCH  18  19
ENDBRANCH   1  18
TORSDOF 12
ENDMDL
MODEL 9
REMARK VINA RESULT:    -6.465     18.240     20.928
REMARK INTER + INTRA:         -12.087
REMARK INTER:                  -9.451
REMARK INTRA:                  -2.636
REMARK UNBOUND:                -1.087
REMARK  Name = cpd198.pdb
REMARK  14 active torsions:
REMARK  status: ('A' for Active; 'I' for Inactive)
REMARK    1  A    between atoms: C_1  and  N_2
REMARK    2  A    between atoms: N_2  and  C_3
REMARK    3  A    between atoms: N_2  and  C_4
REMARK    4  A    between atoms: C_7  and  C_8
REMARK    5  A    between atoms: C_8  and  C_9
REMARK    6  A    between atoms: N_11  and  C_12
REMARK    7  A    between atoms: C_12  and  C_13
REMARK    8  A    between atoms: C_13  and  C_14
REMARK    9  A    between atoms: C_14  and  C_15
REMARK   10  A    between atoms: C_15  and  C_16
REMARK   11  A    between atoms: C_16  and  C_17
REMARK   12  A    between atoms: C_17  and  C_18
REMARK   13  A    between atoms: C_18  and  N_19
REMARK   14  A    between atoms: N_19  and  C_20
REMARK                            x       y       z     vdW  Elec       q    Type
REMARK                         _______ _______ _______ _____ _____    ______ ____
ROOT
ATOM      1  C   UNL     1      46.354 -17.037 -35.381  0.00  0.00    -0.052 C 
ENDROOT
BRANCH   1   2
ATOM      2  C   UNL     1      46.752 -16.148 -36.564  0.00  0.00    -0.037 C 
BRANCH   2   3
ATOM      3  C   UNL     1      45.564 -15.504 -37.276  0.00  0.00    +0.012 C 
BRANCH   3   6
ATOM      4  C   UNL     1      45.000 -16.486 -39.481  0.00  0.00    +0.217 C 
ATOM      5  O   UNL     1      45.737 -15.730 -40.107  0.00  0.00    -0.275 OA
ATOM      6  N   UNL     1      44.829 -16.430 -38.113  0.00  0.00    -0.315 N 
ATOM      7  H   UNL     1      44.184 -17.042 -37.690  0.00  0.00    +0.000 HD
BRANCH   4   8
ATOM      8  C   UNL     1      44.222 -17.598 -40.161  0.00  0.00    +0.049 C 
BRANCH   8  12
ATOM      9  C   UNL     1      46.709 -20.973 -41.339  0.00  0.00    +0.029 A 
ATOM     10  C   UNL     1      45.678 -20.494 -42.164  0.00  0.00    -0.040 A 
ATOM     11  C   UNL     1      44.872 -19.414 -41.786  0.00  0.00    -0.056 A 
ATOM     12  C   UNL     1      45.080 -18.769 -40.564  0.00  0.00    -0.039 A 
ATOM     13  C   UNL     1      46.096 -19.236 -39.728  0.00  0.00    -0.056 A 
ATOM     14  C   UNL     1      46.891 -20.325 -40.108  0.00  0.00    -0.040 A 
BRANCH   9  16
ATOM     15  C   UNL     1      46.773 -23.143 -42.486  0.00  0.00    +0.000 C 
ATOM     16  N   UNL     1      47.472 -22.082 -41.755  0.00  0.00    -0.336 N 
ATOM     17  C   UNL     1      48.371 -22.574 -40.705  0.00  0.00    +0.000 C 
ENDBRANCH   9  16
ENDBRANCH   8  12
ENDBRANCH   4   8
ENDBRANCH   3   6
ENDBRANCH   2   3
ENDBRANCH   1   2
BRANCH   1  18
ATOM     18  C   UNL     1      47.360 -18.165 -35.142  0.00  0.00    -0.053 C 
BRANCH  18  19
ATOM     19  C   UNL     1      46.677 -19.533 -35.153  0.00  0.00    -0.052 C 
BRANCH  19  20
ATOM     20  C   UNL     1      45.168 -19.392 -35.366  0.00  0.00    -0.040 C 
BRANCH  20  21
ATOM     21  C   UNL     1      44.643 -20.437 -36.356  0.00  0.00    -0.004 C 
BRANCH  21  22
ATOM     22  N   UNL     1      43.297 -20.844 -35.955  0.00  0.00    -0.311 N 
ATOM     23  H   UNL     1      42.953 -20.160 -35.281  0.00  0.00    +0.000 HD
ATOM     24  H   UNL     1      43.396 -21.788 -35.581  0.00  0.00    +0.000 HD
BRANCH  22  25
ATOM     25  C   UNL     1      42.302 -20.951 -37.034  0.00  0.00    +0.020 C 
ATOM     26  C   UNL     1      41.386 -22.193 -36.880  0.00  0.00    -0.032 C 
ATOM     27  C   UNL     1      40.432 -22.317 -38.083  0.00  0.00    -0.039 C 
ATOM     28  C   UNL     1      41.255 -22.468 -39.372  0.00  0.00    -0.047 C 
ATOM     29  C   UNL     1      42.157 -21.241 -39.563  0.00  0.00    -0.039 C 
ATOM     30  C   UNL     1      41.289 -19.976 -39.654  0.00  0.00    -0.047 C 
ATOM     31  C   UNL     1      40.464 -19.813 -38.369  0.00  0.00    -0.039 C 
ATOM     32  C   UNL     1      39.568 -21.048 -38.180  0.00  0.00    -0.047 C 
ATOM     33  C   UNL     1      41.415 -19.686 -37.164  0.00  0.00    -0.032 C 
ATOM     34  C   UNL     1      43.102 -21.116 -38.357  0.00  0.00    -0.032 C 
ENDBRANCH  22  25
ENDBRANCH  21  22
ENDBRANCH  20  21
ENDBRANCH  19  20
ENDBRANCH  18  19
ENDBRANCH   1  18
TORSDOF 12
ENDMDL
MODEL 10
REMARK VINA RESULT:    -6.400     19.863     23.382
REMARK INTER + INTRA:         -11.976
REMARK INTER:                  -8.988
REMARK INTRA:                  -2.988
REMARK UNBOUND:                -1.087
REMARK  Name = cpd198.pdb
REMARK  14 active torsions:
REMARK  status: ('A' for Active; 'I' for Inactive)
REMARK    1  A    between atoms: C_1  and  N_2
REMARK    2  A    between atoms: N_2  and  C_3
REMARK    3  A    between atoms: N_2  and  C_4
REMARK    4  A    between atoms: C_7  and  C_8
REMARK    5  A    between atoms: C_8  and  C_9
REMARK    6  A    between atoms: N_11  and  C_12
REMARK    7  A    between atoms: C_12  and  C_13
REMARK    8  A    between atoms: C_13  and  C_14
REMARK    9  A    between atoms: C_14  and  C_15
REMARK   10  A    between atoms: C_15  and  C_16
REMARK   11  A    between atoms: C_16  and  C_17
REMARK   12  A    between atoms: C_17  and  C_18
REMARK   13  A    between atoms: C_18  and  N_19
REMARK   14  A    between atoms: N_19  and  C_20
REMARK                            x       y       z     vdW  Elec       q    Type
REMARK                         _______ _______ _______ _____ _____    ______ ____
ROOT
ATOM      1  C   UNL     1      46.296 -16.534 -38.007  0.00  0.00    -0.052 C 
ENDROOT
BRANCH   1   2
ATOM      2  C   UNL     1      47.223 -15.327 -37.831  0.00  0.00    -0.037 C 
BRANCH   2   3
ATOM      3  C   UNL     1      46.858 -14.136 -38.715  0.00  0.00    +0.012 C 
BRANCH   3   6
ATOM      4  C   UNL     1      45.637 -14.592 -40.823  0.00  0.00    +0.217 C 
ATOM      5  O   UNL     1      46.653 -14.618 -41.511  0.00  0.00    -0.275 OA
ATOM      6  N   UNL     1      45.637 -14.336 -39.467  0.00  0.00    -0.315 N 
ATOM      7  H   UNL     1      44.775 -14.287 -38.994  0.00  0.00    +0.000 HD
BRANCH   4   8
ATOM      8  C   UNL     1      44.265 -14.883 -41.403  0.00  0.00    +0.049 C 
BRANCH   8  12
ATOM      9  C   UNL     1      42.169 -18.127 -39.392  0.00  0.00    +0.029 A 
ATOM     10  C   UNL     1      41.723 -16.798 -39.309  0.00  0.00    -0.040 A 
ATOM     11  C   UNL     1      42.397 -15.752 -39.948  0.00  0.00    -0.056 A 
ATOM     12  C   UNL     1      43.545 -16.005 -40.704  0.00  0.00    -0.039 A 
ATOM     13  C   UNL     1      44.007 -17.321 -40.792  0.00  0.00    -0.056 A 
ATOM     14  C   UNL     1      43.333 -18.361 -40.139  0.00  0.00    -0.040 A 
BRANCH   9  16
ATOM     15  C   UNL     1      42.149 -20.424 -38.524  0.00  0.00    +0.000 C 
ATOM     16  N   UNL     1      41.468 -19.139 -38.706  0.00  0.00    -0.336 N 
ATOM     17  C   UNL     1      40.075 -19.260 -39.149  0.00  0.00    +0.000 C 
ENDBRANCH   9  16
ENDBRANCH   8  12
ENDBRANCH   4   8
ENDBRANCH   3   6
ENDBRANCH   2   3
ENDBRANCH   1   2
BRANCH   1  18
ATOM     18  C   UNL     1      45.688 -16.994 -36.680  0.00  0.00    -0.053 C 
BRANCH  18  19
ATOM     19  C   UNL     1      45.063 -18.384 -36.806  0.00  0.00    -0.052 C 
BRANCH  19  20
ATOM     20  C   UNL     1      46.012 -19.464 -36.279  0.00  0.00    -0.040 C 
BRANCH  20  21
ATOM     21  C   UNL     1      46.811 -20.108 -37.417  0.00  0.00    -0.004 C 
BRANCH  21  22
ATOM     22  N   UNL     1      45.897 -20.859 -38.278  0.00  0.00    -0.311 N 
ATOM     23  H   UNL     1      45.003 -20.368 -38.287  0.00  0.00    +0.000 HD
ATOM     24  H   UNL     1      45.856 -21.798 -37.881  0.00  0.00    +0.000 HD
BRANCH  22  25
ATOM     25  C   UNL     1      46.325 -21.040 -39.675  0.00  0.00    +0.020 C 
ATOM     26  C   UNL     1      46.682 -19.699 -40.367  0.00  0.00    -0.032 C 
ATOM     27  C   UNL     1      47.025 -19.929 -41.851  0.00  0.00    -0.039 C 
ATOM     28  C   UNL     1      45.812 -20.544 -42.565  0.00  0.00    -0.047 C 
ATOM     29  C   UNL     1      45.448 -21.886 -41.914  0.00  0.00    -0.039 C 
ATOM     30  C   UNL     1      46.644 -22.846 -42.015  0.00  0.00    -0.047 C 
ATOM     31  C   UNL     1      47.862 -22.242 -41.302  0.00  0.00    -0.039 C 
ATOM     32  C   UNL     1      48.217 -20.895 -41.953  0.00  0.00    -0.047 C 
ATOM     33  C   UNL     1      47.524 -22.013 -39.817  0.00  0.00    -0.032 C 
ATOM     34  C   UNL     1      45.113 -21.654 -40.431  0.00  0.00    -0.032 C 
ENDBRANCH  22  25
ENDBRANCH  21  22
ENDBRANCH  20  21
ENDBRANCH  19  20
ENDBRANCH  18  19
ENDBRANCH   1  18
TORSDOF 12
ENDMDL
MODEL 11
REMARK VINA RESULT:    -6.324     16.767     20.474
REMARK INTER + INTRA:         -11.848
REMARK INTER:                  -9.043
REMARK INTRA:                  -2.805
REMARK UNBOUND:                -1.087
REMARK  Name = cpd198.pdb
REMARK  14 active torsions:
REMARK  status: ('A' for Active; 'I' for Inactive)
REMARK    1  A    between atoms: C_1  and  N_2
REMARK    2  A    between atoms: N_2  and  C_3
REMARK    3  A    between atoms: N_2  and  C_4
REMARK    4  A    between atoms: C_7  and  C_8
REMARK    5  A    between atoms: C_8  and  C_9
REMARK    6  A    between atoms: N_11  and  C_12
REMARK    7  A    between atoms: C_12  and  C_13
REMARK    8  A    between atoms: C_13  and  C_14
REMARK    9  A    between atoms: C_14  and  C_15
REMARK   10  A    between atoms: C_15  and  C_16
REMARK   11  A    between atoms: C_16  and  C_17
REMARK   12  A    between atoms: C_17  and  C_18
REMARK   13  A    between atoms: C_18  and  N_19
REMARK   14  A    between atoms: N_19  and  C_20
REMARK                            x       y       z     vdW  Elec       q    Type
REMARK                         _______ _______ _______ _____ _____    ______ ____
ROOT
ATOM      1  C   UNL     1      39.216 -23.006 -34.696  0.00  0.00    -0.052 C 
ENDROOT
BRANCH   1   2
ATOM      2  C   UNL     1      39.161 -23.036 -36.227  0.00  0.00    -0.037 C 
BRANCH   2   3
ATOM      3  C   UNL     1      39.302 -21.659 -36.875  0.00  0.00    +0.012 C 
BRANCH   3   6
ATOM      4  C   UNL     1      41.510 -21.887 -37.978  0.00  0.00    +0.217 C 
ATOM      5  O   UNL     1      42.121 -22.040 -36.925  0.00  0.00    -0.275 OA
ATOM      6  N   UNL     1      40.149 -21.665 -38.049  0.00  0.00    -0.315 N 
ATOM      7  H   UNL     1      39.740 -21.506 -38.930  0.00  0.00    +0.000 HD
BRANCH   4   8
ATOM      8  C   UNL     1      42.199 -21.965 -39.328  0.00  0.00    +0.049 C 
BRANCH   8  12
ATOM      9  C   UNL     1      44.711 -18.519 -40.212  0.00  0.00    +0.029 A 
ATOM     10  C   UNL     1      45.238 -19.820 -40.152  0.00  0.00    -0.040 A 
ATOM     11  C   UNL     1      44.436 -20.929 -39.862  0.00  0.00    -0.056 A 
ATOM     12  C   UNL     1      43.067 -20.772 -39.628  0.00  0.00    -0.039 A 
ATOM     13  C   UNL     1      42.526 -19.484 -39.677  0.00  0.00    -0.056 A 
ATOM     14  C   UNL     1      43.339 -18.378 -39.957  0.00  0.00    -0.040 A 
BRANCH   9  16
ATOM     15  C   UNL     1      47.007 -17.710 -40.529  0.00  0.00    +0.000 C 
ATOM     16  N   UNL     1      45.569 -17.434 -40.481  0.00  0.00    -0.336 N 
ATOM     17  C   UNL     1      45.217 -16.234 -39.712  0.00  0.00    +0.000 C 
ENDBRANCH   9  16
ENDBRANCH   8  12
ENDBRANCH   4   8
ENDBRANCH   3   6
ENDBRANCH   2   3
ENDBRANCH   1   2
BRANCH   1  18
ATOM     18  C   UNL     1      39.136 -21.581 -34.142  0.00  0.00    -0.053 C 
BRANCH  18  19
ATOM     19  C   UNL     1      39.948 -21.437 -32.854  0.00  0.00    -0.052 C 
BRANCH  19  20
ATOM     20  C   UNL     1      41.445 -21.596 -33.128  0.00  0.00    -0.040 C 
BRANCH  20  21
ATOM     21  C   UNL     1      41.988 -20.429 -33.959  0.00  0.00    -0.004 C 
BRANCH  21  22
ATOM     22  N   UNL     1      43.258 -20.826 -34.569  0.00  0.00    -0.311 N 
ATOM     23  H   UNL     1      43.048 -21.288 -35.453  0.00  0.00    +0.000 HD
ATOM     24  H   UNL     1      43.716 -21.424 -33.881  0.00  0.00    +0.000 HD
BRANCH  22  25
ATOM     25  C   UNL     1      44.212 -19.740 -34.844  0.00  0.00    +0.020 C 
ATOM     26  C   UNL     1      44.255 -18.683 -33.710  0.00  0.00    -0.032 C 
ATOM     27  C   UNL     1      45.189 -17.518 -34.089  0.00  0.00    -0.039 C 
ATOM     28  C   UNL     1      44.672 -16.846 -35.370  0.00  0.00    -0.047 C 
ATOM     29  C   UNL     1      44.640 -17.865 -36.518  0.00  0.00    -0.039 C 
ATOM     30  C   UNL     1      46.056 -18.410 -36.760  0.00  0.00    -0.047 C 
ATOM     31  C   UNL     1      46.582 -19.087 -35.486  0.00  0.00    -0.039 C 
ATOM     32  C   UNL     1      46.606 -18.064 -34.339  0.00  0.00    -0.047 C 
ATOM     33  C   UNL     1      45.651 -20.254 -35.105  0.00  0.00    -0.032 C 
ATOM     34  C   UNL     1      43.712 -19.030 -36.134  0.00  0.00    -0.032 C 
ENDBRANCH  22  25
ENDBRANCH  21  22
ENDBRANCH  20  21
ENDBRANCH  19  20
ENDBRANCH  18  19
ENDBRANCH   1  18
TORSDOF 12
ENDMDL
MODEL 12
REMARK VINA RESULT:    -6.302     16.626     19.441
REMARK INTER + INTRA:         -11.811
REMARK INTER:                  -8.952
REMARK INTRA:                  -2.858
REMARK UNBOUND:                -1.087
REMARK  Name = cpd198.pdb
REMARK  14 active torsions:
REMARK  status: ('A' for Active; 'I' for Inactive)
REMARK    1  A    between atoms: C_1  and  N_2
REMARK    2  A    between atoms: N_2  and  C_3
REMARK    3  A    between atoms: N_2  and  C_4
REMARK    4  A    between atoms: C_7  and  C_8
REMARK    5  A    between atoms: C_8  and  C_9
REMARK    6  A    between atoms: N_11  and  C_12
REMARK    7  A    between atoms: C_12  and  C_13
REMARK    8  A    between atoms: C_13  and  C_14
REMARK    9  A    between atoms: C_14  and  C_15
REMARK   10  A    between atoms: C_15  and  C_16
REMARK   11  A    between atoms: C_16  and  C_17
REMARK   12  A    between atoms: C_17  and  C_18
REMARK   13  A    between atoms: C_18  and  N_19
REMARK   14  A    between atoms: N_19  and  C_20
REMARK                            x       y       z     vdW  Elec       q    Type
REMARK                         _______ _______ _______ _____ _____    ______ ____
ROOT
ATOM      1  C   UNL     1      42.811 -18.481 -34.338  0.00  0.00    -0.052 C 
ENDROOT
BRANCH   1   2
ATOM      2  C   UNL     1      44.125 -18.863 -33.650  0.00  0.00    -0.037 C 
BRANCH   2   3
ATOM      3  C   UNL     1      45.101 -17.697 -33.495  0.00  0.00    +0.012 C 
BRANCH   3   6
ATOM      4  C   UNL     1      46.878 -18.137 -35.165  0.00  0.00    +0.217 C 
ATOM      5  O   UNL     1      47.343 -19.093 -34.552  0.00  0.00    -0.275 OA
ATOM      6  N   UNL     1      45.813 -17.382 -34.715  0.00  0.00    -0.315 N 
ATOM      7  H   UNL     1      45.528 -16.602 -35.243  0.00  0.00    +0.000 HD
BRANCH   4   8
ATOM      8  C   UNL     1      47.416 -17.710 -36.519  0.00  0.00    +0.049 C 
BRANCH   8  12
ATOM      9  C   UNL     1      45.676 -19.895 -39.860  0.00  0.00    +0.029 A 
ATOM     10  C   UNL     1      45.285 -18.581 -39.554  0.00  0.00    -0.040 A 
ATOM     11  C   UNL     1      45.837 -17.877 -38.478  0.00  0.00    -0.056 A 
ATOM     12  C   UNL     1      46.811 -18.469 -37.670  0.00  0.00    -0.039 A 
ATOM     13  C   UNL     1      47.208 -19.779 -37.955  0.00  0.00    -0.056 A 
ATOM     14  C   UNL     1      46.642 -20.480 -39.028  0.00  0.00    -0.040 A 
BRANCH   9  16
ATOM     15  C   UNL     1      45.235 -19.987 -42.273  0.00  0.00    +0.000 C 
ATOM     16  N   UNL     1      45.067 -20.567 -40.938  0.00  0.00    -0.336 N 
ATOM     17  C   UNL     1      43.693 -20.986 -40.638  0.00  0.00    +0.000 C 
ENDBRANCH   9  16
ENDBRANCH   8  12
ENDBRANCH   4   8
ENDBRANCH   3   6
ENDBRANCH   2   3
ENDBRANCH   1   2
BRANCH   1  18
ATOM     18  C   UNL     1      42.821 -18.818 -35.831  0.00  0.00    -0.053 C 
BRANCH  18  19
ATOM     19  C   UNL     1      43.749 -19.996 -36.130  0.00  0.00    -0.052 C 
BRANCH  19  20
ATOM     20  C   UNL     1      43.081 -20.995 -37.079  0.00  0.00    -0.040 C 
BRANCH  20  21
ATOM     21  C   UNL     1      41.584 -20.708 -37.229  0.00  0.00    -0.004 C 
BRANCH  21  22
ATOM     22  N   UNL     1      40.825 -21.861 -36.744  0.00  0.00    -0.311 N 
ATOM     23  H   UNL     1      41.472 -22.644 -36.651  0.00  0.00    +0.000 HD
ATOM     24  H   UNL     1      40.084 -22.008 -37.429  0.00  0.00    +0.000 HD
BRANCH  22  25
ATOM     25  C   UNL     1      40.139 -21.689 -35.453  0.00  0.00    +0.020 C 
ATOM     26  C   UNL     1      41.106 -21.799 -34.245  0.00  0.00    -0.032 C 
ATOM     27  C   UNL     1      40.329 -21.715 -32.918  0.00  0.00    -0.039 C 
ATOM     28  C   UNL     1      39.317 -22.868 -32.846  0.00  0.00    -0.047 C 
ATOM     29  C   UNL     1      38.331 -22.773 -34.019  0.00  0.00    -0.039 C 
ATOM     30  C   UNL     1      37.585 -21.431 -33.952  0.00  0.00    -0.047 C 
ATOM     31  C   UNL     1      38.588 -20.270 -34.027  0.00  0.00    -0.039 C 
ATOM     32  C   UNL     1      39.576 -20.375 -32.855  0.00  0.00    -0.047 C 
ATOM     33  C   UNL     1      39.365 -20.350 -35.355  0.00  0.00    -0.032 C 
ATOM     34  C   UNL     1      39.111 -22.850 -35.342  0.00  0.00    -0.032 C 
ENDBRANCH  22  25
ENDBRANCH  21  22
ENDBRANCH  20  21
ENDBRANCH  19  20
ENDBRANCH  18  19
ENDBRANCH   1  18
TORSDOF 12
ENDMDL
MODEL 13
REMARK VINA RESULT:    -6.292     16.732     20.096
REMARK INTER + INTRA:         -11.794
REMARK INTER:                  -8.601
REMARK INTRA:                  -3.193
REMARK UNBOUND:                -1.087
REMARK  Name = cpd198.pdb
REMARK  14 active torsions:
REMARK  status: ('A' for Active; 'I' for Inactive)
REMARK    1  A    between atoms: C_1  and  N_2
REMARK    2  A    between atoms: N_2  and  C_3
REMARK    3  A    between atoms: N_2  and  C_4
REMARK    4  A    between atoms: C_7  and  C_8
REMARK    5  A    between atoms: C_8  and  C_9
REMARK    6  A    between atoms: N_11  and  C_12
REMARK    7  A    between atoms: C_12  and  C_13
REMARK    8  A    between atoms: C_13  and  C_14
REMARK    9  A    between atoms: C_14  and  C_15
REMARK   10  A    between atoms: C_15  and  C_16
REMARK   11  A    between atoms: C_16  and  C_17
REMARK   12  A    between atoms: C_17  and  C_18
REMARK   13  A    between atoms: C_18  and  N_19
REMARK   14  A    between atoms: N_19  and  C_20
REMARK                            x       y       z     vdW  Elec       q    Type
REMARK                         _______ _______ _______ _____ _____    ______ ____
ROOT
ATOM      1  C   UNL     1      46.582 -19.415 -37.364  0.00  0.00    -0.052 C 
ENDROOT
BRANCH   1   2
ATOM      2  C   UNL     1      45.840 -19.852 -36.096  0.00  0.00    -0.037 C 
BRANCH   2   3
ATOM      3  C   UNL     1      46.260 -19.087 -34.842  0.00  0.00    +0.012 C 
BRANCH   3   6
ATOM      4  C   UNL     1      44.109 -18.411 -33.814  0.00  0.00    +0.217 C 
ATOM      5  O   UNL     1      43.831 -17.614 -34.704  0.00  0.00    -0.275 OA
ATOM      6  N   UNL     1      45.277 -19.146 -33.781  0.00  0.00    -0.315 N 
ATOM      7  H   UNL     1      45.447 -19.732 -33.008  0.00  0.00    +0.000 HD
BRANCH   4   8
ATOM      8  C   UNL     1      43.160 -18.698 -32.664  0.00  0.00    +0.049 C 
BRANCH   8  12
ATOM      9  C   UNL     1      39.643 -20.985 -33.832  0.00  0.00    +0.029 A 
ATOM     10  C   UNL     1      40.875 -21.608 -33.574  0.00  0.00    -0.040 A 
ATOM     11  C   UNL     1      42.009 -20.876 -33.204  0.00  0.00    -0.056 A 
ATOM     12  C   UNL     1      41.944 -19.486 -33.074  0.00  0.00    -0.039 A 
ATOM     13  C   UNL     1      40.728 -18.849 -33.334  0.00  0.00    -0.056 A 
ATOM     14  C   UNL     1      39.600 -19.588 -33.714  0.00  0.00    -0.040 A 
BRANCH   9  16
ATOM     15  C   UNL     1      37.266 -21.527 -33.544  0.00  0.00    +0.000 C 
ATOM     16  N   UNL     1      38.539 -21.767 -34.228  0.00  0.00    -0.336 N 
ATOM     17  C   UNL     1      38.879 -23.187 -34.375  0.00  0.00    +0.000 C 
ENDBRANCH   9  16
ENDBRANCH   8  12
ENDBRANCH   4   8
ENDBRANCH   3   6
ENDBRANCH   2   3
ENDBRANCH   1   2
BRANCH   1  18
ATOM     18  C   UNL     1      45.669 -18.669 -38.339  0.00  0.00    -0.053 C 
BRANCH  18  19
ATOM     19  C   UNL     1      46.232 -18.693 -39.760  0.00  0.00    -0.052 C 
BRANCH  19  20
ATOM     20  C   UNL     1      45.160 -19.108 -40.770  0.00  0.00    -0.040 C 
BRANCH  20  21
ATOM     21  C   UNL     1      44.677 -20.540 -40.515  0.00  0.00    -0.004 C 
BRANCH  21  22
ATOM     22  N   UNL     1      43.229 -20.599 -40.711  0.00  0.00    -0.311 N 
ATOM     23  H   UNL     1      43.027 -21.405 -41.303  0.00  0.00    +0.000 HD
ATOM     24  H   UNL     1      42.971 -19.702 -41.122  0.00  0.00    +0.000 HD
BRANCH  22  25
ATOM     25  C   UNL     1      42.414 -20.722 -39.492  0.00  0.00    +0.020 C 
ATOM     26  C   UNL     1      41.187 -21.652 -39.687  0.00  0.00    -0.032 C 
ATOM     27  C   UNL     1      40.312 -21.668 -38.419  0.00  0.00    -0.039 C 
ATOM     28  C   UNL     1      39.812 -20.246 -38.126  0.00  0.00    -0.047 C 
ATOM     29  C   UNL     1      41.006 -19.307 -37.906  0.00  0.00    -0.039 C 
ATOM     30  C   UNL     1      41.843 -19.811 -36.720  0.00  0.00    -0.047 C 
ATOM     31  C   UNL     1      42.351 -21.232 -37.004  0.00  0.00    -0.039 C 
ATOM     32  C   UNL     1      41.151 -22.166 -37.230  0.00  0.00    -0.047 C 
ATOM     33  C   UNL     1      43.229 -21.219 -38.270  0.00  0.00    -0.032 C 
ATOM     34  C   UNL     1      41.881 -19.298 -39.170  0.00  0.00    -0.032 C 
ENDBRANCH  22  25
ENDBRANCH  21  22
ENDBRANCH  20  21
ENDBRANCH  19  20
ENDBRANCH  18  19
ENDBRANCH   1  18
TORSDOF 12
ENDMDL
MODEL 14
REMARK VINA RESULT:    -6.254     16.664     20.989
REMARK INTER + INTRA:         -11.728
REMARK INTER:                 -10.051
REMARK INTRA:                  -1.677
REMARK UNBOUND:                -1.087
REMARK  Name = cpd198.pdb
REMARK  14 active torsions:
REMARK  status: ('A' for Active; 'I' for Inactive)
REMARK    1  A    between atoms: C_1  and  N_2
REMARK    2  A    between atoms: N_2  and  C_3
REMARK    3  A    between atoms: N_2  and  C_4
REMARK    4  A    between atoms: C_7  and  C_8
REMARK    5  A    between atoms: C_8  and  C_9
REMARK    6  A    between atoms: N_11  and  C_12
REMARK    7  A    between atoms: C_12  and  C_13
REMARK    8  A    between atoms: C_13  and  C_14
REMARK    9  A    between atoms: C_14  and  C_15
REMARK   10  A    between atoms: C_15  and  C_16
REMARK   11  A    between atoms: C_16  and  C_17
REMARK   12  A    between atoms: C_17  and  C_18
REMARK   13  A    between atoms: C_18  and  N_19
REMARK   14  A    between atoms: N_19  and  C_20
REMARK                            x       y       z     vdW  Elec       q    Type
REMARK                         _______ _______ _______ _____ _____    ______ ____
ROOT
ATOM      1  C   UNL     1      39.411 -20.344 -36.618  0.00  0.00    -0.052 C 
ENDROOT
BRANCH   1   2
ATOM      2  C   UNL     1      39.453 -21.674 -37.376  0.00  0.00    -0.037 C 
BRANCH   2   3
ATOM      3  C   UNL     1      38.935 -22.861 -36.565  0.00  0.00    +0.012 C 
BRANCH   3   6
ATOM      4  C   UNL     1      39.683 -22.778 -34.204  0.00  0.00    +0.217 C 
ATOM      5  O   UNL     1      40.765 -23.310 -34.435  0.00  0.00    -0.275 OA
ATOM      6  N   UNL     1      38.722 -22.549 -35.167  0.00  0.00    -0.315 N 
ATOM      7  H   UNL     1      37.860 -22.159 -34.894  0.00  0.00    +0.000 HD
BRANCH   4   8
ATOM      8  C   UNL     1      39.310 -22.280 -32.820  0.00  0.00    +0.049 C 
BRANCH   8  12
ATOM      9  C   UNL     1      37.616 -18.268 -32.805  0.00  0.00    +0.029 A 
ATOM     10  C   UNL     1      36.803 -19.412 -32.741  0.00  0.00    -0.040 A 
ATOM     11  C   UNL     1      37.343 -20.703 -32.751  0.00  0.00    -0.056 A 
ATOM     12  C   UNL     1      38.726 -20.892 -32.821  0.00  0.00    -0.039 A 
ATOM     13  C   UNL     1      39.549 -19.765 -32.893  0.00  0.00    -0.056 A 
ATOM     14  C   UNL     1      39.000 -18.477 -32.893  0.00  0.00    -0.040 A 
BRANCH   9  16
ATOM     15  C   UNL     1      36.536 -16.461 -31.542  0.00  0.00    +0.000 C 
ATOM     16  N   UNL     1      37.018 -16.992 -32.820  0.00  0.00    -0.336 N 
ATOM     17  C   UNL     1      36.073 -16.825 -33.930  0.00  0.00    +0.000 C 
ENDBRANCH   9  16
ENDBRANCH   8  12
ENDBRANCH   4   8
ENDBRANCH   3   6
ENDBRANCH   2   3
ENDBRANCH   1   2
BRANCH   1  18
ATOM     18  C   UNL     1      40.667 -19.503 -36.855  0.00  0.00    -0.053 C 
BRANCH  18  19
ATOM     19  C   UNL     1      41.777 -19.868 -35.868  0.00  0.00    -0.052 C 
BRANCH  19  20
ATOM     20  C   UNL     1      42.818 -20.779 -36.523  0.00  0.00    -0.040 C 
BRANCH  20  21
ATOM     21  C   UNL     1      42.930 -20.508 -38.027  0.00  0.00    -0.004 C 
BRANCH  21  22
ATOM     22  N   UNL     1      44.319 -20.698 -38.446  0.00  0.00    -0.311 N 
ATOM     23  H   UNL     1      44.610 -21.629 -38.147  0.00  0.00    +0.000 HD
ATOM     24  H   UNL     1      44.841 -19.936 -38.012  0.00  0.00    +0.000 HD
BRANCH  22  25
ATOM     25  C   UNL     1      44.582 -20.586 -39.889  0.00  0.00    +0.020 C 
ATOM     26  C   UNL     1      43.354 -20.979 -40.751  0.00  0.00    -0.032 C 
ATOM     27  C   UNL     1      43.709 -20.944 -42.250  0.00  0.00    -0.039 C 
ATOM     28  C   UNL     1      44.846 -21.938 -42.528  0.00  0.00    -0.047 C 
ATOM     29  C   UNL     1      46.085 -21.560 -41.703  0.00  0.00    -0.039 C 
ATOM     30  C   UNL     1      46.539 -20.142 -42.083  0.00  0.00    -0.047 C 
ATOM     31  C   UNL     1      45.410 -19.138 -41.806  0.00  0.00    -0.039 C 
ATOM     32  C   UNL     1      44.171 -19.526 -42.628  0.00  0.00    -0.047 C 
ATOM     33  C   UNL     1      45.055 -19.169 -40.307  0.00  0.00    -0.032 C 
ATOM     34  C   UNL     1      45.725 -21.589 -40.209  0.00  0.00    -0.032 C 
ENDBRANCH  22  25
ENDBRANCH  21  22
ENDBRANCH  20  21
ENDBRANCH  19  20
ENDBRANCH  18  19
ENDBRANCH   1  18
TORSDOF 12
ENDMDL
MODEL 15
REMARK VINA RESULT:    -6.215     16.982     19.736
REMARK INTER + INTRA:         -11.662
REMARK INTER:                  -8.519
REMARK INTRA:                  -3.143
REMARK UNBOUND:                -1.087
REMARK  Name = cpd198.pdb
REMARK  14 active torsions:
REMARK  status: ('A' for Active; 'I' for Inactive)
REMARK    1  A    between atoms: C_1  and  N_2
REMARK    2  A    between atoms: N_2  and  C_3
REMARK    3  A    between atoms: N_2  and  C_4
REMARK    4  A    between atoms: C_7  and  C_8
REMARK    5  A    between atoms: C_8  and  C_9
REMARK    6  A    between atoms: N_11  and  C_12
REMARK    7  A    between atoms: C_12  and  C_13
REMARK    8  A    between atoms: C_13  and  C_14
REMARK    9  A    between atoms: C_14  and  C_15
REMARK   10  A    between atoms: C_15  and  C_16
REMARK   11  A    between atoms: C_16  and  C_17
REMARK   12  A    between atoms: C_17  and  C_18
REMARK   13  A    between atoms: C_18  and  N_19
REMARK   14  A    between atoms: N_19  and  C_20
REMARK                            x       y       z     vdW  Elec       q    Type
REMARK                         _______ _______ _______ _____ _____    ______ ____
ROOT
ATOM      1  C   UNL     1      42.651 -16.474 -35.918  0.00  0.00    -0.052 C 
ENDROOT
BRANCH   1   2
ATOM      2  C   UNL     1      42.576 -16.831 -34.429  0.00  0.00    -0.037 C 
BRANCH   2   3
ATOM      3  C   UNL     1      43.793 -16.377 -33.625  0.00  0.00    +0.012 C 
BRANCH   3   6
ATOM      4  C   UNL     1      45.688 -17.890 -34.139  0.00  0.00    +0.217 C 
ATOM      5  O   UNL     1      45.278 -18.794 -33.418  0.00  0.00    -0.275 OA
ATOM      6  N   UNL     1      45.052 -16.673 -34.278  0.00  0.00    -0.315 N 
ATOM      7  H   UNL     1      45.468 -15.981 -34.841  0.00  0.00    +0.000 HD
BRANCH   4   8
ATOM      8  C   UNL     1      46.935 -18.042 -34.991  0.00  0.00    +0.049 C 
BRANCH   8  12
ATOM      9  C   UNL     1      46.184 -19.852 -38.880  0.00  0.00    +0.029 A 
ATOM     10  C   UNL     1      46.372 -18.467 -38.735  0.00  0.00    -0.040 A 
ATOM     11  C   UNL     1      46.607 -17.881 -37.486  0.00  0.00    -0.056 A 
ATOM     12  C   UNL     1      46.669 -18.669 -36.334  0.00  0.00    -0.039 A 
ATOM     13  C   UNL     1      46.478 -20.048 -36.459  0.00  0.00    -0.056 A 
ATOM     14  C   UNL     1      46.232 -20.625 -37.711  0.00  0.00    -0.040 A 
BRANCH   9  16
ATOM     15  C   UNL     1      45.137 -19.565 -41.083  0.00  0.00    +0.000 C 
ATOM     16  N   UNL     1      45.923 -20.386 -40.158  0.00  0.00    -0.336 N 
ATOM     17  C   UNL     1      45.504 -21.792 -40.105  0.00  0.00    +0.000 C 
ENDBRANCH   9  16
ENDBRANCH   8  12
ENDBRANCH   4   8
ENDBRANCH   3   6
ENDBRANCH   2   3
ENDBRANCH   1   2
BRANCH   1  18
ATOM     18  C   UNL     1      42.061 -17.572 -36.805  0.00  0.00    -0.053 C 
BRANCH  18  19
ATOM     19  C   UNL     1      43.097 -18.651 -37.122  0.00  0.00    -0.052 C 
BRANCH  19  20
ATOM     20  C   UNL     1      42.456 -19.830 -37.857  0.00  0.00    -0.040 C 
BRANCH  20  21
ATOM     21  C   UNL     1      42.569 -21.124 -37.044  0.00  0.00    -0.004 C 
BRANCH  21  22
ATOM     22  N   UNL     1      41.231 -21.547 -36.630  0.00  0.00    -0.311 N 
ATOM     23  H   UNL     1      41.147 -22.545 -36.823  0.00  0.00    +0.000 HD
ATOM     24  H   UNL     1      40.584 -20.962 -37.158  0.00  0.00    +0.000 HD
BRANCH  22  25
ATOM     25  C   UNL     1      40.892 -21.333 -35.214  0.00  0.00    +0.020 C 
ATOM     26  C   UNL     1      40.322 -22.607 -34.538  0.00  0.00    -0.032 C 
ATOM     27  C   UNL     1      39.889 -22.307 -33.091  0.00  0.00    -0.039 C 
ATOM     28  C   UNL     1      38.800 -21.223 -33.099  0.00  0.00    -0.047 C 
ATOM     29  C   UNL     1      39.344 -19.940 -33.743  0.00  0.00    -0.039 C 
ATOM     30  C   UNL     1      40.558 -19.441 -32.944  0.00  0.00    -0.047 C 
ATOM     31  C   UNL     1      41.655 -20.516 -32.932  0.00  0.00    -0.039 C 
ATOM     32  C   UNL     1      41.102 -21.800 -32.293  0.00  0.00    -0.047 C 
ATOM     33  C   UNL     1      42.092 -20.817 -34.378  0.00  0.00    -0.032 C 
ATOM     34  C   UNL     1      39.782 -20.245 -35.185  0.00  0.00    -0.032 C 
ENDBRANCH  22  25
ENDBRANCH  21  22
ENDBRANCH  20  21
ENDBRANCH  19  20
ENDBRANCH  18  19
ENDBRANCH   1  18
TORSDOF 12
ENDMDL
MODEL 16
REMARK VINA RESULT:    -6.142     16.713     19.285
REMARK INTER + INTRA:         -11.538
REMARK INTER:                  -9.542
REMARK INTRA:                  -1.996
REMARK UNBOUND:                -1.087
REMARK  Name = cpd198.pdb
REMARK  14 active torsions:
REMARK  status: ('A' for Active; 'I' for Inactive)
REMARK    1  A    between atoms: C_1  and  N_2
REMARK    2  A    between atoms: N_2  and  C_3
REMARK    3  A    between atoms: N_2  and  C_4
REMARK    4  A    between atoms: C_7  and  C_8
REMARK    5  A    between atoms: C_8  and  C_9
REMARK    6  A    between atoms: N_11  and  C_12
REMARK    7  A    between atoms: C_12  and  C_13
REMARK    8  A    between atoms: C_13  and  C_14
REMARK    9  A    between atoms: C_14  and  C_15
REMARK   10  A    between atoms: C_15  and  C_16
REMARK   11  A    between atoms: C_16  and  C_17
REMARK   12  A    between atoms: C_17  and  C_18
REMARK   13  A    between atoms: C_18  and  N_19
REMARK   14  A    between atoms: N_19  and  C_20
REMARK                            x       y       z     vdW  Elec       q    Type
REMARK                         _______ _______ _______ _____ _____    ______ ____
ROOT
ATOM      1  C   UNL     1      43.672 -21.076 -40.297  0.00  0.00    -0.052 C 
ENDROOT
BRANCH   1   2
ATOM      2  C   UNL     1      44.215 -20.608 -41.652  0.00  0.00    -0.037 C 
BRANCH   2   3
ATOM      3  C   UNL     1      45.717 -20.330 -41.651  0.00  0.00    +0.012 C 
BRANCH   3   6
ATOM      4  C   UNL     1      46.743 -19.388 -39.601  0.00  0.00    +0.217 C 
ATOM      5  O   UNL     1      46.691 -18.229 -39.999  0.00  0.00    -0.275 OA
ATOM      6  N   UNL     1      46.324 -20.473 -40.344  0.00  0.00    -0.315 N 
ATOM      7  H   UNL     1      46.441 -21.377 -39.972  0.00  0.00    +0.000 HD
BRANCH   4   8
ATOM      8  C   UNL     1      47.248 -19.741 -38.214  0.00  0.00    +0.049 C 
BRANCH   8  12
ATOM      9  C   UNL     1      44.583 -18.474 -35.011  0.00  0.00    +0.029 A 
ATOM     10  C   UNL     1      44.400 -19.694 -35.683  0.00  0.00    -0.040 A 
ATOM     11  C   UNL     1      45.251 -20.102 -36.717  0.00  0.00    -0.056 A 
ATOM     12  C   UNL     1      46.324 -19.299 -37.110  0.00  0.00    -0.039 A 
ATOM     13  C   UNL     1      46.518 -18.078 -36.457  0.00  0.00    -0.056 A 
ATOM     14  C   UNL     1      45.655 -17.672 -35.431  0.00  0.00    -0.040 A 
BRANCH   9  16
ATOM     15  C   UNL     1      42.996 -16.812 -34.147  0.00  0.00    +0.000 C 
ATOM     16  N   UNL     1      43.681 -18.099 -33.996  0.00  0.00    -0.336 N 
ATOM     17  C   UNL     1      44.216 -18.335 -32.650  0.00  0.00    +0.000 C 
ENDBRANCH   9  16
ENDBRANCH   8  12
ENDBRANCH   4   8
ENDBRANCH   3   6
ENDBRANCH   2   3
ENDBRANCH   1   2
BRANCH   1  18
ATOM     18  C   UNL     1      42.170 -21.359 -40.343  0.00  0.00    -0.053 C 
BRANCH  18  19
ATOM     19  C   UNL     1      41.578 -21.462 -38.937  0.00  0.00    -0.052 C 
BRANCH  19  20
ATOM     20  C   UNL     1      40.265 -22.247 -38.948  0.00  0.00    -0.040 C 
BRANCH  20  21
ATOM     21  C   UNL     1      39.331 -21.791 -37.823  0.00  0.00    -0.004 C 
BRANCH  21  22
ATOM     22  N   UNL     1      39.488 -22.688 -36.677  0.00  0.00    -0.311 N 
ATOM     23  H   UNL     1      40.269 -23.314 -36.876  0.00  0.00    +0.000 HD
ATOM     24  H   UNL     1      38.589 -23.159 -36.574  0.00  0.00    +0.000 HD
BRANCH  22  25
ATOM     25  C   UNL     1      39.747 -22.044 -35.380  0.00  0.00    +0.020 C 
ATOM     26  C   UNL     1      41.220 -21.583 -35.227  0.00  0.00    -0.032 C 
ATOM     27  C   UNL     1      41.466 -21.009 -33.819  0.00  0.00    -0.039 C 
ATOM     28  C   UNL     1      41.176 -22.092 -32.769  0.00  0.00    -0.047 C 
ATOM     29  C   UNL     1      39.716 -22.552 -32.882  0.00  0.00    -0.039 C 
ATOM     30  C   UNL     1      38.782 -21.352 -32.654  0.00  0.00    -0.047 C 
ATOM     31  C   UNL     1      39.062 -20.264 -33.701  0.00  0.00    -0.039 C 
ATOM     32  C   UNL     1      40.527 -19.813 -33.587  0.00  0.00    -0.047 C 
ATOM     33  C   UNL     1      38.814 -20.835 -35.110  0.00  0.00    -0.032 C 
ATOM     34  C   UNL     1      39.472 -23.118 -34.290  0.00  0.00    -0.032 C 
ENDBRANCH  22  25
ENDBRANCH  21  22
ENDBRANCH  20  21
ENDBRANCH  19  20
ENDBRANCH  18  19
ENDBRANCH   1  18
TORSDOF 12
ENDMDL
MODEL 17
REMARK VINA RESULT:    -6.138     18.257     20.690
REMARK INTER + INTRA:         -11.531
REMARK INTER:                  -8.849
REMARK INTRA:                  -2.682
REMARK UNBOUND:                -1.087
REMARK  Name = cpd198.pdb
REMARK  14 active torsions:
REMARK  status: ('A' for Active; 'I' for Inactive)
REMARK    1  A    between atoms: C_1  and  N_2
REMARK    2  A    between atoms: N_2  and  C_3
REMARK    3  A    between atoms: N_2  and  C_4
REMARK    4  A    between atoms: C_7  and  C_8
REMARK    5  A    between atoms: C_8  and  C_9
REMARK    6  A    between atoms: N_11  and  C_12
REMARK    7  A    between atoms: C_12  and  C_13
REMARK    8  A    between atoms: C_13  and  C_14
REMARK    9  A    between atoms: C_14  and  C_15
REMARK   10  A    between atoms: C_15  and  C_16
REMARK   11  A    between atoms: C_16  and  C_17
REMARK   12  A    between atoms: C_17  and  C_18
REMARK   13  A    between atoms: C_18  and  N_19
REMARK   14  A    between atoms: N_19  and  C_20
REMARK                            x       y       z     vdW  Elec       q    Type
REMARK                         _______ _______ _______ _____ _____    ______ ____
ROOT
ATOM      1  C   UNL     1      39.559 -18.013 -35.944  0.00  0.00    -0.052 C 
ENDROOT
BRANCH   1   2
ATOM      2  C   UNL     1      38.375 -18.683 -36.649  0.00  0.00    -0.037 C 
BRANCH   2   3
ATOM      3  C   UNL     1      38.588 -18.890 -38.148  0.00  0.00    +0.012 C 
BRANCH   3   6
ATOM      4  C   UNL     1      40.670 -20.039 -38.847  0.00  0.00    +0.217 C 
ATOM      5  O   UNL     1      41.295 -18.997 -39.017  0.00  0.00    -0.275 OA
ATOM      6  N   UNL     1      39.347 -20.084 -38.457  0.00  0.00    -0.315 N 
ATOM      7  H   UNL     1      38.902 -20.960 -38.387  0.00  0.00    +0.000 HD
BRANCH   4   8
ATOM      8  C   UNL     1      41.316 -21.402 -39.016  0.00  0.00    +0.049 C 
BRANCH   8  12
ATOM      9  C   UNL     1      44.999 -21.315 -41.338  0.00  0.00    +0.029 A 
ATOM     10  C   UNL     1      45.010 -21.249 -39.934  0.00  0.00    -0.040 A 
ATOM     11  C   UNL     1      43.829 -21.270 -39.185  0.00  0.00    -0.056 A 
ATOM     12  C   UNL     1      42.588 -21.367 -39.821  0.00  0.00    -0.039 A 
ATOM     13  C   UNL     1      42.557 -21.426 -41.216  0.00  0.00    -0.056 A 
ATOM     14  C   UNL     1      43.745 -21.393 -41.960  0.00  0.00    -0.040 A 
BRANCH   9  16
ATOM     15  C   UNL     1      47.049 -22.468 -42.043  0.00  0.00    +0.000 C 
ATOM     16  N   UNL     1      46.217 -21.262 -42.045  0.00  0.00    -0.336 N 
ATOM     17  C   UNL     1      46.962 -20.023 -41.791  0.00  0.00    +0.000 C 
ENDBRANCH   9  16
ENDBRANCH   8  12
ENDBRANCH   4   8
ENDBRANCH   3   6
ENDBRANCH   2   3
ENDBRANCH   1   2
BRANCH   1  18
ATOM     18  C   UNL     1      40.120 -18.875 -34.811  0.00  0.00    -0.053 C 
BRANCH  18  19
ATOM     19  C   UNL     1      39.678 -20.333 -34.949  0.00  0.00    -0.052 C 
BRANCH  19  20
ATOM     20  C   UNL     1      40.885 -21.261 -35.102  0.00  0.00    -0.040 C 
BRANCH  20  21
ATOM     21  C   UNL     1      42.119 -20.696 -34.391  0.00  0.00    -0.004 C 
BRANCH  21  22
ATOM     22  N   UNL     1      43.301 -20.938 -35.217  0.00  0.00    -0.311 N 
ATOM     23  H   UNL     1      42.981 -21.209 -36.147  0.00  0.00    +0.000 HD
ATOM     24  H   UNL     1      43.833 -21.660 -34.730  0.00  0.00    +0.000 HD
BRANCH  22  25
ATOM     25  C   UNL     1      44.226 -19.804 -35.373  0.00  0.00    +0.020 C 
ATOM     26  C   UNL     1      44.482 -19.056 -34.038  0.00  0.00    -0.032 C 
ATOM     27  C   UNL     1      45.373 -17.821 -34.270  0.00  0.00    -0.039 C 
ATOM     28  C   UNL     1      44.672 -16.863 -35.245  0.00  0.00    -0.047 C 
ATOM     29  C   UNL     1      44.426 -17.570 -36.585  0.00  0.00    -0.039 C 
ATOM     30  C   UNL     1      45.769 -18.019 -37.183  0.00  0.00    -0.047 C 
ATOM     31  C   UNL     1      46.477 -18.980 -36.217  0.00  0.00    -0.039 C 
ATOM     32  C   UNL     1      46.715 -18.269 -34.875  0.00  0.00    -0.047 C 
ATOM     33  C   UNL     1      45.590 -20.218 -35.984  0.00  0.00    -0.032 C 
ATOM     34  C   UNL     1      43.542 -18.807 -36.349  0.00  0.00    -0.032 C 
ENDBRANCH  22  25
ENDBRANCH  21  22
ENDBRANCH  20  21
ENDBRANCH  19  20
ENDBRANCH  18  19
ENDBRANCH   1  18
TORSDOF 12
ENDMDL
MODEL 18
REMARK VINA RESULT:    -6.101     18.503     21.873
REMARK INTER + INTRA:         -11.468
REMARK INTER:                  -8.551
REMARK INTRA:                  -2.917
REMARK UNBOUND:                -1.087
REMARK  Name = cpd198.pdb
REMARK  14 active torsions:
REMARK  status: ('A' for Active; 'I' for Inactive)
REMARK    1  A    between atoms: C_1  and  N_2
REMARK    2  A    between atoms: N_2  and  C_3
REMARK    3  A    between atoms: N_2  and  C_4
REMARK    4  A    between atoms: C_7  and  C_8
REMARK    5  A    between atoms: C_8  and  C_9
REMARK    6  A    between atoms: N_11  and  C_12
REMARK    7  A    between atoms: C_12  and  C_13
REMARK    8  A    between atoms: C_13  and  C_14
REMARK    9  A    between atoms: C_14  and  C_15
REMARK   10  A    between atoms: C_15  and  C_16
REMARK   11  A    between atoms: C_16  and  C_17
REMARK   12  A    between atoms: C_17  and  C_18
REMARK   13  A    between atoms: C_18  and  N_19
REMARK   14  A    between atoms: N_19  and  C_20
REMARK                            x       y       z     vdW  Elec       q    Type
REMARK                         _______ _______ _______ _____ _____    ______ ____
ROOT
ATOM      1  C   UNL     1      45.714 -16.240 -37.268  0.00  0.00    -0.052 C 
ENDROOT
BRANCH   1   2
ATOM      2  C   UNL     1      47.145 -16.729 -37.021  0.00  0.00    -0.037 C 
BRANCH   2   3
ATOM      3  C   UNL     1      47.337 -17.412 -35.667  0.00  0.00    +0.012 C 
BRANCH   3   6
ATOM      4  C   UNL     1      45.867 -19.367 -35.273  0.00  0.00    +0.217 C 
ATOM      5  O   UNL     1      46.603 -20.153 -35.861  0.00  0.00    -0.275 OA
ATOM      6  N   UNL     1      46.125 -18.017 -35.155  0.00  0.00    -0.315 N 
ATOM      7  H   UNL     1      45.462 -17.444 -34.707  0.00  0.00    +0.000 HD
BRANCH   4   8
ATOM      8  C   UNL     1      44.598 -19.822 -34.574  0.00  0.00    +0.049 C 
BRANCH   8  12
ATOM      9  C   UNL     1      41.190 -20.258 -37.249  0.00  0.00    +0.029 A 
ATOM     10  C   UNL     1      41.388 -21.122 -36.160  0.00  0.00    -0.040 A 
ATOM     11  C   UNL     1      42.485 -20.989 -35.301  0.00  0.00    -0.056 A 
ATOM     12  C   UNL     1      43.424 -19.975 -35.504  0.00  0.00    -0.039 A 
ATOM     13  C   UNL     1      43.247 -19.110 -36.587  0.00  0.00    -0.056 A 
ATOM     14  C   UNL     1      42.152 -19.257 -37.448  0.00  0.00    -0.040 A 
BRANCH   9  16
ATOM     15  C   UNL     1      39.261 -21.645 -37.869  0.00  0.00    +0.000 C 
ATOM     16  N   UNL     1      40.083 -20.454 -38.099  0.00  0.00    -0.336 N 
ATOM     17  C   UNL     1      40.407 -20.216 -39.511  0.00  0.00    +0.000 C 
ENDBRANCH   9  16
ENDBRANCH   8  12
ENDBRANCH   4   8
ENDBRANCH   3   6
ENDBRANCH   2   3
ENDBRANCH   1   2
BRANCH   1  18
ATOM     18  C   UNL     1      45.681 -14.904 -38.013  0.00  0.00    -0.053 C 
BRANCH  18  19
ATOM     19  C   UNL     1      44.630 -14.911 -39.124  0.00  0.00    -0.052 C 
BRANCH  19  20
ATOM     20  C   UNL     1      45.245 -15.338 -40.459  0.00  0.00    -0.040 C 
BRANCH  20  21
ATOM     21  C   UNL     1      44.816 -16.758 -40.843  0.00  0.00    -0.004 C 
BRANCH  21  22
ATOM     22  N   UNL     1      45.977 -17.646 -40.768  0.00  0.00    -0.311 N 
ATOM     23  H   UNL     1      46.491 -17.415 -39.918  0.00  0.00    +0.000 HD
ATOM     24  H   UNL     1      46.499 -17.486 -41.630  0.00  0.00    +0.000 HD
BRANCH  22  25
ATOM     25  C   UNL     1      45.690 -19.089 -40.743  0.00  0.00    +0.020 C 
ATOM     26  C   UNL     1      44.323 -19.435 -41.391  0.00  0.00    -0.032 C 
ATOM     27  C   UNL     1      44.022 -20.939 -41.250  0.00  0.00    -0.039 C 
ATOM     28  C   UNL     1      43.971 -21.312 -39.760  0.00  0.00    -0.047 C 
ATOM     29  C   UNL     1      45.321 -21.000 -39.097  0.00  0.00    -0.039 C 
ATOM     30  C   UNL     1      46.430 -21.806 -39.790  0.00  0.00    -0.047 C 
ATOM     31  C   UNL     1      46.492 -21.439 -41.280  0.00  0.00    -0.039 C 
ATOM     32  C   UNL     1      45.137 -21.747 -41.936  0.00  0.00    -0.047 C 
ATOM     33  C   UNL     1      46.796 -19.935 -41.424  0.00  0.00    -0.032 C 
ATOM     34  C   UNL     1      45.621 -19.500 -39.246  0.00  0.00    -0.032 C 
ENDBRANCH  22  25
ENDBRANCH  21  22
ENDBRANCH  20  21
ENDBRANCH  19  20
ENDBRANCH  18  19
ENDBRANCH   1  18
TORSDOF 12
ENDMDL
MODEL 19
REMARK VINA RESULT:    -6.069     19.905     22.230
REMARK INTER + INTRA:         -11.413
REMARK INTER:                  -8.159
REMARK INTRA:                  -3.254
REMARK UNBOUND:                -1.087
REMARK  Name = cpd198.pdb
REMARK  14 active torsions:
REMARK  status: ('A' for Active; 'I' for Inactive)
REMARK    1  A    between atoms: C_1  and  N_2
REMARK    2  A    between atoms: N_2  and  C_3
REMARK    3  A    between atoms: N_2  and  C_4
REMARK    4  A    between atoms: C_7  and  C_8
REMARK    5  A    between atoms: C_8  and  C_9
REMARK    6  A    between atoms: N_11  and  C_12
REMARK    7  A    between atoms: C_12  and  C_13
REMARK    8  A    between atoms: C_13  and  C_14
REMARK    9  A    between atoms: C_14  and  C_15
REMARK   10  A    between atoms: C_15  and  C_16
REMARK   11  A    between atoms: C_16  and  C_17
REMARK   12  A    between atoms: C_17  and  C_18
REMARK   13  A    between atoms: C_18  and  N_19
REMARK   14  A    between atoms: N_19  and  C_20
REMARK                            x       y       z     vdW  Elec       q    Type
REMARK                         _______ _______ _______ _____ _____    ______ ____
ROOT
ATOM      1  C   UNL     1      41.780 -17.143 -34.431  0.00  0.00    -0.052 C 
ENDROOT
BRANCH   1   2
ATOM      2  C   UNL     1      42.467 -17.574 -33.132  0.00  0.00    -0.037 C 
BRANCH   2   3
ATOM      3  C   UNL     1      43.270 -18.868 -33.260  0.00  0.00    +0.012 C 
BRANCH   3   6
ATOM      4  C   UNL     1      45.197 -19.314 -34.753  0.00  0.00    +0.217 C 
ATOM      5  O   UNL     1      44.609 -20.172 -35.404  0.00  0.00    -0.275 OA
ATOM      6  N   UNL     1      44.639 -18.651 -33.679  0.00  0.00    -0.315 N 
ATOM      7  H   UNL     1      45.192 -18.007 -33.180  0.00  0.00    +0.000 HD
BRANCH   4   8
ATOM      8  C   UNL     1      46.605 -18.864 -35.100  0.00  0.00    +0.049 C 
BRANCH   8  12
ATOM      9  C   UNL     1      46.739 -16.007 -38.383  0.00  0.00    +0.029 A 
ATOM     10  C   UNL     1      47.159 -17.337 -38.546  0.00  0.00    -0.040 A 
ATOM     11  C   UNL     1      47.123 -18.257 -37.492  0.00  0.00    -0.056 A 
ATOM     12  C   UNL     1      46.656 -17.873 -36.232  0.00  0.00    -0.039 A 
ATOM     13  C   UNL     1      46.241 -16.551 -36.049  0.00  0.00    -0.056 A 
ATOM     14  C   UNL     1      46.291 -15.634 -37.107  0.00  0.00    -0.040 A 
BRANCH   9  16
ATOM     15  C   UNL     1      47.826 -14.050 -39.391  0.00  0.00    +0.000 C 
ATOM     16  N   UNL     1      46.823 -15.114 -39.470  0.00  0.00    -0.336 N 
ATOM     17  C   UNL     1      45.505 -14.659 -39.928  0.00  0.00    +0.000 C 
ENDBRANCH   9  16
ENDBRANCH   8  12
ENDBRANCH   4   8
ENDBRANCH   3   6
ENDBRANCH   2   3
ENDBRANCH   1   2
BRANCH   1  18
ATOM     18  C   UNL     1      42.611 -16.124 -35.214  0.00  0.00    -0.053 C 
BRANCH  18  19
ATOM     19  C   UNL     1      42.466 -16.327 -36.723  0.00  0.00    -0.052 C 
BRANCH  19  20
ATOM     20  C   UNL     1      42.466 -17.815 -37.080  0.00  0.00    -0.040 C 
BRANCH  20  21
ATOM     21  C   UNL     1      43.522 -18.135 -38.142  0.00  0.00    -0.004 C 
BRANCH  21  22
ATOM     22  N   UNL     1      43.482 -19.566 -38.442  0.00  0.00    -0.311 N 
ATOM     23  H   UNL     1      42.502 -19.849 -38.478  0.00  0.00    +0.000 HD
ATOM     24  H   UNL     1      44.022 -20.016 -37.703  0.00  0.00    +0.000 HD
BRANCH  22  25
ATOM     25  C   UNL     1      44.116 -19.983 -39.703  0.00  0.00    +0.020 C 
ATOM     26  C   UNL     1      45.425 -20.785 -39.475  0.00  0.00    -0.032 C 
ATOM     27  C   UNL     1      46.103 -21.110 -40.819  0.00  0.00    -0.039 C 
ATOM     28  C   UNL     1      46.447 -19.801 -41.546  0.00  0.00    -0.047 C 
ATOM     29  C   UNL     1      45.167 -18.995 -41.805  0.00  0.00    -0.039 C 
ATOM     30  C   UNL     1      44.206 -19.826 -42.671  0.00  0.00    -0.047 C 
ATOM     31  C   UNL     1      43.852 -21.136 -41.951  0.00  0.00    -0.039 C 
ATOM     32  C   UNL     1      45.139 -21.935 -41.688  0.00  0.00    -0.047 C 
ATOM     33  C   UNL     1      43.171 -20.814 -40.608  0.00  0.00    -0.032 C 
ATOM     34  C   UNL     1      44.488 -18.679 -40.463  0.00  0.00    -0.032 C 
ENDBRANCH  22  25
ENDBRANCH  21  22
ENDBRANCH  20  21
ENDBRANCH  19  20
ENDBRANCH  18  19
ENDBRANCH   1  18
TORSDOF 12
ENDMDL
MODEL 20
REMARK VINA RESULT:    -5.920     17.405     20.918
REMARK INTER + INTRA:         -11.160
REMARK INTER:                  -8.513
REMARK INTRA:                  -2.647
REMARK UNBOUND:                -1.087
REMARK  Name = cpd198.pdb
REMARK  14 active torsions:
REMARK  status: ('A' for Active; 'I' for Inactive)
REMARK    1  A    between atoms: C_1  and  N_2
REMARK    2  A    between atoms: N_2  and  C_3
REMARK    3  A    between atoms: N_2  and  C_4
REMARK    4  A    between atoms: C_7  and  C_8
REMARK    5  A    between atoms: C_8  and  C_9
REMARK    6  A    between atoms: N_11  and  C_12
REMARK    7  A    between atoms: C_12  and  C_13
REMARK    8  A    between atoms: C_13  and  C_14
REMARK    9  A    between atoms: C_14  and  C_15
REMARK   10  A    between atoms: C_15  and  C_16
REMARK   11  A    between atoms: C_16  and  C_17
REMARK   12  A    between atoms: C_17  and  C_18
REMARK   13  A    between atoms: C_18  and  N_19
REMARK   14  A    between atoms: N_19  and  C_20
REMARK                            x       y       z     vdW  Elec       q    Type
REMARK                         _______ _______ _______ _____ _____    ______ ____
ROOT
ATOM      1  C   UNL     1      41.026 -22.004 -36.069  0.00  0.00    -0.052 C 
ENDROOT
BRANCH   1   2
ATOM      2  C   UNL     1      39.771 -22.410 -35.289  0.00  0.00    -0.037 C 
BRANCH   2   3
ATOM      3  C   UNL     1      39.653 -21.741 -33.921  0.00  0.00    +0.012 C 
BRANCH   3   6
ATOM      4  C   UNL     1      40.943 -19.733 -33.252  0.00  0.00    +0.217 C 
ATOM      5  O   UNL     1      40.003 -18.962 -33.425  0.00  0.00    -0.275 OA
ATOM      6  N   UNL     1      40.874 -21.089 -33.496  0.00  0.00    -0.315 N 
ATOM      7  H   UNL     1      41.685 -21.634 -33.377  0.00  0.00    +0.000 HD
BRANCH   4   8
ATOM      8  C   UNL     1      42.280 -19.264 -32.708  0.00  0.00    +0.049 C 
BRANCH   8  12
ATOM      9  C   UNL     1      45.053 -17.936 -35.791  0.00  0.00    +0.029 A 
ATOM     10  C   UNL     1      44.179 -17.042 -35.151  0.00  0.00    -0.040 A 
ATOM     11  C   UNL     1      43.282 -17.466 -34.164  0.00  0.00    -0.056 A 
ATOM     12  C   UNL     1      43.236 -18.808 -33.779  0.00  0.00    -0.039 A 
ATOM     13  C   UNL     1      44.093 -19.713 -34.410  0.00  0.00    -0.056 A 
ATOM     14  C   UNL     1      44.980 -19.282 -35.405  0.00  0.00    -0.040 A 
BRANCH   9  16
ATOM     15  C   UNL     1      47.347 -17.404 -36.486  0.00  0.00    +0.000 C 
ATOM     16  N   UNL     1      45.917 -17.461 -36.799  0.00  0.00    -0.336 N 
ATOM     17  C   UNL     1      45.402 -16.257 -37.461  0.00  0.00    +0.000 C 
ENDBRANCH   9  16
ENDBRANCH   8  12
ENDBRANCH   4   8
ENDBRANCH   3   6
ENDBRANCH   2   3
ENDBRANCH   1   2
BRANCH   1  18
ATOM     18  C   UNL     1      40.698 -21.106 -37.264  0.00  0.00    -0.053 C 
BRANCH  18  19
ATOM     19  C   UNL     1      40.696 -19.629 -36.869  0.00  0.00    -0.052 C 
BRANCH  19  20
ATOM     20  C   UNL     1      41.903 -18.899 -37.464  0.00  0.00    -0.040 C 
BRANCH  20  21
ATOM     21  C   UNL     1      42.452 -19.635 -38.691  0.00  0.00    -0.004 C 
BRANCH  21  22
ATOM     22  N   UNL     1      43.586 -18.886 -39.230  0.00  0.00    -0.311 N 
ATOM     23  H   UNL     1      44.136 -18.542 -38.442  0.00  0.00    +0.000 HD
ATOM     24  H   UNL     1      43.179 -18.152 -39.810  0.00  0.00    +0.000 HD
BRANCH  22  25
ATOM     25  C   UNL     1      44.492 -19.632 -40.119  0.00  0.00    +0.020 C 
ATOM     26  C   UNL     1      44.505 -19.070 -41.565  0.00  0.00    -0.032 C 
ATOM     27  C   UNL     1      45.386 -19.942 -42.478  0.00  0.00    -0.039 C 
ATOM     28  C   UNL     1      44.828 -21.373 -42.510  0.00  0.00    -0.047 C 
ATOM     29  C   UNL     1      44.824 -21.964 -41.093  0.00  0.00    -0.039 C 
ATOM     30  C   UNL     1      46.259 -21.986 -40.543  0.00  0.00    -0.047 C 
ATOM     31  C   UNL     1      46.826 -20.559 -40.504  0.00  0.00    -0.039 C 
ATOM     32  C   UNL     1      46.821 -19.971 -41.923  0.00  0.00    -0.047 C 
ATOM     33  C   UNL     1      45.948 -19.684 -39.589  0.00  0.00    -0.032 C 
ATOM     34  C   UNL     1      43.949 -21.087 -40.182  0.00  0.00    -0.032 C 
ENDBRANCH  22  25
ENDBRANCH  21  22
ENDBRANCH  20  21
ENDBRANCH  19  20
ENDBRANCH  18  19
ENDBRANCH   1  18
TORSDOF 12
ENDMDL
