@<TRIPOS>MOLECULE
*****
 31 34 0 0 0
SMALL
GASTEIGER

@<TRIPOS>ATOM
      1 C           1.7356    1.0020    0.0000 C.3     1  UNL1        0.1122
      2 N           0.8678    1.5031    0.0000 N.pl3   1  UNL1       -0.3041
      3 C           0.8678    2.5051    0.0000 C.3     1  UNL1        0.1122
      4 C          -0.0000    1.0020    0.0000 C.ar    1  UNL1        0.0479
      5 C          -0.8678    1.5031    0.0000 C.ar    1  UNL1        0.0142
      6 C          -1.7356    1.0020    0.0000 C.ar    1  UNL1       -0.0025
      7 C          -1.7356   -0.0000    0.0000 C.ar    1  UNL1       -0.0129
      8 C          -2.6034   -0.5010    0.0000 C.3     1  UNL1        0.1131
      9 C          -3.4712   -0.0000    0.0000 C.2     1  UNL1        0.2458
     10 O          -3.4712    1.0020    0.0000 O.2     1  UNL1       -0.2730
     11 N           0.4867   -4.2792    0.0000 N.am    1  UNL1       -0.2051
     12 C           1.4867   -4.2792    0.0000 C.3     1  UNL1        0.1152
     13 C           1.9867   -3.4131    0.0000 C.3     1  UNL1        0.0234
     14 C           1.4867   -2.5471    0.0000 C.3     1  UNL1        0.0018
     15 C           1.9867   -1.6811    0.0000 C.3     1  UNL1        0.0001
     16 C           1.4867   -0.8151    0.0000 C.3     1  UNL1        0.0015
     17 C           1.9867    0.0510    0.0000 C.3     1  UNL1        0.0188
     18 C           1.4867    0.9170    0.0000 C.3     1  UNL1        0.0886
     19 N           1.9867    1.7830    0.0000 N.3     1  UNL1       -0.2208
     20 C           1.4867    2.6490    0.0000 C.3     1  UNL1        0.0594
     21 C           1.2279    3.6150    0.0000 C.3     1  UNL1        0.0161
     22 C           0.2620    3.8738    0.0000 C.3     1  UNL1        0.0013
     23 C           0.9147    4.2839    0.0000 C.3     1  UNL1        0.0001
     24 C           1.6422    4.0293    0.0000 C.3     1  UNL1        0.0013
     25 C           0.2001    3.6429    0.0000 C.3     1  UNL1        0.0001
     26 C          -0.1863    2.2007    0.0000 C.3     1  UNL1        0.0013
     27 C          -0.4451    3.1667    0.0000 C.3     1  UNL1        0.0001
     28 C           0.7796    1.9419    0.0000 C.3     1  UNL1        0.0161
     29 C           1.8968    3.3017    0.0000 C.3     1  UNL1        0.0161
     30 C          -0.8678   -0.5010    0.0000 C.ar    1  UNL1       -0.0025
     31 C           0.0000    0.0000    0.0000 C.ar    1  UNL1        0.0142
@<TRIPOS>BOND
     1     1     2    1
     2     2     3    1
     3     2     4    1
     4     4     5   ar
     5     5     6   ar
     6     6     7   ar
     7     7     8    1
     8     8     9    1
     9     9    10    2
    10     9    11   am
    11    11    12    1
    12    12    13    1
    13    13    14    1
    14    14    15    1
    15    15    16    1
    16    16    17    1
    17    17    18    1
    18    18    19    1
    19    19    20    1
    20    20    21    1
    21    21    22    1
    22    22    23    1
    23    23    24    1
    24    24    25    1
    25    25    26    1
    26    26    27    1
    27    22    27    1
    28    26    28    1
    29    20    28    1
    30    24    29    1
    31    20    29    1
    32     7    30   ar
    33    30    31   ar
    34     4    31   ar
