MODEL 1
REMARK VINA RESULT:    -8.237      0.000      0.000
REMARK INTER + INTRA:         -16.975
REMARK INTER:                 -13.534
REMARK INTRA:                  -3.442
REMARK UNBOUND:                -3.442
REMARK  Name = cpd31.pdb
REMARK  13 active torsions:
REMARK  status: ('A' for Active; 'I' for Inactive)
REMARK    1  A    between atoms: C_1  and  C_2
REMARK    2  A    between atoms: C_6  and  N_7
REMARK    3  A    between atoms: N_7  and  C_8
REMARK    4  A    between atoms: C_13  and  C_14
REMARK    5  A    between atoms: N_16  and  C_17
REMARK    6  A    between atoms: C_17  and  C_18
REMARK    7  A    between atoms: N_20  and  C_21
REMARK    8  A    between atoms: C_21  and  C_22
REMARK    9  A    between atoms: C_22  and  C_23
REMARK   10  A    between atoms: C_23  and  C_24
REMARK   11  A    between atoms: C_24  and  N_25
REMARK   12  A    between atoms: N_25  and  C_26
REMARK   13  A    between atoms: C_40  and  C_41
REMARK                            x       y       z     vdW  Elec       q    Type
REMARK                         _______ _______ _______ _____ _____    ______ ____
ROOT
ATOM      1  C   UNL A   1      45.721 -18.172 -34.134  0.00  0.00    +0.230 C 
ATOM      2  O   UNL A   1      45.062 -19.119 -33.715  0.00  0.00    -0.274 OA
ATOM      3  N   UNL A   1      45.337 -16.856 -33.984  0.00  0.00    -0.314 N 
ATOM      4  H   UNL A   1      45.966 -16.143 -34.241  0.00  0.00    +0.000 HD
ENDROOT
BRANCH   1   5
ATOM      5  C   UNL A   1      47.064 -18.385 -34.850  0.00  0.00    +0.088 C 
BRANCH   5   8
ATOM      6  C   UNL A   1      46.423 -17.590 -37.094  0.00  0.00    +0.246 C 
ATOM      7  O   UNL A   1      45.324 -18.131 -37.029  0.00  0.00    -0.270 OA
ATOM      8  N   UNL A   1      47.298 -17.552 -36.027  0.00  0.00    -0.303 N 
ATOM      9  H   UNL A   1      48.083 -16.960 -36.059  0.00  0.00    +0.000 HD
BRANCH   6  15
ATOM     10  C   UNL A   1      46.545 -17.519 -39.601  0.00  0.00    +0.044 A 
ATOM     11  C   UNL A   1      46.990 -16.875 -40.765  0.00  0.00    -0.040 A 
ATOM     12  C   UNL A   1      47.725 -15.689 -40.703  0.00  0.00    -0.060 A 
ATOM     13  C   UNL A   1      48.031 -15.121 -39.470  0.00  0.00    -0.061 A 
ATOM     14  C   UNL A   1      47.604 -15.739 -38.296  0.00  0.00    -0.048 A 
ATOM     15  C   UNL A   1      46.874 -16.938 -38.355  0.00  0.00    +0.058 A 
BRANCH  10  16
ATOM     16  N   UNL A   1      45.823 -18.730 -39.676  0.00  0.00    -0.314 N 
ATOM     17  H   UNL A   1      45.384 -18.989 -38.833  0.00  0.00    +0.000 HD
BRANCH  16  23
ATOM     18  C   UNL A   1      46.743 -23.153 -41.837  0.00  0.00    -0.039 C 
ATOM     19  C   UNL A   1      46.060 -21.812 -41.789  0.00  0.00    -0.046 A 
ATOM     20  C   UNL A   1      45.198 -21.465 -42.839  0.00  0.00    -0.058 A 
ATOM     21  C   UNL A   1      44.548 -20.237 -42.845  0.00  0.00    -0.060 A 
ATOM     22  C   UNL A   1      44.758 -19.334 -41.804  0.00  0.00    -0.040 A 
ATOM     23  C   UNL A   1      45.615 -19.640 -40.737  0.00  0.00    +0.035 A 
ATOM     24  C   UNL A   1      46.247 -20.911 -40.711  0.00  0.00    -0.026 A 
ATOM     25  C   UNL A   1      47.154 -21.275 -39.558  0.00  0.00    -0.038 C 
ENDBRANCH  16  23
ENDBRANCH  10  16
ENDBRANCH   6  15
ENDBRANCH   5   8
ENDBRANCH   1   5
BRANCH   3  26
ATOM     26  C   UNL A   1      44.039 -16.491 -33.461  0.00  0.00    +0.012 C 
BRANCH  26  27
ATOM     27  C   UNL A   1      42.967 -16.251 -34.526  0.00  0.00    -0.036 C 
BRANCH  27  28
ATOM     28  C   UNL A   1      41.927 -17.368 -34.666  0.00  0.00    -0.036 C 
BRANCH  28  29
ATOM     29  C   UNL A   1      42.028 -18.147 -35.978  0.00  0.00    +0.009 C 
BRANCH  29  30
ATOM     30  N   UNL A   1      42.809 -19.388 -35.825  0.00  0.00    -0.343 N 
ATOM     31  H   UNL A   1      43.764 -19.384 -35.586  0.00  0.00    +0.000 HD
BRANCH  30  32
ATOM     32  C   UNL A   1      42.082 -20.589 -36.048  0.00  0.00    +0.041 A 
ATOM     33  C   UNL A   1      41.490 -21.277 -34.965  0.00  0.00    -0.005 A 
ATOM     34  C   UNL A   1      40.725 -22.412 -35.257  0.00  0.00    +0.047 A 
ATOM     35  N   UNL A   1      40.501 -22.854 -36.516  0.00  0.00    -0.251 NA
ATOM     36  C   UNL A   1      41.080 -22.218 -37.540  0.00  0.00    +0.073 A 
ATOM     37  C   UNL A   1      40.865 -22.715 -38.820  0.00  0.00    -0.036 A 
ATOM     38  C   UNL A   1      41.456 -22.141 -39.946  0.00  0.00    -0.060 A 
ATOM     39  C   UNL A   1      42.292 -21.047 -39.797  0.00  0.00    -0.061 A 
ATOM     40  C   UNL A   1      42.516 -20.529 -38.521  0.00  0.00    -0.051 A 
ATOM     41  C   UNL A   1      41.897 -21.084 -37.372  0.00  0.00    +0.021 A 
ATOM     42  C   UNL A   1      40.029 -23.204 -34.180  0.00  0.00    -0.010 C 
ATOM     43  C   UNL A   1      40.635 -23.003 -32.798  0.00  0.00    -0.047 C 
ATOM     44  C   UNL A   1      40.782 -21.516 -32.518  0.00  0.00    -0.049 C 
ATOM     45  C   UNL A   1      41.733 -20.874 -33.528  0.00  0.00    -0.024 C 
ENDBRANCH  30  32
ENDBRANCH  29  30
ENDBRANCH  28  29
ENDBRANCH  27  28
ENDBRANCH  26  27
ENDBRANCH   3  26
TORSDOF 11
ENDMDL
MODEL 2
REMARK VINA RESULT:    -8.080      0.326      2.870
REMARK INTER + INTRA:         -16.717
REMARK INTER:                 -13.521
REMARK INTRA:                  -3.196
REMARK UNBOUND:                -3.442
REMARK  Name = cpd31.pdb
REMARK  13 active torsions:
REMARK  status: ('A' for Active; 'I' for Inactive)
REMARK    1  A    between atoms: C_1  and  C_2
REMARK    2  A    between atoms: C_6  and  N_7
REMARK    3  A    between atoms: N_7  and  C_8
REMARK    4  A    between atoms: C_13  and  C_14
REMARK    5  A    between atoms: N_16  and  C_17
REMARK    6  A    between atoms: C_17  and  C_18
REMARK    7  A    between atoms: N_20  and  C_21
REMARK    8  A    between atoms: C_21  and  C_22
REMARK    9  A    between atoms: C_22  and  C_23
REMARK   10  A    between atoms: C_23  and  C_24
REMARK   11  A    between atoms: C_24  and  N_25
REMARK   12  A    between atoms: N_25  and  C_26
REMARK   13  A    between atoms: C_40  and  C_41
REMARK                            x       y       z     vdW  Elec       q    Type
REMARK                         _______ _______ _______ _____ _____    ______ ____
ROOT
ATOM      1  C   UNL A   1      45.694 -18.191 -34.089  0.00  0.00    +0.230 C 
ATOM      2  O   UNL A   1      45.009 -19.147 -33.736  0.00  0.00    -0.274 OA
ATOM      3  N   UNL A   1      45.332 -16.878 -33.872  0.00  0.00    -0.314 N 
ATOM      4  H   UNL A   1      45.979 -16.165 -34.077  0.00  0.00    +0.000 HD
ENDROOT
BRANCH   1   5
ATOM      5  C   UNL A   1      47.046 -18.390 -34.792  0.00  0.00    +0.088 C 
BRANCH   5   8
ATOM      6  C   UNL A   1      46.440 -17.525 -37.020  0.00  0.00    +0.246 C 
ATOM      7  O   UNL A   1      45.337 -18.060 -36.985  0.00  0.00    -0.270 OA
ATOM      8  N   UNL A   1      47.300 -17.524 -35.940  0.00  0.00    -0.303 N 
ATOM      9  H   UNL A   1      48.090 -16.937 -35.945  0.00  0.00    +0.000 HD
BRANCH   6  15
ATOM     10  C   UNL A   1      46.707 -17.446 -39.515  0.00  0.00    +0.044 A 
ATOM     11  C   UNL A   1      47.168 -16.769 -40.654  0.00  0.00    -0.040 A 
ATOM     12  C   UNL A   1      47.799 -15.527 -40.554  0.00  0.00    -0.060 A 
ATOM     13  C   UNL A   1      47.982 -14.934 -39.309  0.00  0.00    -0.061 A 
ATOM     14  C   UNL A   1      47.536 -15.584 -38.159  0.00  0.00    -0.048 A 
ATOM     15  C   UNL A   1      46.912 -16.839 -38.254  0.00  0.00    +0.058 A 
BRANCH  10  16
ATOM     16  N   UNL A   1      46.093 -18.713 -39.626  0.00  0.00    -0.314 N 
ATOM     17  H   UNL A   1      45.911 -19.148 -38.762  0.00  0.00    +0.000 HD
BRANCH  16  23
ATOM     18  C   UNL A   1      46.445 -22.867 -42.401  0.00  0.00    -0.039 C 
ATOM     19  C   UNL A   1      45.860 -21.512 -42.102  0.00  0.00    -0.046 A 
ATOM     20  C   UNL A   1      44.894 -20.996 -42.976  0.00  0.00    -0.058 A 
ATOM     21  C   UNL A   1      44.327 -19.747 -42.749  0.00  0.00    -0.060 A 
ATOM     22  C   UNL A   1      44.726 -18.994 -41.647  0.00  0.00    -0.040 A 
ATOM     23  C   UNL A   1      45.693 -19.471 -40.750  0.00  0.00    +0.035 A 
ATOM     24  C   UNL A   1      46.241 -20.764 -40.960  0.00  0.00    -0.026 A 
ATOM     25  C   UNL A   1      47.265 -21.312 -39.993  0.00  0.00    -0.038 C 
ENDBRANCH  16  23
ENDBRANCH  10  16
ENDBRANCH   6  15
ENDBRANCH   5   8
ENDBRANCH   1   5
BRANCH   3  26
ATOM     26  C   UNL A   1      44.032 -16.517 -33.352  0.00  0.00    +0.012 C 
BRANCH  26  27
ATOM     27  C   UNL A   1      42.962 -16.281 -34.420  0.00  0.00    -0.036 C 
BRANCH  27  28
ATOM     28  C   UNL A   1      41.889 -17.371 -34.518  0.00  0.00    -0.036 C 
BRANCH  28  29
ATOM     29  C   UNL A   1      41.936 -18.170 -35.821  0.00  0.00    +0.009 C 
BRANCH  29  30
ATOM     30  N   UNL A   1      42.640 -19.455 -35.657  0.00  0.00    -0.343 N 
ATOM     31  H   UNL A   1      43.572 -19.510 -35.343  0.00  0.00    +0.000 HD
BRANCH  30  32
ATOM     32  C   UNL A   1      41.876 -20.608 -35.983  0.00  0.00    +0.041 A 
ATOM     33  C   UNL A   1      41.835 -21.084 -37.313  0.00  0.00    -0.005 A 
ATOM     34  C   UNL A   1      41.126 -22.266 -37.558  0.00  0.00    +0.047 A 
ATOM     35  N   UNL A   1      40.515 -22.981 -36.585  0.00  0.00    -0.251 NA
ATOM     36  C   UNL A   1      40.533 -22.519 -35.331  0.00  0.00    +0.073 A 
ATOM     37  C   UNL A   1      39.865 -23.253 -34.358  0.00  0.00    -0.036 A 
ATOM     38  C   UNL A   1      39.797 -22.833 -33.029  0.00  0.00    -0.060 A 
ATOM     39  C   UNL A   1      40.402 -21.643 -32.657  0.00  0.00    -0.061 A 
ATOM     40  C   UNL A   1      41.082 -20.894 -33.618  0.00  0.00    -0.051 A 
ATOM     41  C   UNL A   1      41.185 -21.327 -34.965  0.00  0.00    +0.021 A 
ATOM     42  C   UNL A   1      41.040 -22.874 -38.934  0.00  0.00    -0.010 C 
ATOM     43  C   UNL A   1      41.308 -21.877 -40.052  0.00  0.00    -0.047 C 
ATOM     44  C   UNL A   1      42.589 -21.113 -39.757  0.00  0.00    -0.049 C 
ATOM     45  C   UNL A   1      42.451 -20.317 -38.461  0.00  0.00    -0.024 C 
ENDBRANCH  30  32
ENDBRANCH  29  30
ENDBRANCH  28  29
ENDBRANCH  27  28
ENDBRANCH  26  27
ENDBRANCH   3  26
TORSDOF 11
ENDMDL
MODEL 3
REMARK VINA RESULT:    -8.064      2.259      4.547
REMARK INTER + INTRA:         -16.691
REMARK INTER:                 -12.605
REMARK INTRA:                  -4.085
REMARK UNBOUND:                -3.442
REMARK  Name = cpd31.pdb
REMARK  13 active torsions:
REMARK  status: ('A' for Active; 'I' for Inactive)
REMARK    1  A    between atoms: C_1  and  C_2
REMARK    2  A    between atoms: C_6  and  N_7
REMARK    3  A    between atoms: N_7  and  C_8
REMARK    4  A    between atoms: C_13  and  C_14
REMARK    5  A    between atoms: N_16  and  C_17
REMARK    6  A    between atoms: C_17  and  C_18
REMARK    7  A    between atoms: N_20  and  C_21
REMARK    8  A    between atoms: C_21  and  C_22
REMARK    9  A    between atoms: C_22  and  C_23
REMARK   10  A    between atoms: C_23  and  C_24
REMARK   11  A    between atoms: C_24  and  N_25
REMARK   12  A    between atoms: N_25  and  C_26
REMARK   13  A    between atoms: C_40  and  C_41
REMARK                            x       y       z     vdW  Elec       q    Type
REMARK                         _______ _______ _______ _____ _____    ______ ____
ROOT
ATOM      1  C   UNL A   1      46.200 -18.933 -35.293  0.00  0.00    +0.230 C 
ATOM      2  O   UNL A   1      45.788 -19.809 -34.537  0.00  0.00    -0.274 OA
ATOM      3  N   UNL A   1      45.616 -17.688 -35.399  0.00  0.00    -0.314 N 
ATOM      4  H   UNL A   1      46.063 -16.996 -35.937  0.00  0.00    +0.000 HD
ENDROOT
BRANCH   1   5
ATOM      5  C   UNL A   1      47.437 -19.154 -36.178  0.00  0.00    +0.088 C 
BRANCH   5   8
ATOM      6  C   UNL A   1      46.961 -18.662 -38.546  0.00  0.00    +0.246 C 
ATOM      7  O   UNL A   1      47.199 -17.467 -38.400  0.00  0.00    -0.270 OA
ATOM      8  N   UNL A   1      47.171 -19.589 -37.546  0.00  0.00    -0.303 N 
ATOM      9  H   UNL A   1      47.142 -20.550 -37.756  0.00  0.00    +0.000 HD
BRANCH   6  15
ATOM     10  C   UNL A   1      45.313 -18.536 -40.436  0.00  0.00    +0.044 A 
ATOM     11  C   UNL A   1      44.834 -19.052 -41.650  0.00  0.00    -0.040 A 
ATOM     12  C   UNL A   1      45.438 -20.155 -42.259  0.00  0.00    -0.060 A 
ATOM     13  C   UNL A   1      46.538 -20.766 -41.664  0.00  0.00    -0.061 A 
ATOM     14  C   UNL A   1      47.034 -20.277 -40.457  0.00  0.00    -0.048 A 
ATOM     15  C   UNL A   1      46.423 -19.175 -39.836  0.00  0.00    +0.058 A 
BRANCH  10  16
ATOM     16  N   UNL A   1      44.679 -17.436 -39.818  0.00  0.00    -0.314 N 
ATOM     17  H   UNL A   1      44.902 -17.328 -38.865  0.00  0.00    +0.000 HD
BRANCH  16  23
ATOM     18  C   UNL A   1      40.020 -15.656 -40.261  0.00  0.00    -0.039 C 
ATOM     19  C   UNL A   1      41.500 -15.588 -40.522  0.00  0.00    -0.046 A 
ATOM     20  C   UNL A   1      41.993 -14.522 -41.289  0.00  0.00    -0.058 A 
ATOM     21  C   UNL A   1      43.351 -14.416 -41.565  0.00  0.00    -0.060 A 
ATOM     22  C   UNL A   1      44.235 -15.380 -41.083  0.00  0.00    -0.040 A 
ATOM     23  C   UNL A   1      43.784 -16.463 -40.316  0.00  0.00    +0.035 A 
ATOM     24  C   UNL A   1      42.402 -16.548 -40.000  0.00  0.00    -0.026 A 
ATOM     25  C   UNL A   1      41.894 -17.692 -39.152  0.00  0.00    -0.038 C 
ENDBRANCH  16  23
ENDBRANCH  10  16
ENDBRANCH   6  15
ENDBRANCH   5   8
ENDBRANCH   1   5
BRANCH   3  26
ATOM     26  C   UNL A   1      44.367 -17.368 -34.743  0.00  0.00    +0.012 C 
BRANCH  26  27
ATOM     27  C   UNL A   1      43.151 -17.332 -35.671  0.00  0.00    -0.036 C 
BRANCH  27  28
ATOM     28  C   UNL A   1      42.049 -18.344 -35.337  0.00  0.00    -0.036 C 
BRANCH  28  29
ATOM     29  C   UNL A   1      42.414 -19.307 -34.206  0.00  0.00    +0.009 C 
BRANCH  29  30
ATOM     30  N   UNL A   1      42.879 -20.609 -34.718  0.00  0.00    -0.343 N 
ATOM     31  H   UNL A   1      43.774 -20.967 -34.516  0.00  0.00    +0.000 HD
BRANCH  30  32
ATOM     32  C   UNL A   1      41.941 -21.308 -35.526  0.00  0.00    +0.041 A 
ATOM     33  C   UNL A   1      42.170 -21.466 -36.911  0.00  0.00    -0.005 A 
ATOM     34  C   UNL A   1      41.248 -22.228 -37.639  0.00  0.00    +0.047 A 
ATOM     35  N   UNL A   1      40.181 -22.842 -37.075  0.00  0.00    -0.251 NA
ATOM     36  C   UNL A   1      39.952 -22.674 -35.769  0.00  0.00    +0.073 A 
ATOM     37  C   UNL A   1      38.828 -23.284 -35.223  0.00  0.00    -0.036 A 
ATOM     38  C   UNL A   1      38.486 -23.138 -33.878  0.00  0.00    -0.060 A 
ATOM     39  C   UNL A   1      39.277 -22.354 -33.053  0.00  0.00    -0.061 A 
ATOM     40  C   UNL A   1      40.412 -21.738 -33.580  0.00  0.00    -0.051 A 
ATOM     41  C   UNL A   1      40.787 -21.905 -34.938  0.00  0.00    +0.021 A 
ATOM     42  C   UNL A   1      41.410 -22.479 -39.116  0.00  0.00    -0.010 C 
ATOM     43  C   UNL A   1      42.296 -21.453 -39.809  0.00  0.00    -0.047 C 
ATOM     44  C   UNL A   1      43.592 -21.293 -39.030  0.00  0.00    -0.049 C 
ATOM     45  C   UNL A   1      43.309 -20.772 -37.622  0.00  0.00    -0.024 C 
ENDBRANCH  30  32
ENDBRANCH  29  30
ENDBRANCH  28  29
ENDBRANCH  27  28
ENDBRANCH  26  27
ENDBRANCH   3  26
TORSDOF 11
ENDMDL
MODEL 4
REMARK VINA RESULT:    -7.969      1.524      4.622
REMARK INTER + INTRA:         -16.536
REMARK INTER:                 -12.734
REMARK INTRA:                  -3.802
REMARK UNBOUND:                -3.442
REMARK  Name = cpd31.pdb
REMARK  13 active torsions:
REMARK  status: ('A' for Active; 'I' for Inactive)
REMARK    1  A    between atoms: C_1  and  C_2
REMARK    2  A    between atoms: C_6  and  N_7
REMARK    3  A    between atoms: N_7  and  C_8
REMARK    4  A    between atoms: C_13  and  C_14
REMARK    5  A    between atoms: N_16  and  C_17
REMARK    6  A    between atoms: C_17  and  C_18
REMARK    7  A    between atoms: N_20  and  C_21
REMARK    8  A    between atoms: C_21  and  C_22
REMARK    9  A    between atoms: C_22  and  C_23
REMARK   10  A    between atoms: C_23  and  C_24
REMARK   11  A    between atoms: C_24  and  N_25
REMARK   12  A    between atoms: N_25  and  C_26
REMARK   13  A    between atoms: C_40  and  C_41
REMARK                            x       y       z     vdW  Elec       q    Type
REMARK                         _______ _______ _______ _____ _____    ______ ____
ROOT
ATOM      1  C   UNL A   1      46.722 -18.384 -35.255  0.00  0.00    +0.230 C 
ATOM      2  O   UNL A   1      46.988 -17.915 -34.151  0.00  0.00    -0.274 OA
ATOM      3  N   UNL A   1      45.955 -17.725 -36.192  0.00  0.00    -0.314 N 
ATOM      4  H   UNL A   1      45.875 -18.105 -37.097  0.00  0.00    +0.000 HD
ENDROOT
BRANCH   1   5
ATOM      5  C   UNL A   1      47.255 -19.757 -35.693  0.00  0.00    +0.088 C 
BRANCH   5   8
ATOM      6  C   UNL A   1      46.403 -20.510 -37.880  0.00  0.00    +0.246 C 
ATOM      7  O   UNL A   1      45.269 -20.669 -37.442  0.00  0.00    -0.270 OA
ATOM      8  N   UNL A   1      47.417 -19.947 -37.132  0.00  0.00    -0.303 N 
ATOM      9  H   UNL A   1      48.254 -19.673 -37.570  0.00  0.00    +0.000 HD
BRANCH   6  15
ATOM     10  C   UNL A   1      46.334 -20.132 -40.362  0.00  0.00    +0.044 A 
ATOM     11  C   UNL A   1      46.675 -20.561 -41.653  0.00  0.00    -0.040 A 
ATOM     12  C   UNL A   1      47.411 -21.730 -41.859  0.00  0.00    -0.060 A 
ATOM     13  C   UNL A   1      47.822 -22.497 -40.773  0.00  0.00    -0.061 A 
ATOM     14  C   UNL A   1      47.496 -22.097 -39.478  0.00  0.00    -0.048 A 
ATOM     15  C   UNL A   1      46.746 -20.928 -39.268  0.00  0.00    +0.058 A 
BRANCH  10  16
ATOM     16  N   UNL A   1      45.569 -18.961 -40.167  0.00  0.00    -0.314 N 
ATOM     17  H   UNL A   1      44.620 -19.130 -39.966  0.00  0.00    +0.000 HD
BRANCH  16  23
ATOM     18  C   UNL A   1      44.551 -14.277 -41.617  0.00  0.00    -0.039 C 
ATOM     19  C   UNL A   1      45.407 -15.296 -40.913  0.00  0.00    -0.046 A 
ATOM     20  C   UNL A   1      46.584 -14.859 -40.289  0.00  0.00    -0.058 A 
ATOM     21  C   UNL A   1      47.414 -15.760 -39.631  0.00  0.00    -0.060 A 
ATOM     22  C   UNL A   1      47.080 -17.113 -39.595  0.00  0.00    -0.040 A 
ATOM     23  C   UNL A   1      45.914 -17.592 -40.210  0.00  0.00    +0.035 A 
ATOM     24  C   UNL A   1      45.047 -16.665 -40.846  0.00  0.00    -0.026 A 
ATOM     25  C   UNL A   1      43.771 -17.152 -41.493  0.00  0.00    -0.038 C 
ENDBRANCH  16  23
ENDBRANCH  10  16
ENDBRANCH   6  15
ENDBRANCH   5   8
ENDBRANCH   1   5
BRANCH   3  26
ATOM     26  C   UNL A   1      45.263 -16.492 -35.887  0.00  0.00    +0.012 C 
BRANCH  26  27
ATOM     27  C   UNL A   1      43.866 -16.376 -36.500  0.00  0.00    -0.036 C 
BRANCH  27  28
ATOM     28  C   UNL A   1      43.461 -17.534 -37.419  0.00  0.00    -0.036 C 
BRANCH  28  29
ATOM     29  C   UNL A   1      42.316 -18.388 -36.871  0.00  0.00    +0.009 C 
BRANCH  29  30
ATOM     30  N   UNL A   1      42.759 -19.751 -36.527  0.00  0.00    -0.343 N 
ATOM     31  H   UNL A   1      43.622 -19.930 -36.088  0.00  0.00    +0.000 HD
BRANCH  30  32
ATOM     32  C   UNL A   1      41.850 -20.786 -36.876  0.00  0.00    +0.041 A 
ATOM     33  C   UNL A   1      41.791 -21.268 -38.203  0.00  0.00    -0.005 A 
ATOM     34  C   UNL A   1      40.929 -22.339 -38.467  0.00  0.00    +0.047 A 
ATOM     35  N   UNL A   1      40.185 -22.948 -37.514  0.00  0.00    -0.251 NA
ATOM     36  C   UNL A   1      40.223 -22.478 -36.263  0.00  0.00    +0.073 A 
ATOM     37  C   UNL A   1      39.420 -23.097 -35.312  0.00  0.00    -0.036 A 
ATOM     38  C   UNL A   1      39.364 -22.656 -33.990  0.00  0.00    -0.060 A 
ATOM     39  C   UNL A   1      40.119 -21.560 -33.602  0.00  0.00    -0.061 A 
ATOM     40  C   UNL A   1      40.935 -20.928 -34.540  0.00  0.00    -0.051 A 
ATOM     41  C   UNL A   1      41.025 -21.387 -35.880  0.00  0.00    +0.021 A 
ATOM     42  C   UNL A   1      40.809 -22.946 -39.842  0.00  0.00    -0.010 C 
ATOM     43  C   UNL A   1      41.258 -22.010 -40.955  0.00  0.00    -0.047 C 
ATOM     44  C   UNL A   1      42.624 -21.434 -40.616  0.00  0.00    -0.049 C 
ATOM     45  C   UNL A   1      42.553 -20.610 -39.331  0.00  0.00    -0.024 C 
ENDBRANCH  30  32
ENDBRANCH  29  30
ENDBRANCH  28  29
ENDBRANCH  27  28
ENDBRANCH  26  27
ENDBRANCH   3  26
TORSDOF 11
ENDMDL
MODEL 5
REMARK VINA RESULT:    -7.884      2.164      7.634
REMARK INTER + INTRA:         -16.396
REMARK INTER:                 -11.500
REMARK INTRA:                  -4.896
REMARK UNBOUND:                -3.442
REMARK  Name = cpd31.pdb
REMARK  13 active torsions:
REMARK  status: ('A' for Active; 'I' for Inactive)
REMARK    1  A    between atoms: C_1  and  C_2
REMARK    2  A    between atoms: C_6  and  N_7
REMARK    3  A    between atoms: N_7  and  C_8
REMARK    4  A    between atoms: C_13  and  C_14
REMARK    5  A    between atoms: N_16  and  C_17
REMARK    6  A    between atoms: C_17  and  C_18
REMARK    7  A    between atoms: N_20  and  C_21
REMARK    8  A    between atoms: C_21  and  C_22
REMARK    9  A    between atoms: C_22  and  C_23
REMARK   10  A    between atoms: C_23  and  C_24
REMARK   11  A    between atoms: C_24  and  N_25
REMARK   12  A    between atoms: N_25  and  C_26
REMARK   13  A    between atoms: C_40  and  C_41
REMARK                            x       y       z     vdW  Elec       q    Type
REMARK                         _______ _______ _______ _____ _____    ______ ____
ROOT
ATOM      1  C   UNL A   1      40.881 -21.485 -36.275  0.00  0.00    +0.230 C 
ATOM      2  O   UNL A   1      40.229 -22.525 -36.245  0.00  0.00    -0.274 OA
ATOM      3  N   UNL A   1      40.596 -20.436 -37.125  0.00  0.00    -0.314 N 
ATOM      4  H   UNL A   1      41.086 -19.589 -37.019  0.00  0.00    +0.000 HD
ENDROOT
BRANCH   1   5
ATOM      5  C   UNL A   1      42.073 -21.258 -35.332  0.00  0.00    +0.088 C 
BRANCH   5   8
ATOM      6  C   UNL A   1      44.300 -20.217 -35.151  0.00  0.00    +0.246 C 
ATOM      7  O   UNL A   1      44.379 -20.470 -33.954  0.00  0.00    -0.270 OA
ATOM      8  N   UNL A   1      43.264 -20.673 -35.941  0.00  0.00    -0.303 N 
ATOM      9  H   UNL A   1      43.329 -20.603 -36.920  0.00  0.00    +0.000 HD
BRANCH   6  15
ATOM     10  C   UNL A   1      45.344 -17.985 -35.634  0.00  0.00    +0.044 A 
ATOM     11  C   UNL A   1      46.338 -17.237 -36.284  0.00  0.00    -0.040 A 
ATOM     12  C   UNL A   1      47.305 -17.854 -37.081  0.00  0.00    -0.060 A 
ATOM     13  C   UNL A   1      47.297 -19.236 -37.246  0.00  0.00    -0.061 A 
ATOM     14  C   UNL A   1      46.321 -20.004 -36.614  0.00  0.00    -0.048 A 
ATOM     15  C   UNL A   1      45.339 -19.386 -35.821  0.00  0.00    +0.058 A 
BRANCH  10  16
ATOM     16  N   UNL A   1      44.357 -17.347 -34.850  0.00  0.00    -0.314 N 
ATOM     17  H   UNL A   1      43.434 -17.527 -35.143  0.00  0.00    +0.000 HD
BRANCH  16  23
ATOM     18  C   UNL A   1      43.810 -12.823 -32.774  0.00  0.00    -0.039 C 
ATOM     19  C   UNL A   1      44.172 -14.283 -32.707  0.00  0.00    -0.046 A 
ATOM     20  C   UNL A   1      44.620 -14.803 -31.484  0.00  0.00    -0.058 A 
ATOM     21  C   UNL A   1      44.972 -16.142 -31.371  0.00  0.00    -0.060 A 
ATOM     22  C   UNL A   1      44.889 -16.980 -32.482  0.00  0.00    -0.040 A 
ATOM     23  C   UNL A   1      44.450 -16.499 -33.724  0.00  0.00    +0.035 A 
ATOM     24  C   UNL A   1      44.052 -15.140 -33.829  0.00  0.00    -0.026 A 
ATOM     25  C   UNL A   1      43.551 -14.605 -35.150  0.00  0.00    -0.038 C 
ENDBRANCH  16  23
ENDBRANCH  10  16
ENDBRANCH   6  15
ENDBRANCH   5   8
ENDBRANCH   1   5
BRANCH   3  26
ATOM     26  C   UNL A   1      39.600 -20.544 -38.168  0.00  0.00    +0.012 C 
BRANCH  26  27
ATOM     27  C   UNL A   1      40.159 -20.498 -39.591  0.00  0.00    -0.036 C 
BRANCH  27  28
ATOM     28  C   UNL A   1      40.960 -21.734 -40.015  0.00  0.00    -0.036 C 
BRANCH  28  29
ATOM     29  C   UNL A   1      42.368 -21.416 -40.521  0.00  0.00    +0.009 C 
BRANCH  29  30
ATOM     30  N   UNL A   1      43.273 -21.024 -39.426  0.00  0.00    -0.343 N 
ATOM     31  H   UNL A   1      43.192 -21.391 -38.516  0.00  0.00    +0.000 HD
BRANCH  30  32
ATOM     32  C   UNL A   1      44.272 -20.076 -39.780  0.00  0.00    +0.041 A 
ATOM     33  C   UNL A   1      45.405 -20.477 -40.525  0.00  0.00    -0.005 A 
ATOM     34  C   UNL A   1      46.316 -19.484 -40.906  0.00  0.00    +0.047 A 
ATOM     35  N   UNL A   1      46.144 -18.171 -40.627  0.00  0.00    -0.251 NA
ATOM     36  C   UNL A   1      45.085 -17.794 -39.903  0.00  0.00    +0.073 A 
ATOM     37  C   UNL A   1      44.953 -16.445 -39.598  0.00  0.00    -0.036 A 
ATOM     38  C   UNL A   1      43.902 -15.961 -38.819  0.00  0.00    -0.060 A 
ATOM     39  C   UNL A   1      42.960 -16.845 -38.318  0.00  0.00    -0.061 A 
ATOM     40  C   UNL A   1      43.071 -18.202 -38.617  0.00  0.00    -0.051 A 
ATOM     41  C   UNL A   1      44.117 -18.702 -39.435  0.00  0.00    +0.021 A 
ATOM     42  C   UNL A   1      47.543 -19.799 -41.723  0.00  0.00    -0.010 C 
ATOM     43  C   UNL A   1      47.967 -21.258 -41.635  0.00  0.00    -0.047 C 
ATOM     44  C   UNL A   1      46.766 -22.154 -41.895  0.00  0.00    -0.049 C 
ATOM     45  C   UNL A   1      45.692 -21.929 -40.832  0.00  0.00    -0.024 C 
ENDBRANCH  30  32
ENDBRANCH  29  30
ENDBRANCH  28  29
ENDBRANCH  27  28
ENDBRANCH  26  27
ENDBRANCH   3  26
TORSDOF 11
ENDMDL
MODEL 6
REMARK VINA RESULT:    -7.696     18.437     22.502
REMARK INTER + INTRA:         -16.087
REMARK INTER:                 -10.844
REMARK INTRA:                  -5.243
REMARK UNBOUND:                -3.442
REMARK  Name = cpd31.pdb
REMARK  13 active torsions:
REMARK  status: ('A' for Active; 'I' for Inactive)
REMARK    1  A    between atoms: C_1  and  C_2
REMARK    2  A    between atoms: C_6  and  N_7
REMARK    3  A    between atoms: N_7  and  C_8
REMARK    4  A    between atoms: C_13  and  C_14
REMARK    5  A    between atoms: N_16  and  C_17
REMARK    6  A    between atoms: C_17  and  C_18
REMARK    7  A    between atoms: N_20  and  C_21
REMARK    8  A    between atoms: C_21  and  C_22
REMARK    9  A    between atoms: C_22  and  C_23
REMARK   10  A    between atoms: C_23  and  C_24
REMARK   11  A    between atoms: C_24  and  N_25
REMARK   12  A    between atoms: N_25  and  C_26
REMARK   13  A    between atoms: C_40  and  C_41
REMARK                            x       y       z     vdW  Elec       q    Type
REMARK                         _______ _______ _______ _____ _____    ______ ____
ROOT
ATOM      1  C   UNL A   1      33.362 -38.431 -32.311  0.00  0.00    +0.230 C 
ATOM      2  O   UNL A   1      32.289 -39.029 -32.306  0.00  0.00    -0.274 OA
ATOM      3  N   UNL A   1      34.520 -38.949 -31.768  0.00  0.00    -0.314 N 
ATOM      4  H   UNL A   1      35.368 -38.469 -31.907  0.00  0.00    +0.000 HD
ENDROOT
BRANCH   1   5
ATOM      5  C   UNL A   1      33.505 -37.044 -32.957  0.00  0.00    +0.088 C 
BRANCH   5   8
ATOM      6  C   UNL A   1      32.261 -35.013 -32.321  0.00  0.00    +0.246 C 
ATOM      7  O   UNL A   1      31.371 -35.240 -33.135  0.00  0.00    -0.270 OA
ATOM      8  N   UNL A   1      33.285 -35.904 -32.072  0.00  0.00    -0.303 N 
ATOM      9  H   UNL A   1      33.871 -35.769 -31.293  0.00  0.00    +0.000 HD
BRANCH   6  15
ATOM     10  C   UNL A   1      31.218 -33.443 -30.663  0.00  0.00    +0.044 A 
ATOM     11  C   UNL A   1      31.270 -32.231 -29.957  0.00  0.00    -0.040 A 
ATOM     12  C   UNL A   1      32.338 -31.345 -30.115  0.00  0.00    -0.060 A 
ATOM     13  C   UNL A   1      33.381 -31.654 -30.983  0.00  0.00    -0.061 A 
ATOM     14  C   UNL A   1      33.356 -32.850 -31.698  0.00  0.00    -0.048 A 
ATOM     15  C   UNL A   1      32.277 -33.738 -31.552  0.00  0.00    +0.058 A 
BRANCH  10  16
ATOM     16  N   UNL A   1      30.121 -34.319 -30.514  0.00  0.00    -0.314 N 
ATOM     17  H   UNL A   1      29.371 -34.130 -31.123  0.00  0.00    +0.000 HD
BRANCH  16  23
ATOM     18  C   UNL A   1      28.060 -36.233 -26.371  0.00  0.00    -0.039 C 
ATOM     19  C   UNL A   1      28.882 -36.354 -27.626  0.00  0.00    -0.046 A 
ATOM     20  C   UNL A   1      29.447 -37.600 -27.935  0.00  0.00    -0.058 A 
ATOM     21  C   UNL A   1      30.219 -37.764 -29.078  0.00  0.00    -0.060 A 
ATOM     22  C   UNL A   1      30.444 -36.681 -29.926  0.00  0.00    -0.040 A 
ATOM     23  C   UNL A   1      29.902 -35.417 -29.652  0.00  0.00    +0.035 A 
ATOM     24  C   UNL A   1      29.079 -35.261 -28.505  0.00  0.00    -0.026 A 
ATOM     25  C   UNL A   1      28.461 -33.915 -28.202  0.00  0.00    -0.038 C 
ENDBRANCH  16  23
ENDBRANCH  10  16
ENDBRANCH   6  15
ENDBRANCH   5   8
ENDBRANCH   1   5
BRANCH   3  26
ATOM     26  C   UNL A   1      34.525 -40.175 -31.001  0.00  0.00    +0.012 C 
BRANCH  26  27
ATOM     27  C   UNL A   1      35.916 -40.750 -30.728  0.00  0.00    -0.036 C 
BRANCH  27  28
ATOM     28  C   UNL A   1      36.311 -40.823 -29.249  0.00  0.00    -0.036 C 
BRANCH  28  29
ATOM     29  C   UNL A   1      35.460 -39.938 -28.337  0.00  0.00    +0.009 C 
BRANCH  29  30
ATOM     30  N   UNL A   1      36.216 -38.778 -27.831  0.00  0.00    -0.343 N 
ATOM     31  H   UNL A   1      36.943 -38.868 -27.173  0.00  0.00    +0.000 HD
BRANCH  30  32
ATOM     32  C   UNL A   1      35.818 -37.521 -28.362  0.00  0.00    +0.041 A 
ATOM     33  C   UNL A   1      36.533 -36.938 -29.432  0.00  0.00    -0.005 A 
ATOM     34  C   UNL A   1      36.048 -35.736 -29.959  0.00  0.00    +0.047 A 
ATOM     35  N   UNL A   1      34.919 -35.132 -29.519  0.00  0.00    -0.251 NA
ATOM     36  C   UNL A   1      34.255 -35.670 -28.490  0.00  0.00    +0.073 A 
ATOM     37  C   UNL A   1      33.121 -35.010 -28.033  0.00  0.00    -0.036 A 
ATOM     38  C   UNL A   1      32.383 -35.474 -26.944  0.00  0.00    -0.060 A 
ATOM     39  C   UNL A   1      32.788 -36.622 -26.283  0.00  0.00    -0.061 A 
ATOM     40  C   UNL A   1      33.920 -37.303 -26.730  0.00  0.00    -0.051 A 
ATOM     41  C   UNL A   1      34.661 -36.858 -27.856  0.00  0.00    +0.021 A 
ATOM     42  C   UNL A   1      36.720 -35.044 -31.118  0.00  0.00    -0.010 C 
ATOM     43  C   UNL A   1      38.178 -35.444 -31.295  0.00  0.00    -0.047 C 
ATOM     44  C   UNL A   1      38.294 -36.960 -31.287  0.00  0.00    -0.049 C 
ATOM     45  C   UNL A   1      37.828 -37.525 -29.947  0.00  0.00    -0.024 C 
ENDBRANCH  30  32
ENDBRANCH  29  30
ENDBRANCH  28  29
ENDBRANCH  27  28
ENDBRANCH  26  27
ENDBRANCH   3  26
TORSDOF 11
ENDMDL
MODEL 7
REMARK VINA RESULT:    -7.598      1.788      4.610
REMARK INTER + INTRA:         -15.926
REMARK INTER:                 -13.061
REMARK INTRA:                  -2.865
REMARK UNBOUND:                -3.442
REMARK  Name = cpd31.pdb
REMARK  13 active torsions:
REMARK  status: ('A' for Active; 'I' for Inactive)
REMARK    1  A    between atoms: C_1  and  C_2
REMARK    2  A    between atoms: C_6  and  N_7
REMARK    3  A    between atoms: N_7  and  C_8
REMARK    4  A    between atoms: C_13  and  C_14
REMARK    5  A    between atoms: N_16  and  C_17
REMARK    6  A    between atoms: C_17  and  C_18
REMARK    7  A    between atoms: N_20  and  C_21
REMARK    8  A    between atoms: C_21  and  C_22
REMARK    9  A    between atoms: C_22  and  C_23
REMARK   10  A    between atoms: C_23  and  C_24
REMARK   11  A    between atoms: C_24  and  N_25
REMARK   12  A    between atoms: N_25  and  C_26
REMARK   13  A    between atoms: C_40  and  C_41
REMARK                            x       y       z     vdW  Elec       q    Type
REMARK                         _______ _______ _______ _____ _____    ______ ____
ROOT
ATOM      1  C   UNL A   1      45.342 -18.764 -35.546  0.00  0.00    +0.230 C 
ATOM      2  O   UNL A   1      44.809 -17.996 -36.343  0.00  0.00    -0.274 OA
ATOM      3  N   UNL A   1      45.196 -18.657 -34.179  0.00  0.00    -0.314 N 
ATOM      4  H   UNL A   1      45.555 -19.371 -33.604  0.00  0.00    +0.000 HD
ENDROOT
BRANCH   1   5
ATOM      5  C   UNL A   1      46.207 -19.941 -36.023  0.00  0.00    +0.088 C 
BRANCH   5   8
ATOM      6  C   UNL A   1      46.579 -19.775 -38.454  0.00  0.00    +0.246 C 
ATOM      7  O   UNL A   1      47.502 -18.980 -38.312  0.00  0.00    -0.270 OA
ATOM      8  N   UNL A   1      45.963 -20.398 -37.388  0.00  0.00    -0.303 N 
ATOM      9  H   UNL A   1      45.356 -21.156 -37.549  0.00  0.00    +0.000 HD
BRANCH   6  15
ATOM     10  C   UNL A   1      45.386 -19.124 -40.566  0.00  0.00    +0.044 A 
ATOM     11  C   UNL A   1      44.919 -19.477 -41.841  0.00  0.00    -0.040 A 
ATOM     12  C   UNL A   1      45.128 -20.757 -42.361  0.00  0.00    -0.060 A 
ATOM     13  C   UNL A   1      45.812 -21.712 -41.615  0.00  0.00    -0.061 A 
ATOM     14  C   UNL A   1      46.286 -21.390 -40.345  0.00  0.00    -0.048 A 
ATOM     15  C   UNL A   1      46.068 -20.108 -39.813  0.00  0.00    +0.058 A 
BRANCH  10  16
ATOM     16  N   UNL A   1      45.147 -17.835 -40.040  0.00  0.00    -0.314 N 
ATOM     17  H   UNL A   1      45.131 -17.799 -39.057  0.00  0.00    +0.000 HD
BRANCH  16  23
ATOM     18  C   UNL A   1      46.895 -13.436 -41.674  0.00  0.00    -0.039 C 
ATOM     19  C   UNL A   1      45.789 -14.436 -41.475  0.00  0.00    -0.046 A 
ATOM     20  C   UNL A   1      44.502 -14.106 -41.925  0.00  0.00    -0.058 A 
ATOM     21  C   UNL A   1      43.444 -14.992 -41.760  0.00  0.00    -0.060 A 
ATOM     22  C   UNL A   1      43.657 -16.219 -41.135  0.00  0.00    -0.040 A 
ATOM     23  C   UNL A   1      44.927 -16.588 -40.667  0.00  0.00    +0.035 A 
ATOM     24  C   UNL A   1      46.015 -15.699 -40.872  0.00  0.00    -0.026 A 
ATOM     25  C   UNL A   1      47.398 -16.084 -40.401  0.00  0.00    -0.038 C 
ENDBRANCH  16  23
ENDBRANCH  10  16
ENDBRANCH   6  15
ENDBRANCH   5   8
ENDBRANCH   1   5
BRANCH   3  26
ATOM     26  C   UNL A   1      44.534 -17.528 -33.564  0.00  0.00    +0.012 C 
BRANCH  26  27
ATOM     27  C   UNL A   1      43.037 -17.724 -33.318  0.00  0.00    -0.036 C 
BRANCH  27  28
ATOM     28  C   UNL A   1      42.609 -19.167 -33.027  0.00  0.00    -0.036 C 
BRANCH  28  29
ATOM     29  C   UNL A   1      41.658 -19.754 -34.072  0.00  0.00    +0.009 C 
BRANCH  29  30
ATOM     30  N   UNL A   1      42.163 -21.021 -34.630  0.00  0.00    -0.343 N 
ATOM     31  H   UNL A   1      43.050 -21.382 -34.401  0.00  0.00    +0.000 HD
BRANCH  30  32
ATOM     32  C   UNL A   1      41.277 -21.683 -35.523  0.00  0.00    +0.041 A 
ATOM     33  C   UNL A   1      41.451 -21.564 -36.920  0.00  0.00    -0.005 A 
ATOM     34  C   UNL A   1      40.592 -22.299 -37.746  0.00  0.00    +0.047 A 
ATOM     35  N   UNL A   1      39.638 -23.133 -37.272  0.00  0.00    -0.251 NA
ATOM     36  C   UNL A   1      39.457 -23.228 -35.950  0.00  0.00    +0.073 A 
ATOM     37  C   UNL A   1      38.446 -24.063 -35.491  0.00  0.00    -0.036 A 
ATOM     38  C   UNL A   1      38.158 -24.200 -34.132  0.00  0.00    -0.060 A 
ATOM     39  C   UNL A   1      38.890 -23.478 -33.203  0.00  0.00    -0.061 A 
ATOM     40  C   UNL A   1      39.913 -22.639 -33.643  0.00  0.00    -0.051 A 
ATOM     41  C   UNL A   1      40.236 -22.516 -35.019  0.00  0.00    +0.021 A 
ATOM     42  C   UNL A   1      40.707 -22.264 -39.248  0.00  0.00    -0.010 C 
ATOM     43  C   UNL A   1      41.426 -21.028 -39.770  0.00  0.00    -0.047 C 
ATOM     44  C   UNL A   1      42.731 -20.841 -39.013  0.00  0.00    -0.049 C 
ATOM     45  C   UNL A   1      42.460 -20.616 -37.526  0.00  0.00    -0.024 C 
ENDBRANCH  30  32
ENDBRANCH  29  30
ENDBRANCH  28  29
ENDBRANCH  27  28
ENDBRANCH  26  27
ENDBRANCH   3  26
TORSDOF 11
ENDMDL
MODEL 8
REMARK VINA RESULT:    -7.564      1.831      3.511
REMARK INTER + INTRA:         -15.870
REMARK INTER:                 -11.470
REMARK INTRA:                  -4.400
REMARK UNBOUND:                -3.442
REMARK  Name = cpd31.pdb
REMARK  13 active torsions:
REMARK  status: ('A' for Active; 'I' for Inactive)
REMARK    1  A    between atoms: C_1  and  C_2
REMARK    2  A    between atoms: C_6  and  N_7
REMARK    3  A    between atoms: N_7  and  C_8
REMARK    4  A    between atoms: C_13  and  C_14
REMARK    5  A    between atoms: N_16  and  C_17
REMARK    6  A    between atoms: C_17  and  C_18
REMARK    7  A    between atoms: N_20  and  C_21
REMARK    8  A    between atoms: C_21  and  C_22
REMARK    9  A    between atoms: C_22  and  C_23
REMARK   10  A    between atoms: C_23  and  C_24
REMARK   11  A    between atoms: C_24  and  N_25
REMARK   12  A    between atoms: N_25  and  C_26
REMARK   13  A    between atoms: C_40  and  C_41
REMARK                            x       y       z     vdW  Elec       q    Type
REMARK                         _______ _______ _______ _____ _____    ______ ____
ROOT
ATOM      1  C   UNL A   1      46.688 -18.687 -34.781  0.00  0.00    +0.230 C 
ATOM      2  O   UNL A   1      47.426 -17.738 -34.529  0.00  0.00    -0.274 OA
ATOM      3  N   UNL A   1      45.326 -18.666 -34.564  0.00  0.00    -0.314 N 
ATOM      4  H   UNL A   1      44.779 -19.415 -34.893  0.00  0.00    +0.000 HD
ENDROOT
BRANCH   1   5
ATOM      5  C   UNL A   1      47.234 -19.987 -35.392  0.00  0.00    +0.088 C 
BRANCH   5   8
ATOM      6  C   UNL A   1      46.131 -20.258 -37.580  0.00  0.00    +0.246 C 
ATOM      7  O   UNL A   1      45.011 -20.208 -37.080  0.00  0.00    -0.270 OA
ATOM      8  N   UNL A   1      47.281 -20.034 -36.851  0.00  0.00    -0.303 N 
ATOM      9  H   UNL A   1      48.138 -19.904 -37.317  0.00  0.00    +0.000 HD
BRANCH   6  15
ATOM     10  C   UNL A   1      46.250 -19.529 -39.980  0.00  0.00    +0.044 A 
ATOM     11  C   UNL A   1      46.415 -19.866 -41.332  0.00  0.00    -0.040 A 
ATOM     12  C   UNL A   1      46.637 -21.187 -41.729  0.00  0.00    -0.060 A 
ATOM     13  C   UNL A   1      46.700 -22.201 -40.779  0.00  0.00    -0.061 A 
ATOM     14  C   UNL A   1      46.538 -21.897 -39.428  0.00  0.00    -0.048 A 
ATOM     15  C   UNL A   1      46.303 -20.572 -39.026  0.00  0.00    +0.058 A 
BRANCH  10  16
ATOM     16  N   UNL A   1      46.002 -18.194 -39.593  0.00  0.00    -0.314 N 
ATOM     17  H   UNL A   1      46.719 -17.793 -39.051  0.00  0.00    +0.000 HD
BRANCH  16  23
ATOM     18  C   UNL A   1      42.738 -14.762 -37.966  0.00  0.00    -0.039 C 
ATOM     19  C   UNL A   1      43.321 -15.639 -39.041  0.00  0.00    -0.046 A 
ATOM     20  C   UNL A   1      42.752 -15.590 -40.322  0.00  0.00    -0.058 A 
ATOM     21  C   UNL A   1      43.249 -16.384 -41.349  0.00  0.00    -0.060 A 
ATOM     22  C   UNL A   1      44.317 -17.245 -41.106  0.00  0.00    -0.040 A 
ATOM     23  C   UNL A   1      44.913 -17.329 -39.839  0.00  0.00    +0.035 A 
ATOM     24  C   UNL A   1      44.430 -16.487 -38.802  0.00  0.00    -0.026 A 
ATOM     25  C   UNL A   1      45.072 -16.539 -37.434  0.00  0.00    -0.038 C 
ENDBRANCH  16  23
ENDBRANCH  10  16
ENDBRANCH   6  15
ENDBRANCH   5   8
ENDBRANCH   1   5
BRANCH   3  26
ATOM     26  C   UNL A   1      44.678 -17.578 -33.867  0.00  0.00    +0.012 C 
BRANCH  26  27
ATOM     27  C   UNL A   1      43.234 -17.860 -33.446  0.00  0.00    -0.036 C 
BRANCH  27  28
ATOM     28  C   UNL A   1      42.162 -17.162 -34.291  0.00  0.00    -0.036 C 
BRANCH  28  29
ATOM     29  C   UNL A   1      42.112 -17.638 -35.744  0.00  0.00    +0.009 C 
BRANCH  29  30
ATOM     30  N   UNL A   1      40.877 -18.387 -36.038  0.00  0.00    -0.343 N 
ATOM     31  H   UNL A   1      39.999 -17.948 -36.113  0.00  0.00    +0.000 HD
BRANCH  30  32
ATOM     32  C   UNL A   1      41.047 -19.789 -36.203  0.00  0.00    +0.041 A 
ATOM     33  C   UNL A   1      40.674 -20.680 -35.172  0.00  0.00    -0.005 A 
ATOM     34  C   UNL A   1      40.797 -22.052 -35.424  0.00  0.00    +0.047 A 
ATOM     35  N   UNL A   1      41.217 -22.556 -36.608  0.00  0.00    -0.251 NA
ATOM     36  C   UNL A   1      41.592 -21.713 -37.576  0.00  0.00    +0.073 A 
ATOM     37  C   UNL A   1      42.056 -22.257 -38.767  0.00  0.00    -0.036 A 
ATOM     38  C   UNL A   1      42.503 -21.460 -39.821  0.00  0.00    -0.060 A 
ATOM     39  C   UNL A   1      42.498 -20.081 -39.684  0.00  0.00    -0.061 A 
ATOM     40  C   UNL A   1      42.032 -19.515 -38.498  0.00  0.00    -0.051 A 
ATOM     41  C   UNL A   1      41.545 -20.314 -37.432  0.00  0.00    +0.021 A 
ATOM     42  C   UNL A   1      40.403 -23.088 -34.403  0.00  0.00    -0.010 C 
ATOM     43  C   UNL A   1      40.383 -22.553 -32.978  0.00  0.00    -0.047 C 
ATOM     44  C   UNL A   1      39.585 -21.260 -32.932  0.00  0.00    -0.049 C 
ATOM     45  C   UNL A   1      40.243 -20.194 -33.807  0.00  0.00    -0.024 C 
ENDBRANCH  30  32
ENDBRANCH  29  30
ENDBRANCH  28  29
ENDBRANCH  27  28
ENDBRANCH  26  27
ENDBRANCH   3  26
TORSDOF 11
ENDMDL
MODEL 9
REMARK VINA RESULT:    -7.554     18.740     22.571
REMARK INTER + INTRA:         -15.853
REMARK INTER:                 -11.145
REMARK INTRA:                  -4.708
REMARK UNBOUND:                -3.442
REMARK  Name = cpd31.pdb
REMARK  13 active torsions:
REMARK  status: ('A' for Active; 'I' for Inactive)
REMARK    1  A    between atoms: C_1  and  C_2
REMARK    2  A    between atoms: C_6  and  N_7
REMARK    3  A    between atoms: N_7  and  C_8
REMARK    4  A    between atoms: C_13  and  C_14
REMARK    5  A    between atoms: N_16  and  C_17
REMARK    6  A    between atoms: C_17  and  C_18
REMARK    7  A    between atoms: N_20  and  C_21
REMARK    8  A    between atoms: C_21  and  C_22
REMARK    9  A    between atoms: C_22  and  C_23
REMARK   10  A    between atoms: C_23  and  C_24
REMARK   11  A    between atoms: C_24  and  N_25
REMARK   12  A    between atoms: N_25  and  C_26
REMARK   13  A    between atoms: C_40  and  C_41
REMARK                            x       y       z     vdW  Elec       q    Type
REMARK                         _______ _______ _______ _____ _____    ______ ____
ROOT
ATOM      1  C   UNL A   1      31.958 -35.925 -25.986  0.00  0.00    +0.230 C 
ATOM      2  O   UNL A   1      30.828 -36.197 -25.590  0.00  0.00    -0.274 OA
ATOM      3  N   UNL A   1      33.097 -36.540 -25.507  0.00  0.00    -0.314 N 
ATOM      4  H   UNL A   1      33.958 -36.358 -25.948  0.00  0.00    +0.000 HD
ENDROOT
BRANCH   1   5
ATOM      5  C   UNL A   1      32.193 -34.877 -27.085  0.00  0.00    +0.088 C 
BRANCH   5   8
ATOM      6  C   UNL A   1      33.222 -34.634 -29.312  0.00  0.00    +0.246 C 
ATOM      7  O   UNL A   1      33.789 -33.593 -28.994  0.00  0.00    -0.270 OA
ATOM      8  N   UNL A   1      32.518 -35.403 -28.408  0.00  0.00    -0.303 N 
ATOM      9  H   UNL A   1      32.234 -36.312 -28.656  0.00  0.00    +0.000 HD
BRANCH   6  15
ATOM     10  C   UNL A   1      34.514 -35.398 -31.324  0.00  0.00    +0.044 A 
ATOM     11  C   UNL A   1      34.513 -35.856 -32.651  0.00  0.00    -0.040 A 
ATOM     12  C   UNL A   1      33.321 -36.047 -33.352  0.00  0.00    -0.060 A 
ATOM     13  C   UNL A   1      32.099 -35.785 -32.739  0.00  0.00    -0.061 A 
ATOM     14  C   UNL A   1      32.069 -35.328 -31.423  0.00  0.00    -0.048 A 
ATOM     15  C   UNL A   1      33.267 -35.123 -30.718  0.00  0.00    +0.058 A 
BRANCH  10  16
ATOM     16  N   UNL A   1      35.727 -35.185 -30.634  0.00  0.00    -0.314 N 
ATOM     17  H   UNL A   1      36.039 -34.251 -30.649  0.00  0.00    +0.000 HD
BRANCH  16  23
ATOM     18  C   UNL A   1      40.137 -37.510 -30.161  0.00  0.00    -0.039 C 
ATOM     19  C   UNL A   1      38.742 -37.195 -29.692  0.00  0.00    -0.046 A 
ATOM     20  C   UNL A   1      38.281 -37.806 -28.517  0.00  0.00    -0.058 A 
ATOM     21  C   UNL A   1      36.998 -37.555 -28.044  0.00  0.00    -0.060 A 
ATOM     22  C   UNL A   1      36.156 -36.694 -28.745  0.00  0.00    -0.040 A 
ATOM     23  C   UNL A   1      36.576 -36.065 -29.926  0.00  0.00    +0.035 A 
ATOM     24  C   UNL A   1      37.900 -36.291 -30.386  0.00  0.00    -0.026 A 
ATOM     25  C   UNL A   1      38.386 -35.605 -31.642  0.00  0.00    -0.038 C 
ENDBRANCH  16  23
ENDBRANCH  10  16
ENDBRANCH   6  15
ENDBRANCH   5   8
ENDBRANCH   1   5
BRANCH   3  26
ATOM     26  C   UNL A   1      33.063 -37.442 -24.378  0.00  0.00    +0.012 C 
BRANCH  26  27
ATOM     27  C   UNL A   1      33.421 -38.893 -24.711  0.00  0.00    -0.036 C 
BRANCH  27  28
ATOM     28  C   UNL A   1      32.521 -39.560 -25.757  0.00  0.00    -0.036 C 
BRANCH  28  29
ATOM     29  C   UNL A   1      33.266 -40.013 -27.014  0.00  0.00    +0.009 C 
BRANCH  29  30
ATOM     30  N   UNL A   1      33.465 -38.907 -27.968  0.00  0.00    -0.343 N 
ATOM     31  H   UNL A   1      33.865 -38.047 -27.703  0.00  0.00    +0.000 HD
BRANCH  30  32
ATOM     32  C   UNL A   1      33.036 -39.172 -29.297  0.00  0.00    +0.041 A 
ATOM     33  C   UNL A   1      31.744 -38.785 -29.721  0.00  0.00    -0.005 A 
ATOM     34  C   UNL A   1      31.408 -39.007 -31.062  0.00  0.00    +0.047 A 
ATOM     35  N   UNL A   1      32.265 -39.536 -31.966  0.00  0.00    -0.251 NA
ATOM     36  C   UNL A   1      33.479 -39.923 -31.560  0.00  0.00    +0.073 A 
ATOM     37  C   UNL A   1      34.325 -40.498 -32.501  0.00  0.00    -0.036 A 
ATOM     38  C   UNL A   1      35.596 -40.965 -32.165  0.00  0.00    -0.060 A 
ATOM     39  C   UNL A   1      36.036 -40.869 -30.854  0.00  0.00    -0.061 A 
ATOM     40  C   UNL A   1      35.203 -40.290 -29.897  0.00  0.00    -0.051 A 
ATOM     41  C   UNL A   1      33.922 -39.782 -30.232  0.00  0.00    +0.021 A 
ATOM     42  C   UNL A   1      30.067 -38.610 -31.624  0.00  0.00    -0.010 C 
ATOM     43  C   UNL A   1      28.988 -38.461 -30.560  0.00  0.00    -0.047 C 
ATOM     44  C   UNL A   1      29.504 -37.586 -29.430  0.00  0.00    -0.049 C 
ATOM     45  C   UNL A   1      30.715 -38.235 -28.761  0.00  0.00    -0.024 C 
ENDBRANCH  30  32
ENDBRANCH  29  30
ENDBRANCH  28  29
ENDBRANCH  27  28
ENDBRANCH  26  27
ENDBRANCH   3  26
TORSDOF 11
ENDMDL
MODEL 10
REMARK VINA RESULT:    -7.549      1.614      3.258
REMARK INTER + INTRA:         -15.844
REMARK INTER:                 -12.405
REMARK INTRA:                  -3.440
REMARK UNBOUND:                -3.442
REMARK  Name = cpd31.pdb
REMARK  13 active torsions:
REMARK  status: ('A' for Active; 'I' for Inactive)
REMARK    1  A    between atoms: C_1  and  C_2
REMARK    2  A    between atoms: C_6  and  N_7
REMARK    3  A    between atoms: N_7  and  C_8
REMARK    4  A    between atoms: C_13  and  C_14
REMARK    5  A    between atoms: N_16  and  C_17
REMARK    6  A    between atoms: C_17  and  C_18
REMARK    7  A    between atoms: N_20  and  C_21
REMARK    8  A    between atoms: C_21  and  C_22
REMARK    9  A    between atoms: C_22  and  C_23
REMARK   10  A    between atoms: C_23  and  C_24
REMARK   11  A    between atoms: C_24  and  N_25
REMARK   12  A    between atoms: N_25  and  C_26
REMARK   13  A    between atoms: C_40  and  C_41
REMARK                            x       y       z     vdW  Elec       q    Type
REMARK                         _______ _______ _______ _____ _____    ______ ____
ROOT
ATOM      1  C   UNL A   1      45.104 -19.372 -34.173  0.00  0.00    +0.230 C 
ATOM      2  O   UNL A   1      44.089 -19.889 -33.716  0.00  0.00    -0.274 OA
ATOM      3  N   UNL A   1      45.588 -18.150 -33.752  0.00  0.00    -0.314 N 
ATOM      4  H   UNL A   1      46.466 -17.847 -34.077  0.00  0.00    +0.000 HD
ENDROOT
BRANCH   1   5
ATOM      5  C   UNL A   1      45.945 -20.072 -35.252  0.00  0.00    +0.088 C 
BRANCH   5   8
ATOM      6  C   UNL A   1      47.188 -18.835 -36.985  0.00  0.00    +0.246 C 
ATOM      7  O   UNL A   1      48.266 -19.052 -36.440  0.00  0.00    -0.270 OA
ATOM      8  N   UNL A   1      46.007 -19.399 -36.547  0.00  0.00    -0.303 N 
ATOM      9  H   UNL A   1      45.202 -19.348 -37.110  0.00  0.00    +0.000 HD
BRANCH   6  15
ATOM     10  C   UNL A   1      47.020 -18.486 -39.465  0.00  0.00    +0.044 A 
ATOM     11  C   UNL A   1      46.944 -17.602 -40.553  0.00  0.00    -0.040 A 
ATOM     12  C   UNL A   1      46.937 -16.218 -40.364  0.00  0.00    -0.060 A 
ATOM     13  C   UNL A   1      47.005 -15.687 -39.080  0.00  0.00    -0.061 A 
ATOM     14  C   UNL A   1      47.084 -16.540 -37.980  0.00  0.00    -0.048 A 
ATOM     15  C   UNL A   1      47.103 -17.933 -38.167  0.00  0.00    +0.058 A 
BRANCH  10  16
ATOM     16  N   UNL A   1      47.051 -19.883 -39.670  0.00  0.00    -0.314 N 
ATOM     17  H   UNL A   1      47.538 -20.380 -38.973  0.00  0.00    +0.000 HD
BRANCH  16  23
ATOM     18  C   UNL A   1      47.285 -24.011 -42.495  0.00  0.00    -0.039 C 
ATOM     19  C   UNL A   1      46.625 -22.728 -42.067  0.00  0.00    -0.046 A 
ATOM     20  C   UNL A   1      45.444 -22.338 -42.713  0.00  0.00    -0.058 A 
ATOM     21  C   UNL A   1      44.799 -21.159 -42.360  0.00  0.00    -0.060 A 
ATOM     22  C   UNL A   1      45.332 -20.348 -41.359  0.00  0.00    -0.040 A 
ATOM     23  C   UNL A   1      46.513 -20.698 -40.690  0.00  0.00    +0.035 A 
ATOM     24  C   UNL A   1      47.149 -21.923 -41.024  0.00  0.00    -0.026 A 
ATOM     25  C   UNL A   1      48.410 -22.337 -40.300  0.00  0.00    -0.038 C 
ENDBRANCH  16  23
ENDBRANCH  10  16
ENDBRANCH   6  15
ENDBRANCH   5   8
ENDBRANCH   1   5
BRANCH   3  26
ATOM     26  C   UNL A   1      44.843 -17.301 -32.849  0.00  0.00    +0.012 C 
BRANCH  26  27
ATOM     27  C   UNL A   1      43.948 -16.269 -33.538  0.00  0.00    -0.036 C 
BRANCH  27  28
ATOM     28  C   UNL A   1      42.510 -16.202 -33.013  0.00  0.00    -0.036 C 
BRANCH  28  29
ATOM     29  C   UNL A   1      41.762 -17.535 -33.087  0.00  0.00    +0.009 C 
BRANCH  29  30
ATOM     30  N   UNL A   1      40.908 -17.623 -34.286  0.00  0.00    -0.343 N 
ATOM     31  H   UNL A   1      40.184 -16.980 -34.467  0.00  0.00    +0.000 HD
BRANCH  30  32
ATOM     32  C   UNL A   1      41.206 -18.703 -35.160  0.00  0.00    +0.041 A 
ATOM     33  C   UNL A   1      42.002 -18.494 -36.309  0.00  0.00    -0.005 A 
ATOM     34  C   UNL A   1      42.322 -19.611 -37.089  0.00  0.00    +0.047 A 
ATOM     35  N   UNL A   1      41.938 -20.871 -36.777  0.00  0.00    -0.251 NA
ATOM     36  C   UNL A   1      41.166 -21.067 -35.703  0.00  0.00    +0.073 A 
ATOM     37  C   UNL A   1      40.755 -22.365 -35.427  0.00  0.00    -0.036 A 
ATOM     38  C   UNL A   1      39.920 -22.664 -34.350  0.00  0.00    -0.060 A 
ATOM     39  C   UNL A   1      39.471 -21.642 -33.529  0.00  0.00    -0.061 A 
ATOM     40  C   UNL A   1      39.877 -20.333 -33.786  0.00  0.00    -0.051 A 
ATOM     41  C   UNL A   1      40.752 -20.021 -34.859  0.00  0.00    +0.021 A 
ATOM     42  C   UNL A   1      43.184 -19.503 -38.321  0.00  0.00    -0.010 C 
ATOM     43  C   UNL A   1      43.220 -18.100 -38.911  0.00  0.00    -0.047 C 
ATOM     44  C   UNL A   1      43.525 -17.094 -37.813  0.00  0.00    -0.049 C 
ATOM     45  C   UNL A   1      42.427 -17.112 -36.750  0.00  0.00    -0.024 C 
ENDBRANCH  30  32
ENDBRANCH  29  30
ENDBRANCH  28  29
ENDBRANCH  27  28
ENDBRANCH  26  27
ENDBRANCH   3  26
TORSDOF 11
ENDMDL
MODEL 11
REMARK VINA RESULT:    -7.445      2.208      2.902
REMARK INTER + INTRA:         -15.674
REMARK INTER:                 -13.447
REMARK INTRA:                  -2.226
REMARK UNBOUND:                -3.442
REMARK  Name = cpd31.pdb
REMARK  13 active torsions:
REMARK  status: ('A' for Active; 'I' for Inactive)
REMARK    1  A    between atoms: C_1  and  C_2
REMARK    2  A    between atoms: C_6  and  N_7
REMARK    3  A    between atoms: N_7  and  C_8
REMARK    4  A    between atoms: C_13  and  C_14
REMARK    5  A    between atoms: N_16  and  C_17
REMARK    6  A    between atoms: C_17  and  C_18
REMARK    7  A    between atoms: N_20  and  C_21
REMARK    8  A    between atoms: C_21  and  C_22
REMARK    9  A    between atoms: C_22  and  C_23
REMARK   10  A    between atoms: C_23  and  C_24
REMARK   11  A    between atoms: C_24  and  N_25
REMARK   12  A    between atoms: N_25  and  C_26
REMARK   13  A    between atoms: C_40  and  C_41
REMARK                            x       y       z     vdW  Elec       q    Type
REMARK                         _______ _______ _______ _____ _____    ______ ____
ROOT
ATOM      1  C   UNL A   1      44.760 -19.154 -33.746  0.00  0.00    +0.230 C 
ATOM      2  O   UNL A   1      45.225 -18.446 -32.856  0.00  0.00    -0.274 OA
ATOM      3  N   UNL A   1      43.416 -19.445 -33.858  0.00  0.00    -0.314 N 
ATOM      4  H   UNL A   1      43.097 -19.922 -34.657  0.00  0.00    +0.000 HD
ENDROOT
BRANCH   1   5
ATOM      5  C   UNL A   1      45.655 -19.759 -34.839  0.00  0.00    +0.088 C 
BRANCH   5   8
ATOM      6  C   UNL A   1      45.333 -18.546 -36.961  0.00  0.00    +0.246 C 
ATOM      7  O   UNL A   1      44.150 -18.864 -37.024  0.00  0.00    -0.270 OA
ATOM      8  N   UNL A   1      46.122 -18.831 -35.865  0.00  0.00    -0.303 N 
ATOM      9  H   UNL A   1      47.005 -18.406 -35.775  0.00  0.00    +0.000 HD
BRANCH   6  15
ATOM     10  C   UNL A   1      45.899 -18.349 -39.399  0.00  0.00    +0.044 A 
ATOM     11  C   UNL A   1      46.529 -17.640 -40.434  0.00  0.00    -0.040 A 
ATOM     12  C   UNL A   1      47.210 -16.447 -40.186  0.00  0.00    -0.060 A 
ATOM     13  C   UNL A   1      47.275 -15.934 -38.894  0.00  0.00    -0.061 A 
ATOM     14  C   UNL A   1      46.661 -16.617 -37.845  0.00  0.00    -0.048 A 
ATOM     15  C   UNL A   1      45.985 -17.825 -38.089  0.00  0.00    +0.058 A 
BRANCH  10  16
ATOM     16  N   UNL A   1      45.235 -19.568 -39.658  0.00  0.00    -0.314 N 
ATOM     17  H   UNL A   1      44.538 -19.793 -39.000  0.00  0.00    +0.000 HD
BRANCH  16  23
ATOM     18  C   UNL A   1      47.527 -23.617 -41.510  0.00  0.00    -0.039 C 
ATOM     19  C   UNL A   1      46.505 -22.514 -41.588  0.00  0.00    -0.046 A 
ATOM     20  C   UNL A   1      45.688 -22.442 -42.725  0.00  0.00    -0.058 A 
ATOM     21  C   UNL A   1      44.733 -21.440 -42.849  0.00  0.00    -0.060 A 
ATOM     22  C   UNL A   1      44.587 -20.490 -41.839  0.00  0.00    -0.040 A 
ATOM     23  C   UNL A   1      45.386 -20.524 -40.687  0.00  0.00    +0.035 A 
ATOM     24  C   UNL A   1      46.333 -21.572 -40.543  0.00  0.00    -0.026 A 
ATOM     25  C   UNL A   1      47.189 -21.645 -39.299  0.00  0.00    -0.038 C 
ENDBRANCH  16  23
ENDBRANCH  10  16
ENDBRANCH   6  15
ENDBRANCH   5   8
ENDBRANCH   1   5
BRANCH   3  26
ATOM     26  C   UNL A   1      42.464 -19.072 -32.836  0.00  0.00    +0.012 C 
BRANCH  26  27
ATOM     27  C   UNL A   1      41.307 -20.057 -32.653  0.00  0.00    -0.036 C 
BRANCH  27  28
ATOM     28  C   UNL A   1      41.327 -21.266 -33.594  0.00  0.00    -0.036 C 
BRANCH  28  29
ATOM     29  C   UNL A   1      40.384 -22.395 -33.173  0.00  0.00    +0.009 C 
BRANCH  29  30
ATOM     30  N   UNL A   1      39.517 -22.833 -34.282  0.00  0.00    -0.343 N 
ATOM     31  H   UNL A   1      39.281 -23.778 -34.426  0.00  0.00    +0.000 HD
BRANCH  30  32
ATOM     32  C   UNL A   1      39.048 -21.791 -35.128  0.00  0.00    +0.041 A 
ATOM     33  C   UNL A   1      38.072 -20.880 -34.665  0.00  0.00    -0.005 A 
ATOM     34  C   UNL A   1      37.705 -19.832 -35.518  0.00  0.00    +0.047 A 
ATOM     35  N   UNL A   1      38.262 -19.635 -36.735  0.00  0.00    -0.251 NA
ATOM     36  C   UNL A   1      39.168 -20.510 -37.184  0.00  0.00    +0.073 A 
ATOM     37  C   UNL A   1      39.695 -20.306 -38.454  0.00  0.00    -0.036 A 
ATOM     38  C   UNL A   1      40.619 -21.184 -39.022  0.00  0.00    -0.060 A 
ATOM     39  C   UNL A   1      41.024 -22.303 -38.312  0.00  0.00    -0.061 A 
ATOM     40  C   UNL A   1      40.510 -22.523 -37.034  0.00  0.00    -0.051 A 
ATOM     41  C   UNL A   1      39.595 -21.621 -36.434  0.00  0.00    +0.021 A 
ATOM     42  C   UNL A   1      36.693 -18.791 -35.112  0.00  0.00    -0.010 C 
ATOM     43  C   UNL A   1      35.766 -19.254 -33.998  0.00  0.00    -0.047 C 
ATOM     44  C   UNL A   1      36.589 -19.837 -32.860  0.00  0.00    -0.049 C 
ATOM     45  C   UNL A   1      37.370 -21.061 -33.338  0.00  0.00    -0.024 C 
ENDBRANCH  30  32
ENDBRANCH  29  30
ENDBRANCH  28  29
ENDBRANCH  27  28
ENDBRANCH  26  27
ENDBRANCH   3  26
TORSDOF 11
ENDMDL
MODEL 12
REMARK VINA RESULT:    -7.440     18.036     21.510
REMARK INTER + INTRA:         -15.666
REMARK INTER:                 -11.887
REMARK INTRA:                  -3.779
REMARK UNBOUND:                -3.442
REMARK  Name = cpd31.pdb
REMARK  13 active torsions:
REMARK  status: ('A' for Active; 'I' for Inactive)
REMARK    1  A    between atoms: C_1  and  C_2
REMARK    2  A    between atoms: C_6  and  N_7
REMARK    3  A    between atoms: N_7  and  C_8
REMARK    4  A    between atoms: C_13  and  C_14
REMARK    5  A    between atoms: N_16  and  C_17
REMARK    6  A    between atoms: C_17  and  C_18
REMARK    7  A    between atoms: N_20  and  C_21
REMARK    8  A    between atoms: C_21  and  C_22
REMARK    9  A    between atoms: C_22  and  C_23
REMARK   10  A    between atoms: C_23  and  C_24
REMARK   11  A    between atoms: C_24  and  N_25
REMARK   12  A    between atoms: N_25  and  C_26
REMARK   13  A    between atoms: C_40  and  C_41
REMARK                            x       y       z     vdW  Elec       q    Type
REMARK                         _______ _______ _______ _____ _____    ______ ____
ROOT
ATOM      1  C   UNL A   1      33.311 -39.365 -26.520  0.00  0.00    +0.230 C 
ATOM      2  O   UNL A   1      33.539 -39.259 -25.318  0.00  0.00    -0.274 OA
ATOM      3  N   UNL A   1      32.086 -39.079 -27.087  0.00  0.00    -0.314 N 
ATOM      4  H   UNL A   1      32.004 -39.074 -28.067  0.00  0.00    +0.000 HD
ENDROOT
BRANCH   1   5
ATOM      5  C   UNL A   1      34.401 -39.809 -27.507  0.00  0.00    +0.088 C 
BRANCH   5   8
ATOM      6  C   UNL A   1      34.797 -37.798 -28.877  0.00  0.00    +0.246 C 
ATOM      7  O   UNL A   1      35.344 -37.210 -27.950  0.00  0.00    -0.270 OA
ATOM      8  N   UNL A   1      34.413 -39.121 -28.795  0.00  0.00    -0.303 N 
ATOM      9  H   UNL A   1      34.146 -39.604 -29.610  0.00  0.00    +0.000 HD
BRANCH   6  15
ATOM     10  C   UNL A   1      35.517 -36.298 -30.757  0.00  0.00    +0.044 A 
ATOM     11  C   UNL A   1      35.210 -35.651 -31.964  0.00  0.00    -0.040 A 
ATOM     12  C   UNL A   1      33.959 -35.796 -32.567  0.00  0.00    -0.060 A 
ATOM     13  C   UNL A   1      32.985 -36.594 -31.975  0.00  0.00    -0.061 A 
ATOM     14  C   UNL A   1      33.260 -37.248 -30.775  0.00  0.00    -0.048 A 
ATOM     15  C   UNL A   1      34.514 -37.095 -30.159  0.00  0.00    +0.058 A 
BRANCH  10  16
ATOM     16  N   UNL A   1      36.777 -36.125 -30.144  0.00  0.00    -0.314 N 
ATOM     17  H   UNL A   1      36.730 -35.913 -29.183  0.00  0.00    +0.000 HD
BRANCH  16  23
ATOM     18  C   UNL A   1      41.377 -38.100 -30.004  0.00  0.00    -0.039 C 
ATOM     19  C   UNL A   1      40.343 -37.176 -30.590  0.00  0.00    -0.046 A 
ATOM     20  C   UNL A   1      40.711 -36.365 -31.672  0.00  0.00    -0.058 A 
ATOM     21  C   UNL A   1      39.796 -35.490 -32.246  0.00  0.00    -0.060 A 
ATOM     22  C   UNL A   1      38.501 -35.408 -31.738  0.00  0.00    -0.040 A 
ATOM     23  C   UNL A   1      38.092 -36.199 -30.655  0.00  0.00    +0.035 A 
ATOM     24  C   UNL A   1      39.016 -37.121 -30.096  0.00  0.00    -0.026 A 
ATOM     25  C   UNL A   1      38.592 -38.004 -28.944  0.00  0.00    -0.038 C 
ENDBRANCH  16  23
ENDBRANCH  10  16
ENDBRANCH   6  15
ENDBRANCH   5   8
ENDBRANCH   1   5
BRANCH   3  26
ATOM     26  C   UNL A   1      30.920 -38.785 -26.284  0.00  0.00    +0.012 C 
BRANCH  26  27
ATOM     27  C   UNL A   1      30.497 -37.315 -26.288  0.00  0.00    -0.036 C 
BRANCH  27  28
ATOM     28  C   UNL A   1      31.637 -36.310 -26.088  0.00  0.00    -0.036 C 
BRANCH  28  29
ATOM     29  C   UNL A   1      32.123 -35.659 -27.385  0.00  0.00    +0.009 C 
BRANCH  29  30
ATOM     30  N   UNL A   1      31.403 -34.407 -27.678  0.00  0.00    -0.343 N 
ATOM     31  H   UNL A   1      31.012 -33.844 -26.971  0.00  0.00    +0.000 HD
BRANCH  30  32
ATOM     32  C   UNL A   1      31.313 -34.072 -29.056  0.00  0.00    +0.041 A 
ATOM     33  C   UNL A   1      30.118 -34.306 -29.772  0.00  0.00    -0.005 A 
ATOM     34  C   UNL A   1      30.068 -33.887 -31.107  0.00  0.00    +0.047 A 
ATOM     35  N   UNL A   1      31.086 -33.244 -31.723  0.00  0.00    -0.251 NA
ATOM     36  C   UNL A   1      32.226 -33.042 -31.054  0.00  0.00    +0.073 A 
ATOM     37  C   UNL A   1      33.270 -32.414 -31.723  0.00  0.00    -0.036 A 
ATOM     38  C   UNL A   1      34.508 -32.192 -31.120  0.00  0.00    -0.060 A 
ATOM     39  C   UNL A   1      34.720 -32.616 -29.818  0.00  0.00    -0.061 A 
ATOM     40  C   UNL A   1      33.684 -33.244 -29.128  0.00  0.00    -0.051 A 
ATOM     41  C   UNL A   1      32.410 -33.446 -29.719  0.00  0.00    +0.021 A 
ATOM     42  C   UNL A   1      28.833 -34.066 -31.953  0.00  0.00    -0.010 C 
ATOM     43  C   UNL A   1      27.903 -35.157 -31.441  0.00  0.00    -0.047 C 
ATOM     44  C   UNL A   1      27.650 -34.952 -29.956  0.00  0.00    -0.049 C 
ATOM     45  C   UNL A   1      28.956 -35.062 -29.170  0.00  0.00    -0.024 C 
ENDBRANCH  30  32
ENDBRANCH  29  30
ENDBRANCH  28  29
ENDBRANCH  27  28
ENDBRANCH  26  27
ENDBRANCH   3  26
TORSDOF 11
ENDMDL
MODEL 13
REMARK VINA RESULT:    -7.429      2.357      3.850
REMARK INTER + INTRA:         -15.648
REMARK INTER:                 -10.253
REMARK INTRA:                  -5.395
REMARK UNBOUND:                -3.442
REMARK  Name = cpd31.pdb
REMARK  13 active torsions:
REMARK  status: ('A' for Active; 'I' for Inactive)
REMARK    1  A    between atoms: C_1  and  C_2
REMARK    2  A    between atoms: C_6  and  N_7
REMARK    3  A    between atoms: N_7  and  C_8
REMARK    4  A    between atoms: C_13  and  C_14
REMARK    5  A    between atoms: N_16  and  C_17
REMARK    6  A    between atoms: C_17  and  C_18
REMARK    7  A    between atoms: N_20  and  C_21
REMARK    8  A    between atoms: C_21  and  C_22
REMARK    9  A    between atoms: C_22  and  C_23
REMARK   10  A    between atoms: C_23  and  C_24
REMARK   11  A    between atoms: C_24  and  N_25
REMARK   12  A    between atoms: N_25  and  C_26
REMARK   13  A    between atoms: C_40  and  C_41
REMARK                            x       y       z     vdW  Elec       q    Type
REMARK                         _______ _______ _______ _____ _____    ______ ____
ROOT
ATOM      1  C   UNL A   1      44.439 -14.254 -39.825  0.00  0.00    +0.230 C 
ATOM      2  O   UNL A   1      44.593 -13.705 -40.912  0.00  0.00    -0.274 OA
ATOM      3  N   UNL A   1      43.270 -14.886 -39.454  0.00  0.00    -0.314 N 
ATOM      4  H   UNL A   1      43.252 -15.405 -38.618  0.00  0.00    +0.000 HD
ENDROOT
BRANCH   1   5
ATOM      5  C   UNL A   1      45.568 -14.304 -38.784  0.00  0.00    +0.088 C 
BRANCH   5   8
ATOM      6  C   UNL A   1      46.526 -16.384 -37.872  0.00  0.00    +0.246 C 
ATOM      7  O   UNL A   1      47.577 -16.231 -38.486  0.00  0.00    -0.270 OA
ATOM      8  N   UNL A   1      45.529 -15.430 -37.855  0.00  0.00    -0.303 N 
ATOM      9  H   UNL A   1      44.788 -15.509 -37.213  0.00  0.00    +0.000 HD
BRANCH   6  15
ATOM     10  C   UNL A   1      46.392 -18.888 -37.744  0.00  0.00    +0.044 A 
ATOM     11  C   UNL A   1      46.143 -20.042 -36.985  0.00  0.00    -0.040 A 
ATOM     12  C   UNL A   1      45.799 -19.961 -35.634  0.00  0.00    -0.060 A 
ATOM     13  C   UNL A   1      45.697 -18.721 -35.011  0.00  0.00    -0.061 A 
ATOM     14  C   UNL A   1      45.937 -17.557 -35.740  0.00  0.00    -0.048 A 
ATOM     15  C   UNL A   1      46.272 -17.634 -37.103  0.00  0.00    +0.058 A 
BRANCH  10  16
ATOM     16  N   UNL A   1      46.716 -18.981 -39.115  0.00  0.00    -0.314 N 
ATOM     17  H   UNL A   1      47.680 -18.927 -39.305  0.00  0.00    +0.000 HD
BRANCH  16  23
ATOM     18  C   UNL A   1      44.931 -21.865 -42.800  0.00  0.00    -0.039 C 
ATOM     19  C   UNL A   1      45.030 -20.555 -42.064  0.00  0.00    -0.046 A 
ATOM     20  C   UNL A   1      44.298 -19.462 -42.549  0.00  0.00    -0.058 A 
ATOM     21  C   UNL A   1      44.358 -18.229 -41.911  0.00  0.00    -0.060 A 
ATOM     22  C   UNL A   1      45.159 -18.071 -40.781  0.00  0.00    -0.040 A 
ATOM     23  C   UNL A   1      45.910 -19.136 -40.265  0.00  0.00    +0.035 A 
ATOM     24  C   UNL A   1      45.816 -20.406 -40.895  0.00  0.00    -0.026 A 
ATOM     25  C   UNL A   1      46.595 -21.577 -40.343  0.00  0.00    -0.038 C 
ENDBRANCH  16  23
ENDBRANCH  10  16
ENDBRANCH   6  15
ENDBRANCH   5   8
ENDBRANCH   1   5
BRANCH   3  26
ATOM     26  C   UNL A   1      42.070 -14.810 -40.258  0.00  0.00    +0.012 C 
BRANCH  26  27
ATOM     27  C   UNL A   1      41.099 -15.977 -40.065  0.00  0.00    -0.036 C 
BRANCH  27  28
ATOM     28  C   UNL A   1      40.130 -15.829 -38.887  0.00  0.00    -0.036 C 
BRANCH  28  29
ATOM     29  C   UNL A   1      40.315 -16.886 -37.797  0.00  0.00    +0.009 C 
BRANCH  29  30
ATOM     30  N   UNL A   1      41.732 -17.251 -37.616  0.00  0.00    -0.343 N 
ATOM     31  H   UNL A   1      42.468 -16.642 -37.853  0.00  0.00    +0.000 HD
BRANCH  30  32
ATOM     32  C   UNL A   1      41.956 -18.546 -37.074  0.00  0.00    +0.041 A 
ATOM     33  C   UNL A   1      42.078 -18.725 -35.678  0.00  0.00    -0.005 A 
ATOM     34  C   UNL A   1      42.223 -20.033 -35.201  0.00  0.00    +0.047 A 
ATOM     35  N   UNL A   1      42.217 -21.122 -36.004  0.00  0.00    -0.251 NA
ATOM     36  C   UNL A   1      42.125 -20.953 -37.327  0.00  0.00    +0.073 A 
ATOM     37  C   UNL A   1      42.160 -22.085 -38.131  0.00  0.00    -0.036 A 
ATOM     38  C   UNL A   1      42.107 -22.007 -39.523  0.00  0.00    -0.060 A 
ATOM     39  C   UNL A   1      42.027 -20.767 -40.135  0.00  0.00    -0.061 A 
ATOM     40  C   UNL A   1      41.985 -19.618 -39.346  0.00  0.00    -0.051 A 
ATOM     41  C   UNL A   1      42.007 -19.686 -37.929  0.00  0.00    +0.021 A 
ATOM     42  C   UNL A   1      42.336 -20.337 -33.729  0.00  0.00    -0.010 C 
ATOM     43  C   UNL A   1      42.799 -19.146 -32.901  0.00  0.00    -0.047 C 
ATOM     44  C   UNL A   1      41.960 -17.927 -33.250  0.00  0.00    -0.049 C 
ATOM     45  C   UNL A   1      42.143 -17.556 -34.721  0.00  0.00    -0.024 C 
ENDBRANCH  30  32
ENDBRANCH  29  30
ENDBRANCH  28  29
ENDBRANCH  27  28
ENDBRANCH  26  27
ENDBRANCH   3  26
TORSDOF 11
ENDMDL
MODEL 14
REMARK VINA RESULT:    -7.285      2.564      5.195
REMARK INTER + INTRA:         -15.411
REMARK INTER:                 -11.895
REMARK INTRA:                  -3.516
REMARK UNBOUND:                -3.442
REMARK  Name = cpd31.pdb
REMARK  13 active torsions:
REMARK  status: ('A' for Active; 'I' for Inactive)
REMARK    1  A    between atoms: C_1  and  C_2
REMARK    2  A    between atoms: C_6  and  N_7
REMARK    3  A    between atoms: N_7  and  C_8
REMARK    4  A    between atoms: C_13  and  C_14
REMARK    5  A    between atoms: N_16  and  C_17
REMARK    6  A    between atoms: C_17  and  C_18
REMARK    7  A    between atoms: N_20  and  C_21
REMARK    8  A    between atoms: C_21  and  C_22
REMARK    9  A    between atoms: C_22  and  C_23
REMARK   10  A    between atoms: C_23  and  C_24
REMARK   11  A    between atoms: C_24  and  N_25
REMARK   12  A    between atoms: N_25  and  C_26
REMARK   13  A    between atoms: C_40  and  C_41
REMARK                            x       y       z     vdW  Elec       q    Type
REMARK                         _______ _______ _______ _____ _____    ______ ____
ROOT
ATOM      1  C   UNL A   1      46.663 -19.394 -35.661  0.00  0.00    +0.230 C 
ATOM      2  O   UNL A   1      47.397 -19.740 -34.739  0.00  0.00    -0.274 OA
ATOM      3  N   UNL A   1      45.289 -19.506 -35.619  0.00  0.00    -0.314 N 
ATOM      4  H   UNL A   1      44.755 -19.105 -36.342  0.00  0.00    +0.000 HD
ENDROOT
BRANCH   1   5
ATOM      5  C   UNL A   1      47.230 -18.775 -36.948  0.00  0.00    +0.088 C 
BRANCH   5   8
ATOM      6  C   UNL A   1      46.185 -19.110 -39.156  0.00  0.00    +0.246 C 
ATOM      7  O   UNL A   1      45.728 -17.971 -39.170  0.00  0.00    -0.270 OA
ATOM      8  N   UNL A   1      47.039 -19.555 -38.168  0.00  0.00    -0.303 N 
ATOM      9  H   UNL A   1      47.523 -20.404 -38.286  0.00  0.00    +0.000 HD
BRANCH   6  15
ATOM     10  C   UNL A   1      44.473 -20.273 -40.578  0.00  0.00    +0.044 A 
ATOM     11  C   UNL A   1      44.180 -21.200 -41.589  0.00  0.00    -0.040 A 
ATOM     12  C   UNL A   1      45.192 -21.908 -42.240  0.00  0.00    -0.060 A 
ATOM     13  C   UNL A   1      46.524 -21.703 -41.893  0.00  0.00    -0.061 A 
ATOM     14  C   UNL A   1      46.846 -20.789 -40.891  0.00  0.00    -0.048 A 
ATOM     15  C   UNL A   1      45.829 -20.083 -40.225  0.00  0.00    +0.058 A 
BRANCH  10  16
ATOM     16  N   UNL A   1      43.440 -19.581 -39.910  0.00  0.00    -0.314 N 
ATOM     17  H   UNL A   1      43.207 -18.715 -40.317  0.00  0.00    +0.000 HD
BRANCH  16  23
ATOM     18  C   UNL A   1      39.942 -18.347 -36.545  0.00  0.00    -0.039 C 
ATOM     19  C   UNL A   1      40.956 -19.297 -37.122  0.00  0.00    -0.046 A 
ATOM     20  C   UNL A   1      41.146 -20.534 -36.489  0.00  0.00    -0.058 A 
ATOM     21  C   UNL A   1      42.075 -21.445 -36.977  0.00  0.00    -0.060 A 
ATOM     22  C   UNL A   1      42.833 -21.128 -38.103  0.00  0.00    -0.040 A 
ATOM     23  C   UNL A   1      42.678 -19.901 -38.763  0.00  0.00    +0.035 A 
ATOM     24  C   UNL A   1      41.701 -18.988 -38.287  0.00  0.00    -0.026 A 
ATOM     25  C   UNL A   1      41.495 -17.669 -38.998  0.00  0.00    -0.038 C 
ENDBRANCH  16  23
ENDBRANCH  10  16
ENDBRANCH   6  15
ENDBRANCH   5   8
ENDBRANCH   1   5
BRANCH   3  26
ATOM     26  C   UNL A   1      44.609 -20.193 -34.543  0.00  0.00    +0.012 C 
BRANCH  26  27
ATOM     27  C   UNL A   1      43.815 -19.282 -33.605  0.00  0.00    -0.036 C 
BRANCH  27  28
ATOM     28  C   UNL A   1      43.083 -18.123 -34.290  0.00  0.00    -0.036 C 
BRANCH  28  29
ATOM     29  C   UNL A   1      41.714 -17.811 -33.683  0.00  0.00    +0.009 C 
BRANCH  29  30
ATOM     30  N   UNL A   1      41.362 -18.749 -32.602  0.00  0.00    -0.343 N 
ATOM     31  H   UNL A   1      41.983 -18.968 -31.869  0.00  0.00    +0.000 HD
BRANCH  30  32
ATOM     32  C   UNL A   1      40.062 -19.316 -32.694  0.00  0.00    +0.041 A 
ATOM     33  C   UNL A   1      38.916 -18.495 -32.587  0.00  0.00    -0.005 A 
ATOM     34  C   UNL A   1      37.666 -19.100 -32.761  0.00  0.00    +0.047 A 
ATOM     35  N   UNL A   1      37.509 -20.411 -33.057  0.00  0.00    -0.251 NA
ATOM     36  C   UNL A   1      38.591 -21.193 -33.136  0.00  0.00    +0.073 A 
ATOM     37  C   UNL A   1      38.399 -22.543 -33.404  0.00  0.00    -0.036 A 
ATOM     38  C   UNL A   1      39.463 -23.444 -33.469  0.00  0.00    -0.060 A 
ATOM     39  C   UNL A   1      40.755 -22.992 -33.252  0.00  0.00    -0.061 A 
ATOM     40  C   UNL A   1      40.969 -21.640 -32.987  0.00  0.00    -0.051 A 
ATOM     41  C   UNL A   1      39.899 -20.709 -32.950  0.00  0.00    +0.021 A 
ATOM     42  C   UNL A   1      36.382 -18.313 -32.692  0.00  0.00    -0.010 C 
ATOM     43  C   UNL A   1      36.518 -17.004 -31.927  0.00  0.00    -0.047 C 
ATOM     44  C   UNL A   1      37.725 -16.236 -32.444  0.00  0.00    -0.049 C 
ATOM     45  C   UNL A   1      39.007 -17.034 -32.210  0.00  0.00    -0.024 C 
ENDBRANCH  30  32
ENDBRANCH  29  30
ENDBRANCH  28  29
ENDBRANCH  27  28
ENDBRANCH  26  27
ENDBRANCH   3  26
TORSDOF 11
ENDMDL
MODEL 15
REMARK VINA RESULT:    -7.166      2.345      4.631
REMARK INTER + INTRA:         -15.216
REMARK INTER:                 -10.274
REMARK INTRA:                  -4.941
REMARK UNBOUND:                -3.442
REMARK  Name = cpd31.pdb
REMARK  13 active torsions:
REMARK  status: ('A' for Active; 'I' for Inactive)
REMARK    1  A    between atoms: C_1  and  C_2
REMARK    2  A    between atoms: C_6  and  N_7
REMARK    3  A    between atoms: N_7  and  C_8
REMARK    4  A    between atoms: C_13  and  C_14
REMARK    5  A    between atoms: N_16  and  C_17
REMARK    6  A    between atoms: C_17  and  C_18
REMARK    7  A    between atoms: N_20  and  C_21
REMARK    8  A    between atoms: C_21  and  C_22
REMARK    9  A    between atoms: C_22  and  C_23
REMARK   10  A    between atoms: C_23  and  C_24
REMARK   11  A    between atoms: C_24  and  N_25
REMARK   12  A    between atoms: N_25  and  C_26
REMARK   13  A    between atoms: C_40  and  C_41
REMARK                            x       y       z     vdW  Elec       q    Type
REMARK                         _______ _______ _______ _____ _____    ______ ____
ROOT
ATOM      1  C   UNL A   1      44.442 -14.235 -39.819  0.00  0.00    +0.230 C 
ATOM      2  O   UNL A   1      44.566 -13.681 -40.908  0.00  0.00    -0.274 OA
ATOM      3  N   UNL A   1      43.292 -14.887 -39.427  0.00  0.00    -0.314 N 
ATOM      4  H   UNL A   1      43.299 -15.407 -38.591  0.00  0.00    +0.000 HD
ENDROOT
BRANCH   1   5
ATOM      5  C   UNL A   1      45.593 -14.267 -38.801  0.00  0.00    +0.088 C 
BRANCH   5   8
ATOM      6  C   UNL A   1      46.630 -16.308 -37.885  0.00  0.00    +0.246 C 
ATOM      7  O   UNL A   1      47.680 -16.107 -38.488  0.00  0.00    -0.270 OA
ATOM      8  N   UNL A   1      45.593 -15.398 -37.876  0.00  0.00    -0.303 N 
ATOM      9  H   UNL A   1      44.849 -15.511 -37.242  0.00  0.00    +0.000 HD
BRANCH   6  15
ATOM     10  C   UNL A   1      46.565 -18.816 -37.777  0.00  0.00    +0.044 A 
ATOM     11  C   UNL A   1      46.359 -19.982 -37.024  0.00  0.00    -0.040 A 
ATOM     12  C   UNL A   1      46.036 -19.921 -35.667  0.00  0.00    -0.060 A 
ATOM     13  C   UNL A   1      45.912 -18.690 -35.032  0.00  0.00    -0.061 A 
ATOM     14  C   UNL A   1      46.109 -17.514 -35.754  0.00  0.00    -0.048 A 
ATOM     15  C   UNL A   1      46.423 -17.570 -37.123  0.00  0.00    +0.058 A 
BRANCH  10  16
ATOM     16  N   UNL A   1      46.866 -18.889 -39.155  0.00  0.00    -0.314 N 
ATOM     17  H   UNL A   1      47.823 -18.783 -39.362  0.00  0.00    +0.000 HD
BRANCH  16  23
ATOM     18  C   UNL A   1      45.233 -21.829 -42.865  0.00  0.00    -0.039 C 
ATOM     19  C   UNL A   1      45.242 -20.532 -42.101  0.00  0.00    -0.046 A 
ATOM     20  C   UNL A   1      44.413 -19.492 -42.544  0.00  0.00    -0.058 A 
ATOM     21  C   UNL A   1      44.389 -18.272 -41.879  0.00  0.00    -0.060 A 
ATOM     22  C   UNL A   1      45.201 -18.073 -40.764  0.00  0.00    -0.040 A 
ATOM     23  C   UNL A   1      46.048 -19.084 -40.290  0.00  0.00    +0.035 A 
ATOM     24  C   UNL A   1      46.042 -20.344 -40.946  0.00  0.00    -0.026 A 
ATOM     25  C   UNL A   1      46.926 -21.460 -40.439  0.00  0.00    -0.038 C 
ENDBRANCH  16  23
ENDBRANCH  10  16
ENDBRANCH   6  15
ENDBRANCH   5   8
ENDBRANCH   1   5
BRANCH   3  26
ATOM     26  C   UNL A   1      42.075 -14.829 -40.206  0.00  0.00    +0.012 C 
BRANCH  26  27
ATOM     27  C   UNL A   1      41.122 -16.006 -39.987  0.00  0.00    -0.036 C 
BRANCH  27  28
ATOM     28  C   UNL A   1      40.181 -15.867 -38.785  0.00  0.00    -0.036 C 
BRANCH  28  29
ATOM     29  C   UNL A   1      40.373 -16.949 -37.721  0.00  0.00    +0.009 C 
BRANCH  29  30
ATOM     30  N   UNL A   1      41.774 -17.399 -37.637  0.00  0.00    -0.343 N 
ATOM     31  H   UNL A   1      42.528 -16.837 -37.928  0.00  0.00    +0.000 HD
BRANCH  30  32
ATOM     32  C   UNL A   1      41.957 -18.704 -37.104  0.00  0.00    +0.041 A 
ATOM     33  C   UNL A   1      41.955 -19.831 -37.957  0.00  0.00    -0.005 A 
ATOM     34  C   UNL A   1      42.215 -21.081 -37.382  0.00  0.00    +0.047 A 
ATOM     35  N   UNL A   1      42.498 -21.252 -36.070  0.00  0.00    -0.251 NA
ATOM     36  C   UNL A   1      42.478 -20.189 -35.258  0.00  0.00    +0.073 A 
ATOM     37  C   UNL A   1      42.735 -20.399 -33.908  0.00  0.00    -0.036 A 
ATOM     38  C   UNL A   1      42.701 -19.359 -32.978  0.00  0.00    -0.060 A 
ATOM     39  C   UNL A   1      42.392 -18.076 -33.399  0.00  0.00    -0.061 A 
ATOM     40  C   UNL A   1      42.136 -17.844 -34.751  0.00  0.00    -0.051 A 
ATOM     41  C   UNL A   1      42.199 -18.887 -35.710  0.00  0.00    +0.021 A 
ATOM     42  C   UNL A   1      42.261 -22.343 -38.206  0.00  0.00    -0.010 C 
ATOM     43  C   UNL A   1      41.512 -22.229 -39.526  0.00  0.00    -0.047 C 
ATOM     44  C   UNL A   1      41.947 -20.964 -40.250  0.00  0.00    -0.049 C 
ATOM     45  C   UNL A   1      41.599 -19.728 -39.422  0.00  0.00    -0.024 C 
ENDBRANCH  30  32
ENDBRANCH  29  30
ENDBRANCH  28  29
ENDBRANCH  27  28
ENDBRANCH  26  27
ENDBRANCH   3  26
TORSDOF 11
ENDMDL
MODEL 16
REMARK VINA RESULT:    -7.116      2.500      7.128
REMARK INTER + INTRA:         -15.133
REMARK INTER:                  -9.842
REMARK INTRA:                  -5.291
REMARK UNBOUND:                -3.442
REMARK  Name = cpd31.pdb
REMARK  13 active torsions:
REMARK  status: ('A' for Active; 'I' for Inactive)
REMARK    1  A    between atoms: C_1  and  C_2
REMARK    2  A    between atoms: C_6  and  N_7
REMARK    3  A    between atoms: N_7  and  C_8
REMARK    4  A    between atoms: C_13  and  C_14
REMARK    5  A    between atoms: N_16  and  C_17
REMARK    6  A    between atoms: C_17  and  C_18
REMARK    7  A    between atoms: N_20  and  C_21
REMARK    8  A    between atoms: C_21  and  C_22
REMARK    9  A    between atoms: C_22  and  C_23
REMARK   10  A    between atoms: C_23  and  C_24
REMARK   11  A    between atoms: C_24  and  N_25
REMARK   12  A    between atoms: N_25  and  C_26
REMARK   13  A    between atoms: C_40  and  C_41
REMARK                            x       y       z     vdW  Elec       q    Type
REMARK                         _______ _______ _______ _____ _____    ______ ____
ROOT
ATOM      1  C   UNL A   1      42.965 -14.082 -40.627  0.00  0.00    +0.230 C 
ATOM      2  O   UNL A   1      42.907 -14.122 -41.854  0.00  0.00    -0.274 OA
ATOM      3  N   UNL A   1      44.015 -13.513 -39.937  0.00  0.00    -0.314 N 
ATOM      4  H   UNL A   1      43.945 -13.413 -38.961  0.00  0.00    +0.000 HD
ENDROOT
BRANCH   1   5
ATOM      5  C   UNL A   1      41.838 -14.651 -39.752  0.00  0.00    +0.088 C 
BRANCH   5   8
ATOM      6  C   UNL A   1      42.815 -16.788 -39.006  0.00  0.00    +0.246 C 
ATOM      7  O   UNL A   1      43.672 -16.222 -38.334  0.00  0.00    -0.270 OA
ATOM      8  N   UNL A   1      41.795 -16.106 -39.637  0.00  0.00    -0.303 N 
ATOM      9  H   UNL A   1      41.033 -16.604 -40.011  0.00  0.00    +0.000 HD
BRANCH   6  15
ATOM     10  C   UNL A   1      42.380 -19.101 -38.131  0.00  0.00    +0.044 A 
ATOM     11  C   UNL A   1      42.422 -20.489 -38.330  0.00  0.00    -0.040 A 
ATOM     12  C   UNL A   1      42.892 -21.037 -39.525  0.00  0.00    -0.060 A 
ATOM     13  C   UNL A   1      43.330 -20.205 -40.551  0.00  0.00    -0.061 A 
ATOM     14  C   UNL A   1      43.302 -18.822 -40.382  0.00  0.00    -0.048 A 
ATOM     15  C   UNL A   1      42.841 -18.267 -39.176  0.00  0.00    +0.058 A 
BRANCH  10  16
ATOM     16  N   UNL A   1      41.925 -18.559 -36.909  0.00  0.00    -0.314 N 
ATOM     17  H   UNL A   1      41.146 -17.964 -36.998  0.00  0.00    +0.000 HD
BRANCH  16  23
ATOM     18  C   UNL A   1      43.545 -16.541 -32.621  0.00  0.00    -0.039 C 
ATOM     19  C   UNL A   1      43.168 -17.720 -33.478  0.00  0.00    -0.046 A 
ATOM     20  C   UNL A   1      43.287 -19.005 -32.931  0.00  0.00    -0.058 A 
ATOM     21  C   UNL A   1      42.958 -20.128 -33.682  0.00  0.00    -0.060 A 
ATOM     22  C   UNL A   1      42.513 -19.980 -34.994  0.00  0.00    -0.040 A 
ATOM     23  C   UNL A   1      42.384 -18.713 -35.581  0.00  0.00    +0.035 A 
ATOM     24  C   UNL A   1      42.682 -17.565 -34.800  0.00  0.00    -0.026 A 
ATOM     25  C   UNL A   1      42.525 -16.187 -35.400  0.00  0.00    -0.038 C 
ENDBRANCH  16  23
ENDBRANCH  10  16
ENDBRANCH   6  15
ENDBRANCH   5   8
ENDBRANCH   1   5
BRANCH   3  26
ATOM     26  C   UNL A   1      45.216 -13.061 -40.604  0.00  0.00    +0.012 C 
BRANCH  26  27
ATOM     27  C   UNL A   1      46.440 -13.953 -40.388  0.00  0.00    -0.036 C 
BRANCH  27  28
ATOM     28  C   UNL A   1      46.533 -15.167 -41.319  0.00  0.00    -0.036 C 
BRANCH  28  29
ATOM     29  C   UNL A   1      46.142 -16.488 -40.654  0.00  0.00    +0.009 C 
BRANCH  29  30
ATOM     30  N   UNL A   1      47.297 -17.150 -40.021  0.00  0.00    -0.343 N 
ATOM     31  H   UNL A   1      48.218 -16.815 -40.120  0.00  0.00    +0.000 HD
BRANCH  30  32
ATOM     32  C   UNL A   1      46.984 -18.308 -39.258  0.00  0.00    +0.041 A 
ATOM     33  C   UNL A   1      46.694 -18.199 -37.880  0.00  0.00    -0.005 A 
ATOM     34  C   UNL A   1      46.321 -19.365 -37.200  0.00  0.00    +0.047 A 
ATOM     35  N   UNL A   1      46.194 -20.569 -37.804  0.00  0.00    -0.251 NA
ATOM     36  C   UNL A   1      46.491 -20.678 -39.103  0.00  0.00    +0.073 A 
ATOM     37  C   UNL A   1      46.389 -21.934 -39.690  0.00  0.00    -0.036 A 
ATOM     38  C   UNL A   1      46.712 -22.154 -41.029  0.00  0.00    -0.060 A 
ATOM     39  C   UNL A   1      47.159 -21.098 -41.806  0.00  0.00    -0.061 A 
ATOM     40  C   UNL A   1      47.264 -19.829 -41.238  0.00  0.00    -0.051 A 
ATOM     41  C   UNL A   1      46.908 -19.586 -39.887  0.00  0.00    +0.021 A 
ATOM     42  C   UNL A   1      45.966 -19.355 -35.735  0.00  0.00    -0.010 C 
ATOM     43  C   UNL A   1      46.537 -18.160 -34.984  0.00  0.00    -0.047 C 
ATOM     44  C   UNL A   1      46.213 -16.882 -35.740  0.00  0.00    -0.049 C 
ATOM     45  C   UNL A   1      46.860 -16.900 -37.124  0.00  0.00    -0.024 C 
ENDBRANCH  30  32
ENDBRANCH  29  30
ENDBRANCH  28  29
ENDBRANCH  27  28
ENDBRANCH  26  27
ENDBRANCH   3  26
TORSDOF 11
ENDMDL
MODEL 17
REMARK VINA RESULT:    -7.114      2.939      4.495
REMARK INTER + INTRA:         -15.131
REMARK INTER:                  -9.689
REMARK INTRA:                  -5.442
REMARK UNBOUND:                -3.442
REMARK  Name = cpd31.pdb
REMARK  13 active torsions:
REMARK  status: ('A' for Active; 'I' for Inactive)
REMARK    1  A    between atoms: C_1  and  C_2
REMARK    2  A    between atoms: C_6  and  N_7
REMARK    3  A    between atoms: N_7  and  C_8
REMARK    4  A    between atoms: C_13  and  C_14
REMARK    5  A    between atoms: N_16  and  C_17
REMARK    6  A    between atoms: C_17  and  C_18
REMARK    7  A    between atoms: N_20  and  C_21
REMARK    8  A    between atoms: C_21  and  C_22
REMARK    9  A    between atoms: C_22  and  C_23
REMARK   10  A    between atoms: C_23  and  C_24
REMARK   11  A    between atoms: C_24  and  N_25
REMARK   12  A    between atoms: N_25  and  C_26
REMARK   13  A    between atoms: C_40  and  C_41
REMARK                            x       y       z     vdW  Elec       q    Type
REMARK                         _______ _______ _______ _____ _____    ______ ____
ROOT
ATOM      1  C   UNL A   1      41.206 -15.385 -39.412  0.00  0.00    +0.230 C 
ATOM      2  O   UNL A   1      41.393 -15.880 -40.521  0.00  0.00    -0.274 OA
ATOM      3  N   UNL A   1      39.960 -15.024 -38.944  0.00  0.00    -0.314 N 
ATOM      4  H   UNL A   1      39.866 -14.741 -38.007  0.00  0.00    +0.000 HD
ENDROOT
BRANCH   1   5
ATOM      5  C   UNL A   1      42.367 -15.150 -38.433  0.00  0.00    +0.088 C 
BRANCH   5   8
ATOM      6  C   UNL A   1      43.871 -16.708 -37.255  0.00  0.00    +0.246 C 
ATOM      7  O   UNL A   1      44.873 -16.161 -37.702  0.00  0.00    -0.270 OA
ATOM      8  N   UNL A   1      42.600 -16.210 -37.456  0.00  0.00    -0.303 N 
ATOM      9  H   UNL A   1      41.846 -16.570 -36.936  0.00  0.00    +0.000 HD
BRANCH   6  15
ATOM     10  C   UNL A   1      44.736 -19.048 -36.968  0.00  0.00    +0.044 A 
ATOM     11  C   UNL A   1      44.814 -20.214 -36.190  0.00  0.00    -0.040 A 
ATOM     12  C   UNL A   1      44.181 -20.302 -34.949  0.00  0.00    -0.060 A 
ATOM     13  C   UNL A   1      43.453 -19.223 -34.456  0.00  0.00    -0.061 A 
ATOM     14  C   UNL A   1      43.356 -18.053 -35.207  0.00  0.00    -0.048 A 
ATOM     15  C   UNL A   1      43.982 -17.964 -36.462  0.00  0.00    +0.058 A 
BRANCH  10  16
ATOM     16  N   UNL A   1      45.360 -18.979 -38.232  0.00  0.00    -0.314 N 
ATOM     17  H   UNL A   1      45.914 -18.175 -38.363  0.00  0.00    +0.000 HD
BRANCH  16  23
ATOM     18  C   UNL A   1      44.240 -19.845 -43.036  0.00  0.00    -0.039 C 
ATOM     19  C   UNL A   1      44.794 -20.268 -41.702  0.00  0.00    -0.046 A 
ATOM     20  C   UNL A   1      45.293 -21.572 -41.571  0.00  0.00    -0.058 A 
ATOM     21  C   UNL A   1      45.810 -22.014 -40.359  0.00  0.00    -0.060 A 
ATOM     22  C   UNL A   1      45.828 -21.160 -39.258  0.00  0.00    -0.040 A 
ATOM     23  C   UNL A   1      45.335 -19.850 -39.344  0.00  0.00    +0.035 A 
ATOM     24  C   UNL A   1      44.845 -19.386 -40.594  0.00  0.00    -0.026 A 
ATOM     25  C   UNL A   1      44.332 -17.970 -40.720  0.00  0.00    -0.038 C 
ENDBRANCH  16  23
ENDBRANCH  10  16
ENDBRANCH   6  15
ENDBRANCH   5   8
ENDBRANCH   1   5
BRANCH   3  26
ATOM     26  C   UNL A   1      38.787 -15.049 -39.790  0.00  0.00    +0.012 C 
BRANCH  26  27
ATOM     27  C   UNL A   1      37.674 -15.982 -39.309  0.00  0.00    -0.036 C 
BRANCH  27  28
ATOM     28  C   UNL A   1      38.074 -17.456 -39.175  0.00  0.00    -0.036 C 
BRANCH  28  29
ATOM     29  C   UNL A   1      38.091 -17.963 -37.731  0.00  0.00    +0.009 C 
BRANCH  29  30
ATOM     30  N   UNL A   1      39.423 -17.830 -37.115  0.00  0.00    -0.343 N 
ATOM     31  H   UNL A   1      39.902 -16.971 -37.073  0.00  0.00    +0.000 HD
BRANCH  30  32
ATOM     32  C   UNL A   1      39.965 -19.033 -36.586  0.00  0.00    +0.041 A 
ATOM     33  C   UNL A   1      39.741 -19.385 -35.237  0.00  0.00    -0.005 A 
ATOM     34  C   UNL A   1      40.238 -20.617 -34.796  0.00  0.00    +0.047 A 
ATOM     35  N   UNL A   1      40.885 -21.490 -35.603  0.00  0.00    -0.251 NA
ATOM     36  C   UNL A   1      41.118 -21.148 -36.874  0.00  0.00    +0.073 A 
ATOM     37  C   UNL A   1      41.818 -22.046 -37.671  0.00  0.00    -0.036 A 
ATOM     38  C   UNL A   1      42.140 -21.763 -38.998  0.00  0.00    -0.060 A 
ATOM     39  C   UNL A   1      41.766 -20.547 -39.548  0.00  0.00    -0.061 A 
ATOM     40  C   UNL A   1      41.058 -19.634 -38.767  0.00  0.00    -0.051 A 
ATOM     41  C   UNL A   1      40.697 -19.924 -37.426  0.00  0.00    +0.021 A 
ATOM     42  C   UNL A   1      40.032 -21.101 -33.383  0.00  0.00    -0.010 C 
ATOM     43  C   UNL A   1      39.739 -19.978 -32.398  0.00  0.00    -0.047 C 
ATOM     44  C   UNL A   1      38.632 -19.094 -32.950  0.00  0.00    -0.049 C 
ATOM     45  C   UNL A   1      39.071 -18.444 -34.261  0.00  0.00    -0.024 C 
ENDBRANCH  30  32
ENDBRANCH  29  30
ENDBRANCH  28  29
ENDBRANCH  27  28
ENDBRANCH  26  27
ENDBRANCH   3  26
TORSDOF 11
ENDMDL
MODEL 18
REMARK VINA RESULT:    -6.991      1.842      7.420
REMARK INTER + INTRA:         -14.928
REMARK INTER:                 -11.068
REMARK INTRA:                  -3.860
REMARK UNBOUND:                -3.442
REMARK  Name = cpd31.pdb
REMARK  13 active torsions:
REMARK  status: ('A' for Active; 'I' for Inactive)
REMARK    1  A    between atoms: C_1  and  C_2
REMARK    2  A    between atoms: C_6  and  N_7
REMARK    3  A    between atoms: N_7  and  C_8
REMARK    4  A    between atoms: C_13  and  C_14
REMARK    5  A    between atoms: N_16  and  C_17
REMARK    6  A    between atoms: C_17  and  C_18
REMARK    7  A    between atoms: N_20  and  C_21
REMARK    8  A    between atoms: C_21  and  C_22
REMARK    9  A    between atoms: C_22  and  C_23
REMARK   10  A    between atoms: C_23  and  C_24
REMARK   11  A    between atoms: C_24  and  N_25
REMARK   12  A    between atoms: N_25  and  C_26
REMARK   13  A    between atoms: C_40  and  C_41
REMARK                            x       y       z     vdW  Elec       q    Type
REMARK                         _______ _______ _______ _____ _____    ______ ____
ROOT
ATOM      1  C   UNL A   1      46.442 -19.944 -36.836  0.00  0.00    +0.230 C 
ATOM      2  O   UNL A   1      47.309 -19.078 -36.763  0.00  0.00    -0.274 OA
ATOM      3  N   UNL A   1      46.421 -20.914 -37.817  0.00  0.00    -0.314 N 
ATOM      4  H   UNL A   1      45.765 -21.644 -37.751  0.00  0.00    +0.000 HD
ENDROOT
BRANCH   1   5
ATOM      5  C   UNL A   1      45.305 -20.030 -35.806  0.00  0.00    +0.088 C 
BRANCH   5   8
ATOM      6  C   UNL A   1      44.511 -18.461 -34.078  0.00  0.00    +0.246 C 
ATOM      7  O   UNL A   1      45.015 -19.119 -33.174  0.00  0.00    -0.270 OA
ATOM      8  N   UNL A   1      44.705 -18.759 -35.412  0.00  0.00    -0.303 N 
ATOM      9  H   UNL A   1      44.437 -18.110 -36.101  0.00  0.00    +0.000 HD
BRANCH   6  15
ATOM     10  C   UNL A   1      42.416 -17.481 -33.102  0.00  0.00    +0.044 A 
ATOM     11  C   UNL A   1      41.629 -16.350 -32.832  0.00  0.00    -0.040 A 
ATOM     12  C   UNL A   1      42.049 -15.070 -33.200  0.00  0.00    -0.060 A 
ATOM     13  C   UNL A   1      43.268 -14.893 -33.847  0.00  0.00    -0.061 A 
ATOM     14  C   UNL A   1      44.070 -15.997 -34.129  0.00  0.00    -0.048 A 
ATOM     15  C   UNL A   1      43.646 -17.288 -33.771  0.00  0.00    +0.058 A 
BRANCH  10  16
ATOM     16  N   UNL A   1      41.970 -18.773 -32.747  0.00  0.00    -0.314 N 
ATOM     17  H   UNL A   1      42.639 -19.311 -32.266  0.00  0.00    +0.000 HD
BRANCH  16  23
ATOM     18  C   UNL A   1      39.331 -22.422 -34.937  0.00  0.00    -0.039 C 
ATOM     19  C   UNL A   1      39.451 -21.232 -34.023  0.00  0.00    -0.046 A 
ATOM     20  C   UNL A   1      38.298 -20.774 -33.370  0.00  0.00    -0.058 A 
ATOM     21  C   UNL A   1      38.354 -19.675 -32.521  0.00  0.00    -0.060 A 
ATOM     22  C   UNL A   1      39.564 -19.013 -32.319  0.00  0.00    -0.040 A 
ATOM     23  C   UNL A   1      40.740 -19.436 -32.956  0.00  0.00    +0.035 A 
ATOM     24  C   UNL A   1      40.689 -20.583 -33.791  0.00  0.00    -0.026 A 
ATOM     25  C   UNL A   1      41.948 -21.075 -34.468  0.00  0.00    -0.038 C 
ENDBRANCH  16  23
ENDBRANCH  10  16
ENDBRANCH   6  15
ENDBRANCH   5   8
ENDBRANCH   1   5
BRANCH   3  26
ATOM     26  C   UNL A   1      47.333 -20.889 -38.939  0.00  0.00    +0.012 C 
BRANCH  26  27
ATOM     27  C   UNL A   1      47.117 -22.007 -39.961  0.00  0.00    -0.036 C 
BRANCH  27  28
ATOM     28  C   UNL A   1      46.630 -21.544 -41.338  0.00  0.00    -0.036 C 
BRANCH  28  29
ATOM     29  C   UNL A   1      45.117 -21.662 -41.531  0.00  0.00    +0.009 C 
BRANCH  29  30
ATOM     30  N   UNL A   1      44.479 -20.346 -41.715  0.00  0.00    -0.343 N 
ATOM     31  H   UNL A   1      44.304 -19.964 -42.605  0.00  0.00    +0.000 HD
BRANCH  30  32
ATOM     32  C   UNL A   1      44.137 -19.668 -40.513  0.00  0.00    +0.041 A 
ATOM     33  C   UNL A   1      44.834 -18.501 -40.128  0.00  0.00    -0.005 A 
ATOM     34  C   UNL A   1      44.402 -17.837 -38.973  0.00  0.00    +0.047 A 
ATOM     35  N   UNL A   1      43.339 -18.240 -38.238  0.00  0.00    -0.251 NA
ATOM     36  C   UNL A   1      42.694 -19.358 -38.588  0.00  0.00    +0.073 A 
ATOM     37  C   UNL A   1      41.630 -19.769 -37.794  0.00  0.00    -0.036 A 
ATOM     38  C   UNL A   1      40.919 -20.940 -38.058  0.00  0.00    -0.060 A 
ATOM     39  C   UNL A   1      41.282 -21.732 -39.136  0.00  0.00    -0.061 A 
ATOM     40  C   UNL A   1      42.343 -21.333 -39.948  0.00  0.00    -0.051 A 
ATOM     41  C   UNL A   1      43.053 -20.129 -39.709  0.00  0.00    +0.021 A 
ATOM     42  C   UNL A   1      45.058 -16.570 -38.489  0.00  0.00    -0.010 C 
ATOM     43  C   UNL A   1      46.476 -16.387 -39.011  0.00  0.00    -0.047 C 
ATOM     44  C   UNL A   1      46.493 -16.593 -40.518  0.00  0.00    -0.049 C 
ATOM     45  C   UNL A   1      46.060 -18.016 -40.868  0.00  0.00    -0.024 C 
ENDBRANCH  30  32
ENDBRANCH  29  30
ENDBRANCH  28  29
ENDBRANCH  27  28
ENDBRANCH  26  27
ENDBRANCH   3  26
TORSDOF 11
ENDMDL
MODEL 19
REMARK VINA RESULT:    -6.971      2.695      5.342
REMARK INTER + INTRA:         -14.896
REMARK INTER:                 -11.235
REMARK INTRA:                  -3.661
REMARK UNBOUND:                -3.442
REMARK  Name = cpd31.pdb
REMARK  13 active torsions:
REMARK  status: ('A' for Active; 'I' for Inactive)
REMARK    1  A    between atoms: C_1  and  C_2
REMARK    2  A    between atoms: C_6  and  N_7
REMARK    3  A    between atoms: N_7  and  C_8
REMARK    4  A    between atoms: C_13  and  C_14
REMARK    5  A    between atoms: N_16  and  C_17
REMARK    6  A    between atoms: C_17  and  C_18
REMARK    7  A    between atoms: N_20  and  C_21
REMARK    8  A    between atoms: C_21  and  C_22
REMARK    9  A    between atoms: C_22  and  C_23
REMARK   10  A    between atoms: C_23  and  C_24
REMARK   11  A    between atoms: C_24  and  N_25
REMARK   12  A    between atoms: N_25  and  C_26
REMARK   13  A    between atoms: C_40  and  C_41
REMARK                            x       y       z     vdW  Elec       q    Type
REMARK                         _______ _______ _______ _____ _____    ______ ____
ROOT
ATOM      1  C   UNL A   1      45.971 -19.418 -34.710  0.00  0.00    +0.230 C 
ATOM      2  O   UNL A   1      45.981 -20.622 -34.466  0.00  0.00    -0.274 OA
ATOM      3  N   UNL A   1      45.269 -18.499 -33.958  0.00  0.00    -0.314 N 
ATOM      4  H   UNL A   1      45.396 -17.540 -34.137  0.00  0.00    +0.000 HD
ENDROOT
BRANCH   1   5
ATOM      5  C   UNL A   1      46.776 -18.830 -35.879  0.00  0.00    +0.088 C 
BRANCH   5   8
ATOM      6  C   UNL A   1      45.784 -18.997 -38.130  0.00  0.00    +0.246 C 
ATOM      7  O   UNL A   1      45.308 -17.868 -38.061  0.00  0.00    -0.270 OA
ATOM      8  N   UNL A   1      46.624 -19.510 -37.162  0.00  0.00    -0.303 N 
ATOM      9  H   UNL A   1      47.125 -20.338 -37.339  0.00  0.00    +0.000 HD
BRANCH   6  15
ATOM     10  C   UNL A   1      44.120 -20.186 -39.587  0.00  0.00    +0.044 A 
ATOM     11  C   UNL A   1      43.864 -21.027 -40.680  0.00  0.00    -0.040 A 
ATOM     12  C   UNL A   1      44.904 -21.543 -41.457  0.00  0.00    -0.060 A 
ATOM     13  C   UNL A   1      46.225 -21.228 -41.156  0.00  0.00    -0.061 A 
ATOM     14  C   UNL A   1      46.510 -20.396 -40.074  0.00  0.00    -0.048 A 
ATOM     15  C   UNL A   1      45.468 -19.884 -39.283  0.00  0.00    +0.058 A 
BRANCH  10  16
ATOM     16  N   UNL A   1      43.062 -19.689 -38.794  0.00  0.00    -0.314 N 
ATOM     17  H   UNL A   1      42.970 -18.709 -38.816  0.00  0.00    +0.000 HD
BRANCH  16  23
ATOM     18  C   UNL A   1      38.806 -19.571 -36.158  0.00  0.00    -0.039 C 
ATOM     19  C   UNL A   1      40.021 -20.281 -36.691  0.00  0.00    -0.046 A 
ATOM     20  C   UNL A   1      40.209 -21.629 -36.351  0.00  0.00    -0.058 A 
ATOM     21  C   UNL A   1      41.317 -22.329 -36.812  0.00  0.00    -0.060 A 
ATOM     22  C   UNL A   1      42.260 -21.687 -37.614  0.00  0.00    -0.040 A 
ATOM     23  C   UNL A   1      42.113 -20.340 -37.974  0.00  0.00    +0.035 A 
ATOM     24  C   UNL A   1      40.959 -19.638 -37.536  0.00  0.00    -0.026 A 
ATOM     25  C   UNL A   1      40.764 -18.192 -37.932  0.00  0.00    -0.038 C 
ENDBRANCH  16  23
ENDBRANCH  10  16
ENDBRANCH   6  15
ENDBRANCH   5   8
ENDBRANCH   1   5
BRANCH   3  26
ATOM     26  C   UNL A   1      44.353 -18.902 -32.914  0.00  0.00    +0.012 C 
BRANCH  26  27
ATOM     27  C   UNL A   1      43.238 -17.896 -32.621  0.00  0.00    -0.036 C 
BRANCH  27  28
ATOM     28  C   UNL A   1      42.394 -17.490 -33.834  0.00  0.00    -0.036 C 
BRANCH  28  29
ATOM     29  C   UNL A   1      40.889 -17.467 -33.560  0.00  0.00    +0.009 C 
BRANCH  29  30
ATOM     30  N   UNL A   1      40.530 -18.269 -32.377  0.00  0.00    -0.343 N 
ATOM     31  H   UNL A   1      40.970 -18.149 -31.504  0.00  0.00    +0.000 HD
BRANCH  30  32
ATOM     32  C   UNL A   1      39.503 -19.229 -32.588  0.00  0.00    +0.041 A 
ATOM     33  C   UNL A   1      39.822 -20.601 -32.711  0.00  0.00    -0.005 A 
ATOM     34  C   UNL A   1      38.761 -21.505 -32.844  0.00  0.00    +0.047 A 
ATOM     35  N   UNL A   1      37.460 -21.132 -32.824  0.00  0.00    -0.251 NA
ATOM     36  C   UNL A   1      37.158 -19.833 -32.731  0.00  0.00    +0.073 A 
ATOM     37  C   UNL A   1      35.816 -19.475 -32.752  0.00  0.00    -0.036 A 
ATOM     38  C   UNL A   1      35.404 -18.143 -32.696  0.00  0.00    -0.060 A 
ATOM     39  C   UNL A   1      36.353 -17.136 -32.629  0.00  0.00    -0.061 A 
ATOM     40  C   UNL A   1      37.706 -17.475 -32.601  0.00  0.00    -0.051 A 
ATOM     41  C   UNL A   1      38.136 -18.827 -32.625  0.00  0.00    +0.021 A 
ATOM     42  C   UNL A   1      38.989 -22.990 -32.957  0.00  0.00    -0.010 C 
ATOM     43  C   UNL A   1      40.388 -23.351 -33.434  0.00  0.00    -0.047 C 
ATOM     44  C   UNL A   1      41.418 -22.597 -32.608  0.00  0.00    -0.049 C 
ATOM     45  C   UNL A   1      41.250 -21.089 -32.792  0.00  0.00    -0.024 C 
ENDBRANCH  30  32
ENDBRANCH  29  30
ENDBRANCH  28  29
ENDBRANCH  27  28
ENDBRANCH  26  27
ENDBRANCH   3  26
TORSDOF 11
ENDMDL
MODEL 20
REMARK VINA RESULT:    -6.910      2.216      7.098
REMARK INTER + INTRA:         -14.794
REMARK INTER:                 -10.690
REMARK INTRA:                  -4.105
REMARK UNBOUND:                -3.442
REMARK  Name = cpd31.pdb
REMARK  13 active torsions:
REMARK  status: ('A' for Active; 'I' for Inactive)
REMARK    1  A    between atoms: C_1  and  C_2
REMARK    2  A    between atoms: C_6  and  N_7
REMARK    3  A    between atoms: N_7  and  C_8
REMARK    4  A    between atoms: C_13  and  C_14
REMARK    5  A    between atoms: N_16  and  C_17
REMARK    6  A    between atoms: C_17  and  C_18
REMARK    7  A    between atoms: N_20  and  C_21
REMARK    8  A    between atoms: C_21  and  C_22
REMARK    9  A    between atoms: C_22  and  C_23
REMARK   10  A    between atoms: C_23  and  C_24
REMARK   11  A    between atoms: C_24  and  N_25
REMARK   12  A    between atoms: N_25  and  C_26
REMARK   13  A    between atoms: C_40  and  C_41
REMARK                            x       y       z     vdW  Elec       q    Type
REMARK                         _______ _______ _______ _____ _____    ______ ____
ROOT
ATOM      1  C   UNL A   1      46.082 -19.984 -35.980  0.00  0.00    +0.230 C 
ATOM      2  O   UNL A   1      47.237 -19.881 -35.574  0.00  0.00    -0.274 OA
ATOM      3  N   UNL A   1      45.756 -20.090 -37.317  0.00  0.00    -0.314 N 
ATOM      4  H   UNL A   1      44.824 -20.284 -37.566  0.00  0.00    +0.000 HD
ENDROOT
BRANCH   1   5
ATOM      5  C   UNL A   1      44.892 -20.029 -35.010  0.00  0.00    +0.088 C 
BRANCH   5   8
ATOM      6  C   UNL A   1      43.408 -18.451 -33.833  0.00  0.00    +0.246 C 
ATOM      7  O   UNL A   1      43.696 -18.917 -32.736  0.00  0.00    -0.270 OA
ATOM      8  N   UNL A   1      44.036 -18.845 -34.997  0.00  0.00    -0.303 N 
ATOM      9  H   UNL A   1      43.907 -18.326 -35.822  0.00  0.00    +0.000 HD
BRANCH   6  15
ATOM     10  C   UNL A   1      41.089 -17.623 -33.342  0.00  0.00    +0.044 A 
ATOM     11  C   UNL A   1      40.111 -16.627 -33.490  0.00  0.00    -0.040 A 
ATOM     12  C   UNL A   1      40.367 -15.461 -34.215  0.00  0.00    -0.060 A 
ATOM     13  C   UNL A   1      41.610 -15.265 -34.809  0.00  0.00    -0.061 A 
ATOM     14  C   UNL A   1      42.600 -16.238 -34.682  0.00  0.00    -0.048 A 
ATOM     15  C   UNL A   1      42.343 -17.418 -33.963  0.00  0.00    +0.058 A 
BRANCH  10  16
ATOM     16  N   UNL A   1      40.810 -18.808 -32.628  0.00  0.00    -0.314 N 
ATOM     17  H   UNL A   1      41.456 -19.006 -31.911  0.00  0.00    +0.000 HD
BRANCH  16  23
ATOM     18  C   UNL A   1      39.348 -23.550 -33.302  0.00  0.00    -0.039 C 
ATOM     19  C   UNL A   1      39.063 -22.090 -33.073  0.00  0.00    -0.046 A 
ATOM     20  C   UNL A   1      37.726 -21.677 -32.988  0.00  0.00    -0.058 A 
ATOM     21  C   UNL A   1      37.409 -20.340 -32.784  0.00  0.00    -0.060 A 
ATOM     22  C   UNL A   1      38.426 -19.394 -32.669  0.00  0.00    -0.040 A 
ATOM     23  C   UNL A   1      39.777 -19.763 -32.752  0.00  0.00    +0.035 A 
ATOM     24  C   UNL A   1      40.100 -21.136 -32.920  0.00  0.00    -0.026 A 
ATOM     25  C   UNL A   1      41.548 -21.564 -32.986  0.00  0.00    -0.038 C 
ENDBRANCH  16  23
ENDBRANCH  10  16
ENDBRANCH   6  15
ENDBRANCH   5   8
ENDBRANCH   1   5
BRANCH   3  26
ATOM     26  C   UNL A   1      46.741 -19.924 -38.362  0.00  0.00    +0.012 C 
BRANCH  26  27
ATOM     27  C   UNL A   1      46.767 -21.049 -39.398  0.00  0.00    -0.036 C 
BRANCH  27  28
ATOM     28  C   UNL A   1      45.428 -21.762 -39.617  0.00  0.00    -0.036 C 
BRANCH  28  29
ATOM     29  C   UNL A   1      44.717 -21.360 -40.911  0.00  0.00    +0.009 C 
BRANCH  29  30
ATOM     30  N   UNL A   1      43.263 -21.207 -40.717  0.00  0.00    -0.343 N 
ATOM     31  H   UNL A   1      42.604 -21.714 -41.244  0.00  0.00    +0.000 HD
BRANCH  30  32
ATOM     32  C   UNL A   1      42.884 -20.272 -39.716  0.00  0.00    +0.041 A 
ATOM     33  C   UNL A   1      42.107 -20.686 -38.610  0.00  0.00    -0.005 A 
ATOM     34  C   UNL A   1      41.829 -19.736 -37.620  0.00  0.00    +0.047 A 
ATOM     35  N   UNL A   1      42.294 -18.466 -37.657  0.00  0.00    -0.251 NA
ATOM     36  C   UNL A   1      43.009 -18.067 -38.714  0.00  0.00    +0.073 A 
ATOM     37  C   UNL A   1      43.442 -16.746 -38.744  0.00  0.00    -0.036 A 
ATOM     38  C   UNL A   1      44.163 -16.228 -39.821  0.00  0.00    -0.060 A 
ATOM     39  C   UNL A   1      44.455 -17.043 -40.903  0.00  0.00    -0.061 A 
ATOM     40  C   UNL A   1      44.034 -18.372 -40.889  0.00  0.00    -0.051 A 
ATOM     41  C   UNL A   1      43.328 -18.919 -39.787  0.00  0.00    +0.021 A 
ATOM     42  C   UNL A   1      41.030 -20.079 -36.388  0.00  0.00    -0.010 C 
ATOM     43  C   UNL A   1      40.150 -21.308 -36.563  0.00  0.00    -0.047 C 
ATOM     44  C   UNL A   1      40.975 -22.447 -37.140  0.00  0.00    -0.049 C 
ATOM     45  C   UNL A   1      41.511 -22.072 -38.521  0.00  0.00    -0.024 C 
ENDBRANCH  30  32
ENDBRANCH  29  30
ENDBRANCH  28  29
ENDBRANCH  27  28
ENDBRANCH  26  27
ENDBRANCH   3  26
TORSDOF 11
ENDMDL
