REMARK  Name = cpd31.pdb
REMARK  13 active torsions:
REMARK  status: ('A' for Active; 'I' for Inactive)
REMARK    1  A    between atoms: C_1  and  C_2
REMARK    2  A    between atoms: C_6  and  N_7
REMARK    3  A    between atoms: N_7  and  C_8
REMARK    4  A    between atoms: C_13  and  C_14
REMARK    5  A    between atoms: N_16  and  C_17
REMARK    6  A    between atoms: C_17  and  C_18
REMARK    7  A    between atoms: N_20  and  C_21
REMARK    8  A    between atoms: C_21  and  C_22
REMARK    9  A    between atoms: C_22  and  C_23
REMARK   10  A    between atoms: C_23  and  C_24
REMARK   11  A    between atoms: C_24  and  N_25
REMARK   12  A    between atoms: N_25  and  C_26
REMARK   13  A    between atoms: C_40  and  C_41
REMARK                            x       y       z     vdW  Elec       q    Type
REMARK                         _______ _______ _______ _____ _____    ______ ____
ROOT
ATOM      1  C   UNL A   1       5.933   1.201   1.459  0.00  0.00    +0.230 C 
ATOM      2  O   UNL A   1       6.700   0.434   2.035  0.00  0.00    -0.274 OA
ATOM      3  N   UNL A   1       5.834   2.543   1.763  0.00  0.00    -0.314 N 
ATOM      4  H   UNL A   1       5.285   3.123   1.188  0.00  0.00    +0.000 HD
ENDROOT
BRANCH   1   5
ATOM      5  C   UNL A   1       5.026   0.720   0.316  0.00  0.00    +0.088 C 
BRANCH   5   8
ATOM      6  C   UNL A   1       3.005   2.123   0.158  0.00  0.00    +0.246 C 
ATOM      7  O   UNL A   1       2.619   1.784   1.272  0.00  0.00    -0.270 OA
ATOM      8  N   UNL A   1       4.235   1.753  -0.347  0.00  0.00    -0.303 N 
ATOM      9  H   UNL A   1       4.581   2.188  -1.159  0.00  0.00    +0.000 HD
BRANCH   6  15
ATOM     10  C   UNL A   1       0.740   2.810  -0.680  0.00  0.00    +0.044 A 
ATOM     11  C   UNL A   1      -0.035   3.621  -1.523  0.00  0.00    -0.040 A 
ATOM     12  C   UNL A   1       0.556   4.563  -2.368  0.00  0.00    -0.060 A 
ATOM     13  C   UNL A   1       1.939   4.715  -2.387  0.00  0.00    -0.061 A 
ATOM     14  C   UNL A   1       2.735   3.922  -1.562  0.00  0.00    -0.048 A 
ATOM     15  C   UNL A   1       2.145   2.965  -0.719  0.00  0.00    +0.058 A 
BRANCH  10  16
ATOM     16  N   UNL A   1       0.133   1.844   0.152  0.00  0.00    -0.314 N 
ATOM     17  H   UNL A   1       0.537   1.774   1.047  0.00  0.00    +0.000 HD
BRANCH  16  23
ATOM     18  C   UNL A   1      -3.337  -1.282   1.959  0.00  0.00    -0.039 C 
ATOM     19  C   UNL A   1      -2.653  -0.565   0.826  0.00  0.00    -0.046 A 
ATOM     20  C   UNL A   1      -3.108  -0.796  -0.480  0.00  0.00    -0.058 A 
ATOM     21  C   UNL A   1      -2.507  -0.164  -1.562  0.00  0.00    -0.060 A 
ATOM     22  C   UNL A   1      -1.436   0.703  -1.353  0.00  0.00    -0.040 A 
ATOM     23  C   UNL A   1      -0.947   0.959  -0.064  0.00  0.00    +0.035 A 
ATOM     24  C   UNL A   1      -1.588   0.344   1.044  0.00  0.00    -0.026 A 
ATOM     25  C   UNL A   1      -1.097   0.624   2.446  0.00  0.00    -0.038 C 
ENDBRANCH  16  23
ENDBRANCH  10  16
ENDBRANCH   6  15
ENDBRANCH   5   8
ENDBRANCH   1   5
BRANCH   3  26
ATOM     26  C   UNL A   1       6.512   3.123   2.901  0.00  0.00    +0.012 C 
BRANCH  26  27
ATOM     27  C   UNL A   1       8.033   3.211   2.760  0.00  0.00    -0.036 C 
BRANCH  27  28
ATOM     28  C   UNL A   1       8.532   4.212   1.712  0.00  0.00    -0.036 C 
BRANCH  28  29
ATOM     29  C   UNL A   1       8.289   3.769   0.268  0.00  0.00    +0.009 C 
BRANCH  29  30
ATOM     30  N   UNL A   1       8.920   4.681  -0.703  0.00  0.00    -0.343 N 
ATOM     31  H   UNL A   1       8.425   5.411  -1.141  0.00  0.00    +0.000 HD
BRANCH  30  32
ATOM     32  C   UNL A   1      10.295   4.429  -0.961  0.00  0.00    +0.041 A 
ATOM     33  C   UNL A   1      11.287   5.304  -0.464  0.00  0.00    -0.005 A 
ATOM     34  C   UNL A   1      12.626   4.962  -0.688  0.00  0.00    +0.047 A 
ATOM     35  N   UNL A   1      13.008   3.828  -1.320  0.00  0.00    -0.251 NA
ATOM     36  C   UNL A   1      12.070   3.011  -1.811  0.00  0.00    +0.073 A 
ATOM     37  C   UNL A   1      12.490   1.873  -2.489  0.00  0.00    -0.036 A 
ATOM     38  C   UNL A   1      11.587   0.980  -3.067  0.00  0.00    -0.060 A 
ATOM     39  C   UNL A   1      10.227   1.230  -2.978  0.00  0.00    -0.061 A 
ATOM     40  C   UNL A   1       9.785   2.364  -2.297  0.00  0.00    -0.051 A 
ATOM     41  C   UNL A   1      10.692   3.262  -1.678  0.00  0.00    +0.021 A 
ATOM     42  C   UNL A   1      13.762   5.812  -0.179  0.00  0.00    -0.010 C 
ATOM     43  C   UNL A   1      13.359   7.253   0.100  0.00  0.00    -0.047 C 
ATOM     44  C   UNL A   1      12.100   7.273   0.952  0.00  0.00    -0.049 C 
ATOM     45  C   UNL A   1      10.940   6.613   0.208  0.00  0.00    -0.024 C 
ENDBRANCH  30  32
ENDBRANCH  29  30
ENDBRANCH  28  29
ENDBRANCH  27  28
ENDBRANCH  26  27
ENDBRANCH   3  26
TORSDOF 11
