@<TRIPOS>MOLECULE
*****
 27 29 0 0 0
SMALL
GASTEIGER

@<TRIPOS>ATOM
      1 C           2.5981    1.5000    0.0000 C.3     1  UNL1        0.0899
      2 N           1.7321    2.0000    0.0000 N.3     1  UNL1       -0.2678
      3 C           1.7321    3.0000    0.0000 C.3     1  UNL1        0.0724
      4 C           0.8660    3.5000    0.0000 C.3     1  UNL1        0.0174
      5 C           0.0000    3.0000    0.0000 C.3     1  UNL1        0.0032
      6 C           0.0000    2.0000    0.0000 C.3     1  UNL1        0.0234
      7 C          -0.8660    1.5000    0.0000 C.3     1  UNL1        0.1139
      8 N          -0.8660    0.5000    0.0000 N.pl3   1  UNL1       -0.2189
      9 C          -1.7321    0.0000    0.0000 C.ar    1  UNL1        0.1693
     10 C          -1.7321   -1.0000    0.0000 C.ar    1  UNL1        0.0392
     11 C          -2.5981   -1.5000    0.0000 C.ar    1  UNL1        0.0239
     12 C          -3.4641   -1.0000    0.0000 C.ar    1  UNL1        0.1030
     13 C          -4.3301   -1.5000    0.0000 C.ar    1  UNL1        0.0194
     14 C          -4.3301   -2.5000    0.0000 C.ar    1  UNL1        0.0016
     15 C          -5.1962   -3.0000    0.0000 C.ar    1  UNL1        0.0000
     16 C          -6.0622   -2.5000    0.0000 C.ar    1  UNL1        0.0000
     17 C          -6.0622   -1.5000    0.0000 C.ar    1  UNL1        0.0000
     18 C          -5.1962   -1.0000    0.0000 C.ar    1  UNL1        0.0016
     19 N          -3.4641    0.0000    0.0000 N.ar    1  UNL1       -0.1467
     20 N          -2.5981    0.5000    0.0000 N.ar    1  UNL1       -0.1314
     21 C           0.8660    1.5000    0.0000 C.3     1  UNL1        0.0992
     22 C           0.8660    0.5000    0.0000 C.ar    1  UNL1       -0.0061
     23 C           1.7321   -0.0000    0.0000 C.ar    1  UNL1       -0.0029
     24 C           1.7321   -1.0000    0.0000 C.ar    1  UNL1       -0.0003
     25 C           0.8660   -1.5000    0.0000 C.ar    1  UNL1       -0.0000
     26 C           0.0000   -1.0000    0.0000 C.ar    1  UNL1       -0.0003
     27 C          -0.0000   -0.0000    0.0000 C.ar    1  UNL1       -0.0029
@<TRIPOS>BOND
     1     1     2    1
     2     2     3    1
     3     3     4    1
     4     4     5    1
     5     5     6    1
     6     6     7    1
     7     7     8    1
     8     8     9    1
     9     9    10   ar
    10    10    11   ar
    11    11    12   ar
    12    12    13    1
    13    13    14   ar
    14    14    15   ar
    15    15    16   ar
    16    16    17   ar
    17    17    18   ar
    18    13    18   ar
    19    12    19   ar
    20    19    20   ar
    21     9    20   ar
    22     2    21    1
    23    21    22    1
    24    22    23   ar
    25    23    24   ar
    26    24    25   ar
    27    25    26   ar
    28    26    27   ar
    29    22    27   ar
