REMARK  Name = cpd108.pdb
REMARK  11 active torsions:
REMARK  status: ('A' for Active; 'I' for Inactive)
REMARK    1  A    between atoms: C_1  and  N_2
REMARK    2  A    between atoms: N_2  and  C_3
REMARK    3  A    between atoms: N_2  and  C_21
REMARK    4  A    between atoms: C_3  and  C_4
REMARK    5  A    between atoms: C_4  and  C_5
REMARK    6  A    between atoms: C_5  and  C_6
REMARK    7  A    between atoms: C_6  and  C_7
REMARK    8  A    between atoms: C_7  and  N_8
REMARK    9  A    between atoms: N_8  and  C_9
REMARK   10  A    between atoms: C_12  and  C_13
REMARK   11  A    between atoms: C_21  and  C_22
REMARK                            x       y       z     vdW  Elec       q    Type
REMARK                         _______ _______ _______ _____ _____    ______ ____
ROOT
ATOM      1  C   UNL     1      -1.724   1.748  -0.161  0.00  0.00    +0.010 C 
ENDROOT
BRANCH   1   2
ATOM      2  N   UNL     1      -1.783   0.328  -0.501  0.00  0.00    -0.328 N 
ATOM      3  H   UNL     1      -0.989  -0.194  -0.758  0.00  0.00    +0.000 HD
BRANCH   2   4
ATOM      4  C   UNL     1      -3.073  -0.230  -0.429  0.00  0.00    +0.141 A 
ATOM      5  C   UNL     1      -3.233  -1.564  -0.769  0.00  0.00    -0.018 A 
ATOM      6  C   UNL     1      -4.493  -2.160  -0.682  0.00  0.00    -0.031 A 
ATOM      7  C   UNL     1      -5.576  -1.407  -0.250  0.00  0.00    +0.093 A 
ATOM      8  N   UNL     1      -5.390  -0.114   0.092  0.00  0.00    -0.147 NA
ATOM      9  N   UNL     1      -4.137   0.469   0.010  0.00  0.00    -0.134 NA
BRANCH   7  10
ATOM     10  C   UNL     1      -6.949  -1.934  -0.120  0.00  0.00    +0.002 A 
ATOM     11  C   UNL     1      -7.431  -2.981  -0.928  0.00  0.00    -0.053 A 
ATOM     12  C   UNL     1      -8.735  -3.471  -0.787  0.00  0.00    -0.061 A 
ATOM     13  C   UNL     1      -9.589  -2.920   0.163  0.00  0.00    -0.062 A 
ATOM     14  C   UNL     1      -9.143  -1.879   0.970  0.00  0.00    -0.061 A 
ATOM     15  C   UNL     1      -7.840  -1.392   0.827  0.00  0.00    -0.053 A 
ENDBRANCH   7  10
ENDBRANCH   2   4
ENDBRANCH   1   2
BRANCH   1  16
ATOM     16  C   UNL     1      -0.280   2.237  -0.306  0.00  0.00    -0.037 C 
BRANCH  16  17
ATOM     17  C   UNL     1      -0.138   3.696   0.127  0.00  0.00    -0.050 C 
BRANCH  17  18
ATOM     18  C   UNL     1       1.211   4.341  -0.216  0.00  0.00    -0.040 C 
BRANCH  18  19
ATOM     19  C   UNL     1       2.430   3.759   0.518  0.00  0.00    -0.001 C 
BRANCH  19  21
ATOM     20  C   UNL     1       3.436   2.438  -1.254  0.00  0.00    -0.012 C 
ATOM     21  N   UNL     1       2.832   2.412   0.083  0.00  0.00    -0.301 N 
ATOM     22  H   UNL     1       1.995   1.832   0.030  0.00  0.00    +0.000 HD
BRANCH  21  23
ATOM     23  C   UNL     1       3.766   1.823   1.064  0.00  0.00    +0.024 C 
BRANCH  23  24
ATOM     24  C   UNL     1       4.014   0.343   0.852  0.00  0.00    -0.033 A 
ATOM     25  C   UNL     1       5.313  -0.143   0.644  0.00  0.00    -0.057 A 
ATOM     26  C   UNL     1       5.537  -1.509   0.464  0.00  0.00    -0.061 A 
ATOM     27  C   UNL     1       4.468  -2.403   0.492  0.00  0.00    -0.062 A 
ATOM     28  C   UNL     1       3.173  -1.934   0.702  0.00  0.00    -0.061 A 
ATOM     29  C   UNL     1       2.947  -0.569   0.883  0.00  0.00    -0.057 A 
ENDBRANCH  23  24
ENDBRANCH  21  23
ENDBRANCH  19  21
ENDBRANCH  18  19
ENDBRANCH  17  18
ENDBRANCH  16  17
ENDBRANCH   1  16
TORSDOF 10
