MODEL 1
REMARK VINA RESULT:    -7.499      0.000      0.000
REMARK INTER + INTRA:         -12.927
REMARK INTER:                 -11.883
REMARK INTRA:                  -1.045
REMARK UNBOUND:                -1.045
REMARK  Name = cpd108.pdb
REMARK  11 active torsions:
REMARK  status: ('A' for Active; 'I' for Inactive)
REMARK    1  A    between atoms: C_1  and  N_2
REMARK    2  A    between atoms: N_2  and  C_3
REMARK    3  A    between atoms: N_2  and  C_21
REMARK    4  A    between atoms: C_3  and  C_4
REMARK    5  A    between atoms: C_4  and  C_5
REMARK    6  A    between atoms: C_5  and  C_6
REMARK    7  A    between atoms: C_6  and  C_7
REMARK    8  A    between atoms: C_7  and  N_8
REMARK    9  A    between atoms: N_8  and  C_9
REMARK   10  A    between atoms: C_12  and  C_13
REMARK   11  A    between atoms: C_21  and  C_22
REMARK                            x       y       z     vdW  Elec       q    Type
REMARK                         _______ _______ _______ _____ _____    ______ ____
ROOT
ATOM      1  C   UNL     1      39.356 -35.989 -32.358  0.00  0.00    +0.010 C 
ENDROOT
BRANCH   1   2
ATOM      2  N   UNL     1      40.212 -35.695 -31.211  0.00  0.00    -0.328 N 
ATOM      3  H   UNL     1      40.188 -34.834 -30.733  0.00  0.00    +0.000 HD
BRANCH   2   4
ATOM      4  C   UNL     1      41.072 -36.747 -30.847  0.00  0.00    +0.141 A 
ATOM      5  C   UNL     1      42.168 -37.010 -31.655  0.00  0.00    -0.018 A 
ATOM      6  C   UNL     1      43.060 -38.027 -31.310  0.00  0.00    -0.031 A 
ATOM      7  C   UNL     1      42.841 -38.766 -30.156  0.00  0.00    +0.093 A 
ATOM      8  N   UNL     1      41.776 -38.478 -29.377  0.00  0.00    -0.147 NA
ATOM      9  N   UNL     1      40.899 -37.464 -29.721  0.00  0.00    -0.134 NA
BRANCH   7  10
ATOM     10  C   UNL     1      43.718 -39.861 -29.697  0.00  0.00    +0.002 A 
ATOM     11  C   UNL     1      44.006 -40.073 -28.335  0.00  0.00    -0.053 A 
ATOM     12  C   UNL     1      44.836 -41.120 -27.919  0.00  0.00    -0.061 A 
ATOM     13  C   UNL     1      45.403 -41.977 -28.857  0.00  0.00    -0.062 A 
ATOM     14  C   UNL     1      45.144 -41.787 -30.210  0.00  0.00    -0.061 A 
ATOM     15  C   UNL     1      44.314 -40.741 -30.623  0.00  0.00    -0.053 A 
ENDBRANCH   7  10
ENDBRANCH   2   4
ENDBRANCH   1   2
BRANCH   1  16
ATOM     16  C   UNL     1      37.938 -36.286 -31.861  0.00  0.00    -0.037 C 
BRANCH  16  17
ATOM     17  C   UNL     1      37.426 -35.180 -30.939  0.00  0.00    -0.050 C 
BRANCH  17  18
ATOM     18  C   UNL     1      35.908 -34.960 -30.979  0.00  0.00    -0.040 C 
BRANCH  18  19
ATOM     19  C   UNL     1      35.053 -36.237 -31.004  0.00  0.00    -0.001 C 
BRANCH  19  21
ATOM     20  C   UNL     1      32.684 -36.768 -30.973  0.00  0.00    -0.012 C 
ATOM     21  N   UNL     1      33.799 -36.160 -30.238  0.00  0.00    -0.301 N 
ATOM     22  H   UNL     1      33.572 -35.176 -30.098  0.00  0.00    +0.000 HD
BRANCH  21  23
ATOM     23  C   UNL     1      33.971 -36.809 -28.923  0.00  0.00    +0.024 C 
BRANCH  23  24
ATOM     24  C   UNL     1      35.243 -37.624 -28.810  0.00  0.00    -0.033 A 
ATOM     25  C   UNL     1      35.370 -38.850 -29.478  0.00  0.00    -0.057 A 
ATOM     26  C   UNL     1      36.550 -39.590 -29.382  0.00  0.00    -0.061 A 
ATOM     27  C   UNL     1      37.616 -39.111 -28.622  0.00  0.00    -0.062 A 
ATOM     28  C   UNL     1      37.505 -37.892 -27.958  0.00  0.00    -0.061 A 
ATOM     29  C   UNL     1      36.327 -37.151 -28.052  0.00  0.00    -0.057 A 
ENDBRANCH  23  24
ENDBRANCH  21  23
ENDBRANCH  19  21
ENDBRANCH  18  19
ENDBRANCH  17  18
ENDBRANCH  16  17
ENDBRANCH   1  16
TORSDOF 10
ENDMDL
MODEL 2
REMARK VINA RESULT:    -7.447      3.450      6.074
REMARK INTER + INTRA:         -12.845
REMARK INTER:                 -10.871
REMARK INTRA:                  -1.974
REMARK UNBOUND:                -1.045
REMARK  Name = cpd108.pdb
REMARK  11 active torsions:
REMARK  status: ('A' for Active; 'I' for Inactive)
REMARK    1  A    between atoms: C_1  and  N_2
REMARK    2  A    between atoms: N_2  and  C_3
REMARK    3  A    between atoms: N_2  and  C_21
REMARK    4  A    between atoms: C_3  and  C_4
REMARK    5  A    between atoms: C_4  and  C_5
REMARK    6  A    between atoms: C_5  and  C_6
REMARK    7  A    between atoms: C_6  and  C_7
REMARK    8  A    between atoms: C_7  and  N_8
REMARK    9  A    between atoms: N_8  and  C_9
REMARK   10  A    between atoms: C_12  and  C_13
REMARK   11  A    between atoms: C_21  and  C_22
REMARK                            x       y       z     vdW  Elec       q    Type
REMARK                         _______ _______ _______ _____ _____    ______ ____
ROOT
ATOM      1  C   UNL     1      33.993 -39.734 -28.270  0.00  0.00    +0.010 C 
ENDROOT
BRANCH   1   2
ATOM      2  N   UNL     1      35.389 -39.961 -27.903  0.00  0.00    -0.328 N 
ATOM      3  H   UNL     1      35.664 -40.632 -27.237  0.00  0.00    +0.000 HD
BRANCH   2   4
ATOM      4  C   UNL     1      36.306 -39.140 -28.585  0.00  0.00    +0.141 A 
ATOM      5  C   UNL     1      35.929 -38.605 -29.806  0.00  0.00    -0.018 A 
ATOM      6  C   UNL     1      36.802 -37.763 -30.498  0.00  0.00    -0.031 A 
ATOM      7  C   UNL     1      38.042 -37.466 -29.950  0.00  0.00    +0.093 A 
ATOM      8  N   UNL     1      38.378 -37.986 -28.750  0.00  0.00    -0.147 NA
ATOM      9  N   UNL     1      37.506 -38.815 -28.066  0.00  0.00    -0.134 NA
BRANCH   7  10
ATOM     10  C   UNL     1      39.041 -36.588 -30.593  0.00  0.00    +0.002 A 
ATOM     11  C   UNL     1      38.672 -35.529 -31.444  0.00  0.00    -0.053 A 
ATOM     12  C   UNL     1      39.633 -34.704 -32.041  0.00  0.00    -0.061 A 
ATOM     13  C   UNL     1      40.987 -34.925 -31.804  0.00  0.00    -0.062 A 
ATOM     14  C   UNL     1      41.381 -35.969 -30.975  0.00  0.00    -0.061 A 
ATOM     15  C   UNL     1      40.418 -36.791 -30.379  0.00  0.00    -0.053 A 
ENDBRANCH   7  10
ENDBRANCH   2   4
ENDBRANCH   1   2
BRANCH   1  16
ATOM     16  C   UNL     1      33.190 -39.414 -27.005  0.00  0.00    -0.037 C 
BRANCH  16  17
ATOM     17  C   UNL     1      33.981 -38.517 -26.053  0.00  0.00    -0.050 C 
BRANCH  17  18
ATOM     18  C   UNL     1      33.920 -37.019 -26.378  0.00  0.00    -0.040 C 
BRANCH  18  19
ATOM     19  C   UNL     1      32.522 -36.468 -26.703  0.00  0.00    -0.001 C 
BRANCH  19  21
ATOM     20  C   UNL     1      31.084 -36.657 -28.651  0.00  0.00    -0.012 C 
ATOM     21  N   UNL     1      32.319 -36.079 -28.108  0.00  0.00    -0.301 N 
ATOM     22  H   UNL     1      33.096 -36.447 -28.655  0.00  0.00    +0.000 HD
BRANCH  21  23
ATOM     23  C   UNL     1      32.300 -34.607 -28.225  0.00  0.00    +0.024 C 
BRANCH  23  24
ATOM     24  C   UNL     1      33.373 -34.058 -29.144  0.00  0.00    -0.033 A 
ATOM     25  C   UNL     1      33.312 -32.736 -29.607  0.00  0.00    -0.057 A 
ATOM     26  C   UNL     1      34.312 -32.231 -30.441  0.00  0.00    -0.061 A 
ATOM     27  C   UNL     1      35.382 -33.040 -30.819  0.00  0.00    -0.062 A 
ATOM     28  C   UNL     1      35.456 -34.355 -30.363  0.00  0.00    -0.061 A 
ATOM     29  C   UNL     1      34.459 -34.861 -29.528  0.00  0.00    -0.057 A 
ENDBRANCH  23  24
ENDBRANCH  21  23
ENDBRANCH  19  21
ENDBRANCH  18  19
ENDBRANCH  17  18
ENDBRANCH  16  17
ENDBRANCH   1  16
TORSDOF 10
ENDMDL
MODEL 3
REMARK VINA RESULT:    -7.259      2.122      9.935
REMARK INTER + INTRA:         -12.547
REMARK INTER:                 -12.921
REMARK INTRA:                   0.374
REMARK UNBOUND:                -1.045
REMARK  Name = cpd108.pdb
REMARK  11 active torsions:
REMARK  status: ('A' for Active; 'I' for Inactive)
REMARK    1  A    between atoms: C_1  and  N_2
REMARK    2  A    between atoms: N_2  and  C_3
REMARK    3  A    between atoms: N_2  and  C_21
REMARK    4  A    between atoms: C_3  and  C_4
REMARK    5  A    between atoms: C_4  and  C_5
REMARK    6  A    between atoms: C_5  and  C_6
REMARK    7  A    between atoms: C_6  and  C_7
REMARK    8  A    between atoms: C_7  and  N_8
REMARK    9  A    between atoms: N_8  and  C_9
REMARK   10  A    between atoms: C_12  and  C_13
REMARK   11  A    between atoms: C_21  and  C_22
REMARK                            x       y       z     vdW  Elec       q    Type
REMARK                         _______ _______ _______ _____ _____    ______ ____
ROOT
ATOM      1  C   UNL     1      40.784 -35.967 -31.136  0.00  0.00    +0.010 C 
ENDROOT
BRANCH   1   2
ATOM      2  N   UNL     1      39.671 -36.860 -30.823  0.00  0.00    -0.328 N 
ATOM      3  H   UNL     1      39.781 -37.831 -30.704  0.00  0.00    +0.000 HD
BRANCH   2   4
ATOM      4  C   UNL     1      38.427 -36.213 -30.706  0.00  0.00    +0.141 A 
ATOM      5  C   UNL     1      37.586 -36.586 -29.669  0.00  0.00    -0.018 A 
ATOM      6  C   UNL     1      36.356 -35.946 -29.504  0.00  0.00    -0.031 A 
ATOM      7  C   UNL     1      35.988 -34.936 -30.382  0.00  0.00    +0.093 A 
ATOM      8  N   UNL     1      36.833 -34.580 -31.374  0.00  0.00    -0.147 NA
ATOM      9  N   UNL     1      38.054 -35.214 -31.528  0.00  0.00    -0.134 NA
BRANCH   7  10
ATOM     10  C   UNL     1      34.714 -34.194 -30.301  0.00  0.00    +0.002 A 
ATOM     11  C   UNL     1      34.602 -32.850 -30.704  0.00  0.00    -0.053 A 
ATOM     12  C   UNL     1      33.384 -32.163 -30.624  0.00  0.00    -0.061 A 
ATOM     13  C   UNL     1      32.252 -32.805 -30.133  0.00  0.00    -0.062 A 
ATOM     14  C   UNL     1      32.335 -34.130 -29.719  0.00  0.00    -0.061 A 
ATOM     15  C   UNL     1      33.552 -34.813 -29.801  0.00  0.00    -0.053 A 
ENDBRANCH   7  10
ENDBRANCH   2   4
ENDBRANCH   1   2
BRANCH   1  16
ATOM     16  C   UNL     1      42.066 -36.529 -30.514  0.00  0.00    -0.037 C 
BRANCH  16  17
ATOM     17  C   UNL     1      42.358 -37.942 -31.017  0.00  0.00    -0.050 C 
BRANCH  17  18
ATOM     18  C   UNL     1      43.739 -38.489 -30.632  0.00  0.00    -0.040 C 
BRANCH  18  19
ATOM     19  C   UNL     1      43.736 -39.632 -29.604  0.00  0.00    -0.001 C 
BRANCH  19  21
ATOM     20  C   UNL     1      43.993 -40.136 -27.242  0.00  0.00    -0.012 C 
ATOM     21  N   UNL     1      44.511 -39.369 -28.381  0.00  0.00    -0.301 N 
ATOM     22  H   UNL     1      44.417 -38.379 -28.152  0.00  0.00    +0.000 HD
BRANCH  21  23
ATOM     23  C   UNL     1      45.937 -39.678 -28.611  0.00  0.00    +0.024 C 
BRANCH  23  24
ATOM     24  C   UNL     1      46.165 -40.736 -29.672  0.00  0.00    -0.033 A 
ATOM     25  C   UNL     1      45.304 -41.838 -29.781  0.00  0.00    -0.057 A 
ATOM     26  C   UNL     1      45.510 -42.801 -30.770  0.00  0.00    -0.061 A 
ATOM     27  C   UNL     1      46.575 -42.673 -31.660  0.00  0.00    -0.062 A 
ATOM     28  C   UNL     1      47.435 -41.581 -31.565  0.00  0.00    -0.061 A 
ATOM     29  C   UNL     1      47.230 -40.617 -30.578  0.00  0.00    -0.057 A 
ENDBRANCH  23  24
ENDBRANCH  21  23
ENDBRANCH  19  21
ENDBRANCH  18  19
ENDBRANCH  17  18
ENDBRANCH  16  17
ENDBRANCH   1  16
TORSDOF 10
ENDMDL
MODEL 4
REMARK VINA RESULT:    -7.184      4.872      8.157
REMARK INTER + INTRA:         -12.429
REMARK INTER:                  -8.891
REMARK INTRA:                  -3.537
REMARK UNBOUND:                -1.045
REMARK  Name = cpd108.pdb
REMARK  11 active torsions:
REMARK  status: ('A' for Active; 'I' for Inactive)
REMARK    1  A    between atoms: C_1  and  N_2
REMARK    2  A    between atoms: N_2  and  C_3
REMARK    3  A    between atoms: N_2  and  C_21
REMARK    4  A    between atoms: C_3  and  C_4
REMARK    5  A    between atoms: C_4  and  C_5
REMARK    6  A    between atoms: C_5  and  C_6
REMARK    7  A    between atoms: C_6  and  C_7
REMARK    8  A    between atoms: C_7  and  N_8
REMARK    9  A    between atoms: N_8  and  C_9
REMARK   10  A    between atoms: C_12  and  C_13
REMARK   11  A    between atoms: C_21  and  C_22
REMARK                            x       y       z     vdW  Elec       q    Type
REMARK                         _______ _______ _______ _____ _____    ______ ____
ROOT
ATOM      1  C   UNL     1      37.001 -40.155 -28.900  0.00  0.00    +0.010 C 
ENDROOT
BRANCH   1   2
ATOM      2  N   UNL     1      36.870 -39.109 -27.888  0.00  0.00    -0.328 N 
ATOM      3  H   UNL     1      37.118 -39.243 -26.945  0.00  0.00    +0.000 HD
BRANCH   2   4
ATOM      4  C   UNL     1      36.358 -37.893 -28.378  0.00  0.00    +0.141 A 
ATOM      5  C   UNL     1      35.140 -37.447 -27.890  0.00  0.00    -0.018 A 
ATOM      6  C   UNL     1      34.614 -36.231 -28.331  0.00  0.00    -0.031 A 
ATOM      7  C   UNL     1      35.323 -35.476 -29.255  0.00  0.00    +0.093 A 
ATOM      8  N   UNL     1      36.516 -35.924 -29.702  0.00  0.00    -0.147 NA
ATOM      9  N   UNL     1      37.035 -37.127 -29.256  0.00  0.00    -0.134 NA
BRANCH   7  10
ATOM     10  C   UNL     1      34.863 -34.178 -29.788  0.00  0.00    +0.002 A 
ATOM     11  C   UNL     1      33.748 -33.501 -29.258  0.00  0.00    -0.053 A 
ATOM     12  C   UNL     1      33.329 -32.269 -29.774  0.00  0.00    -0.061 A 
ATOM     13  C   UNL     1      34.014 -31.687 -30.836  0.00  0.00    -0.062 A 
ATOM     14  C   UNL     1      35.114 -32.337 -31.385  0.00  0.00    -0.061 A 
ATOM     15  C   UNL     1      35.530 -33.567 -30.868  0.00  0.00    -0.053 A 
ENDBRANCH   7  10
ENDBRANCH   2   4
ENDBRANCH   1   2
BRANCH   1  16
ATOM     16  C   UNL     1      35.831 -41.133 -28.763  0.00  0.00    -0.037 C 
BRANCH  16  17
ATOM     17  C   UNL     1      35.087 -41.303 -30.088  0.00  0.00    -0.050 C 
BRANCH  17  18
ATOM     18  C   UNL     1      35.372 -40.214 -31.130  0.00  0.00    -0.040 C 
BRANCH  18  19
ATOM     19  C   UNL     1      34.433 -40.200 -32.348  0.00  0.00    -0.001 C 
BRANCH  19  21
ATOM     20  C   UNL     1      32.075 -40.069 -31.784  0.00  0.00    -0.012 C 
ATOM     21  N   UNL     1      33.260 -39.321 -32.219  0.00  0.00    -0.301 N 
ATOM     22  H   UNL     1      33.055 -38.928 -33.137  0.00  0.00    +0.000 HD
BRANCH  21  23
ATOM     23  C   UNL     1      33.556 -38.222 -31.278  0.00  0.00    +0.024 C 
BRANCH  23  24
ATOM     24  C   UNL     1      33.038 -36.874 -31.738  0.00  0.00    -0.033 A 
ATOM     25  C   UNL     1      33.619 -36.220 -32.834  0.00  0.00    -0.057 A 
ATOM     26  C   UNL     1      33.128 -34.985 -33.263  0.00  0.00    -0.061 A 
ATOM     27  C   UNL     1      32.052 -34.393 -32.604  0.00  0.00    -0.062 A 
ATOM     28  C   UNL     1      31.463 -35.034 -31.516  0.00  0.00    -0.061 A 
ATOM     29  C   UNL     1      31.951 -36.269 -31.087  0.00  0.00    -0.057 A 
ENDBRANCH  23  24
ENDBRANCH  21  23
ENDBRANCH  19  21
ENDBRANCH  18  19
ENDBRANCH  17  18
ENDBRANCH  16  17
ENDBRANCH   1  16
TORSDOF 10
ENDMDL
MODEL 5
REMARK VINA RESULT:    -7.165      5.134      7.166
REMARK INTER + INTRA:         -12.399
REMARK INTER:                 -11.473
REMARK INTRA:                  -0.926
REMARK UNBOUND:                -1.045
REMARK  Name = cpd108.pdb
REMARK  11 active torsions:
REMARK  status: ('A' for Active; 'I' for Inactive)
REMARK    1  A    between atoms: C_1  and  N_2
REMARK    2  A    between atoms: N_2  and  C_3
REMARK    3  A    between atoms: N_2  and  C_21
REMARK    4  A    between atoms: C_3  and  C_4
REMARK    5  A    between atoms: C_4  and  C_5
REMARK    6  A    between atoms: C_5  and  C_6
REMARK    7  A    between atoms: C_6  and  C_7
REMARK    8  A    between atoms: C_7  and  N_8
REMARK    9  A    between atoms: N_8  and  C_9
REMARK   10  A    between atoms: C_12  and  C_13
REMARK   11  A    between atoms: C_21  and  C_22
REMARK                            x       y       z     vdW  Elec       q    Type
REMARK                         _______ _______ _______ _____ _____    ______ ____
ROOT
ATOM      1  C   UNL     1      34.306 -38.352 -27.812  0.00  0.00    +0.010 C 
ENDROOT
BRANCH   1   2
ATOM      2  N   UNL     1      34.925 -37.030 -27.881  0.00  0.00    -0.328 N 
ATOM      3  H   UNL     1      34.509 -36.224 -27.499  0.00  0.00    +0.000 HD
BRANCH   2   4
ATOM      4  C   UNL     1      36.167 -37.008 -28.542  0.00  0.00    +0.141 A 
ATOM      5  C   UNL     1      37.195 -37.788 -28.036  0.00  0.00    -0.018 A 
ATOM      6  C   UNL     1      38.433 -37.815 -28.682  0.00  0.00    -0.031 A 
ATOM      7  C   UNL     1      38.621 -37.058 -29.830  0.00  0.00    +0.093 A 
ATOM      8  N   UNL     1      37.598 -36.320 -30.312  0.00  0.00    -0.147 NA
ATOM      9  N   UNL     1      36.371 -36.303 -29.671  0.00  0.00    -0.134 NA
BRANCH   7  10
ATOM     10  C   UNL     1      39.885 -37.012 -30.591  0.00  0.00    +0.002 A 
ATOM     11  C   UNL     1      41.068 -37.611 -30.120  0.00  0.00    -0.053 A 
ATOM     12  C   UNL     1      42.257 -37.561 -30.858  0.00  0.00    -0.061 A 
ATOM     13  C   UNL     1      42.290 -36.904 -32.084  0.00  0.00    -0.062 A 
ATOM     14  C   UNL     1      41.138 -36.296 -32.572  0.00  0.00    -0.061 A 
ATOM     15  C   UNL     1      39.953 -36.348 -31.832  0.00  0.00    -0.053 A 
ENDBRANCH   7  10
ENDBRANCH   2   4
ENDBRANCH   1   2
BRANCH   1  16
ATOM     16  C   UNL     1      34.074 -38.718 -26.343  0.00  0.00    -0.037 C 
BRANCH  16  17
ATOM     17  C   UNL     1      33.417 -37.570 -25.577  0.00  0.00    -0.050 C 
BRANCH  17  18
ATOM     18  C   UNL     1      33.724 -37.539 -24.075  0.00  0.00    -0.040 C 
BRANCH  18  19
ATOM     19  C   UNL     1      32.528 -37.226 -23.160  0.00  0.00    -0.001 C 
BRANCH  19  21
ATOM     20  C   UNL     1      31.409 -37.584 -21.035  0.00  0.00    -0.012 C 
ATOM     21  N   UNL     1      32.678 -37.674 -21.767  0.00  0.00    -0.301 N 
ATOM     22  H   UNL     1      33.344 -37.055 -21.304  0.00  0.00    +0.000 HD
BRANCH  21  23
ATOM     23  C   UNL     1      33.200 -39.055 -21.734  0.00  0.00    +0.024 C 
BRANCH  23  24
ATOM     24  C   UNL     1      34.504 -39.193 -20.974  0.00  0.00    -0.033 A 
ATOM     25  C   UNL     1      35.073 -38.090 -20.322  0.00  0.00    -0.057 A 
ATOM     26  C   UNL     1      36.267 -38.226 -19.612  0.00  0.00    -0.061 A 
ATOM     27  C   UNL     1      36.903 -39.464 -19.543  0.00  0.00    -0.062 A 
ATOM     28  C   UNL     1      36.346 -40.570 -20.183  0.00  0.00    -0.061 A 
ATOM     29  C   UNL     1      35.152 -40.436 -20.893  0.00  0.00    -0.057 A 
ENDBRANCH  23  24
ENDBRANCH  21  23
ENDBRANCH  19  21
ENDBRANCH  18  19
ENDBRANCH  17  18
ENDBRANCH  16  17
ENDBRANCH   1  16
TORSDOF 10
ENDMDL
MODEL 6
REMARK VINA RESULT:    -7.161      2.189      3.638
REMARK INTER + INTRA:         -12.393
REMARK INTER:                 -11.543
REMARK INTRA:                  -0.849
REMARK UNBOUND:                -1.045
REMARK  Name = cpd108.pdb
REMARK  11 active torsions:
REMARK  status: ('A' for Active; 'I' for Inactive)
REMARK    1  A    between atoms: C_1  and  N_2
REMARK    2  A    between atoms: N_2  and  C_3
REMARK    3  A    between atoms: N_2  and  C_21
REMARK    4  A    between atoms: C_3  and  C_4
REMARK    5  A    between atoms: C_4  and  C_5
REMARK    6  A    between atoms: C_5  and  C_6
REMARK    7  A    between atoms: C_6  and  C_7
REMARK    8  A    between atoms: C_7  and  N_8
REMARK    9  A    between atoms: N_8  and  C_9
REMARK   10  A    between atoms: C_12  and  C_13
REMARK   11  A    between atoms: C_21  and  C_22
REMARK                            x       y       z     vdW  Elec       q    Type
REMARK                         _______ _______ _______ _____ _____    ______ ____
ROOT
ATOM      1  C   UNL     1      39.624 -35.870 -32.227  0.00  0.00    +0.010 C 
ENDROOT
BRANCH   1   2
ATOM      2  N   UNL     1      40.046 -36.042 -30.838  0.00  0.00    -0.328 N 
ATOM      3  H   UNL     1      39.619 -35.571 -30.087  0.00  0.00    +0.000 HD
BRANCH   2   4
ATOM      4  C   UNL     1      41.114 -36.942 -30.667  0.00  0.00    +0.141 A 
ATOM      5  C   UNL     1      42.131 -36.943 -31.609  0.00  0.00    -0.018 A 
ATOM      6  C   UNL     1      43.222 -37.802 -31.457  0.00  0.00    -0.031 A 
ATOM      7  C   UNL     1      43.279 -38.646 -30.356  0.00  0.00    +0.093 A 
ATOM      8  N   UNL     1      42.284 -38.612 -29.444  0.00  0.00    -0.147 NA
ATOM      9  N   UNL     1      41.208 -37.754 -29.597  0.00  0.00    -0.134 NA
BRANCH   7  10
ATOM     10  C   UNL     1      44.382 -39.591 -30.096  0.00  0.00    +0.002 A 
ATOM     11  C   UNL     1      45.499 -39.244 -29.313  0.00  0.00    -0.053 A 
ATOM     12  C   UNL     1      46.534 -40.155 -29.073  0.00  0.00    -0.061 A 
ATOM     13  C   UNL     1      46.478 -41.435 -29.617  0.00  0.00    -0.062 A 
ATOM     14  C   UNL     1      45.391 -41.803 -30.402  0.00  0.00    -0.061 A 
ATOM     15  C   UNL     1      44.359 -40.890 -30.639  0.00  0.00    -0.053 A 
ENDBRANCH   7  10
ENDBRANCH   2   4
ENDBRANCH   1   2
BRANCH   1  16
ATOM     16  C   UNL     1      38.117 -35.598 -32.261  0.00  0.00    -0.037 C 
BRANCH  16  17
ATOM     17  C   UNL     1      37.408 -36.227 -31.062  0.00  0.00    -0.050 C 
BRANCH  17  18
ATOM     18  C   UNL     1      36.015 -35.656 -30.766  0.00  0.00    -0.040 C 
BRANCH  18  19
ATOM     19  C   UNL     1      35.031 -36.627 -30.093  0.00  0.00    -0.001 C 
BRANCH  19  21
ATOM     20  C   UNL     1      33.124 -36.918 -28.617  0.00  0.00    -0.012 C 
ATOM     21  N   UNL     1      33.839 -35.994 -29.504  0.00  0.00    -0.301 N 
ATOM     22  H   UNL     1      33.205 -35.745 -30.263  0.00  0.00    +0.000 HD
BRANCH  21  23
ATOM     23  C   UNL     1      34.227 -34.769 -28.776  0.00  0.00    +0.024 C 
BRANCH  23  24
ATOM     24  C   UNL     1      33.519 -33.522 -29.268  0.00  0.00    -0.033 A 
ATOM     25  C   UNL     1      32.198 -33.250 -28.882  0.00  0.00    -0.057 A 
ATOM     26  C   UNL     1      31.556 -32.092 -29.326  0.00  0.00    -0.061 A 
ATOM     27  C   UNL     1      32.226 -31.195 -30.156  0.00  0.00    -0.062 A 
ATOM     28  C   UNL     1      33.540 -31.452 -30.543  0.00  0.00    -0.061 A 
ATOM     29  C   UNL     1      34.183 -32.608 -30.100  0.00  0.00    -0.057 A 
ENDBRANCH  23  24
ENDBRANCH  21  23
ENDBRANCH  19  21
ENDBRANCH  18  19
ENDBRANCH  17  18
ENDBRANCH  16  17
ENDBRANCH   1  16
TORSDOF 10
ENDMDL
MODEL 7
REMARK VINA RESULT:    -6.725      4.787      7.279
REMARK INTER + INTRA:         -11.702
REMARK INTER:                  -9.386
REMARK INTRA:                  -2.316
REMARK UNBOUND:                -1.045
REMARK  Name = cpd108.pdb
REMARK  11 active torsions:
REMARK  status: ('A' for Active; 'I' for Inactive)
REMARK    1  A    between atoms: C_1  and  N_2
REMARK    2  A    between atoms: N_2  and  C_3
REMARK    3  A    between atoms: N_2  and  C_21
REMARK    4  A    between atoms: C_3  and  C_4
REMARK    5  A    between atoms: C_4  and  C_5
REMARK    6  A    between atoms: C_5  and  C_6
REMARK    7  A    between atoms: C_6  and  C_7
REMARK    8  A    between atoms: C_7  and  N_8
REMARK    9  A    between atoms: N_8  and  C_9
REMARK   10  A    between atoms: C_12  and  C_13
REMARK   11  A    between atoms: C_21  and  C_22
REMARK                            x       y       z     vdW  Elec       q    Type
REMARK                         _______ _______ _______ _____ _____    ______ ____
ROOT
ATOM      1  C   UNL     1      31.093 -31.381 -30.359  0.00  0.00    +0.010 C 
ENDROOT
BRANCH   1   2
ATOM      2  N   UNL     1      32.418 -30.897 -30.741  0.00  0.00    -0.328 N 
ATOM      3  H   UNL     1      32.590 -29.966 -31.012  0.00  0.00    +0.000 HD
BRANCH   2   4
ATOM      4  C   UNL     1      33.428 -31.876 -30.689  0.00  0.00    +0.141 A 
ATOM      5  C   UNL     1      33.520 -32.666 -29.554  0.00  0.00    -0.018 A 
ATOM      6  C   UNL     1      34.491 -33.668 -29.478  0.00  0.00    -0.031 A 
ATOM      7  C   UNL     1      35.354 -33.864 -30.547  0.00  0.00    +0.093 A 
ATOM      8  N   UNL     1      35.232 -33.092 -31.648  0.00  0.00    -0.147 NA
ATOM      9  N   UNL     1      34.263 -32.106 -31.720  0.00  0.00    -0.134 NA
BRANCH   7  10
ATOM     10  C   UNL     1      36.414 -34.891 -30.575  0.00  0.00    +0.002 A 
ATOM     11  C   UNL     1      37.434 -34.892 -31.545  0.00  0.00    -0.053 A 
ATOM     12  C   UNL     1      38.434 -35.871 -31.552  0.00  0.00    -0.061 A 
ATOM     13  C   UNL     1      38.433 -36.877 -30.591  0.00  0.00    -0.062 A 
ATOM     14  C   UNL     1      37.434 -36.907 -29.625  0.00  0.00    -0.061 A 
ATOM     15  C   UNL     1      36.436 -35.927 -29.620  0.00  0.00    -0.053 A 
ENDBRANCH   7  10
ENDBRANCH   2   4
ENDBRANCH   1   2
BRANCH   1  16
ATOM     16  C   UNL     1      30.340 -31.822 -31.617  0.00  0.00    -0.037 C 
BRANCH  16  17
ATOM     17  C   UNL     1      29.924 -33.291 -31.533  0.00  0.00    -0.050 C 
BRANCH  17  18
ATOM     18  C   UNL     1      31.073 -34.295 -31.687  0.00  0.00    -0.040 C 
BRANCH  18  19
ATOM     19  C   UNL     1      30.711 -35.764 -31.414  0.00  0.00    -0.001 C 
BRANCH  19  21
ATOM     20  C   UNL     1      30.225 -37.188 -29.508  0.00  0.00    -0.012 C 
ATOM     21  N   UNL     1      31.209 -36.299 -30.137  0.00  0.00    -0.301 N 
ATOM     22  H   UNL     1      31.365 -35.516 -29.503  0.00  0.00    +0.000 HD
BRANCH  21  23
ATOM     23  C   UNL     1      32.487 -37.008 -30.351  0.00  0.00    +0.024 C 
BRANCH  23  24
ATOM     24  C   UNL     1      33.223 -37.334 -29.067  0.00  0.00    -0.033 A 
ATOM     25  C   UNL     1      33.959 -38.521 -28.944  0.00  0.00    -0.057 A 
ATOM     26  C   UNL     1      34.646 -38.809 -27.764  0.00  0.00    -0.061 A 
ATOM     27  C   UNL     1      34.608 -37.914 -26.696  0.00  0.00    -0.062 A 
ATOM     28  C   UNL     1      33.884 -36.728 -26.806  0.00  0.00    -0.061 A 
ATOM     29  C   UNL     1      33.197 -36.439 -27.985  0.00  0.00    -0.057 A 
ENDBRANCH  23  24
ENDBRANCH  21  23
ENDBRANCH  19  21
ENDBRANCH  18  19
ENDBRANCH  17  18
ENDBRANCH  16  17
ENDBRANCH   1  16
TORSDOF 10
ENDMDL
MODEL 8
REMARK VINA RESULT:    -6.689      3.585      6.955
REMARK INTER + INTRA:         -11.644
REMARK INTER:                  -9.713
REMARK INTRA:                  -1.930
REMARK UNBOUND:                -1.045
REMARK  Name = cpd108.pdb
REMARK  11 active torsions:
REMARK  status: ('A' for Active; 'I' for Inactive)
REMARK    1  A    between atoms: C_1  and  N_2
REMARK    2  A    between atoms: N_2  and  C_3
REMARK    3  A    between atoms: N_2  and  C_21
REMARK    4  A    between atoms: C_3  and  C_4
REMARK    5  A    between atoms: C_4  and  C_5
REMARK    6  A    between atoms: C_5  and  C_6
REMARK    7  A    between atoms: C_6  and  C_7
REMARK    8  A    between atoms: C_7  and  N_8
REMARK    9  A    between atoms: N_8  and  C_9
REMARK   10  A    between atoms: C_12  and  C_13
REMARK   11  A    between atoms: C_21  and  C_22
REMARK                            x       y       z     vdW  Elec       q    Type
REMARK                         _______ _______ _______ _____ _____    ______ ____
ROOT
ATOM      1  C   UNL     1      31.831 -35.813 -27.105  0.00  0.00    +0.010 C 
ENDROOT
BRANCH   1   2
ATOM      2  N   UNL     1      32.196 -37.000 -27.876  0.00  0.00    -0.328 N 
ATOM      3  H   UNL     1      31.543 -37.685 -28.146  0.00  0.00    +0.000 HD
BRANCH   2   4
ATOM      4  C   UNL     1      33.564 -37.079 -28.200  0.00  0.00    +0.141 A 
ATOM      5  C   UNL     1      34.482 -37.157 -27.165  0.00  0.00    -0.018 A 
ATOM      6  C   UNL     1      35.845 -37.266 -27.448  0.00  0.00    -0.031 A 
ATOM      7  C   UNL     1      36.267 -37.300 -28.770  0.00  0.00    +0.093 A 
ATOM      8  N   UNL     1      35.351 -37.241 -29.760  0.00  0.00    -0.147 NA
ATOM      9  N   UNL     1      34.000 -37.139 -29.473  0.00  0.00    -0.134 NA
BRANCH   7  10
ATOM     10  C   UNL     1      37.680 -37.414 -29.183  0.00  0.00    +0.002 A 
ATOM     11  C   UNL     1      38.165 -36.830 -30.369  0.00  0.00    -0.053 A 
ATOM     12  C   UNL     1      39.509 -36.945 -30.742  0.00  0.00    -0.061 A 
ATOM     13  C   UNL     1      40.399 -37.652 -29.939  0.00  0.00    -0.062 A 
ATOM     14  C   UNL     1      39.947 -38.247 -28.766  0.00  0.00    -0.061 A 
ATOM     15  C   UNL     1      38.603 -38.130 -28.396  0.00  0.00    -0.053 A 
ENDBRANCH   7  10
ENDBRANCH   2   4
ENDBRANCH   1   2
BRANCH   1  16
ATOM     16  C   UNL     1      31.138 -34.810 -28.031  0.00  0.00    -0.037 C 
BRANCH  16  17
ATOM     17  C   UNL     1      30.773 -35.446 -29.373  0.00  0.00    -0.050 C 
BRANCH  17  18
ATOM     18  C   UNL     1      29.883 -34.582 -30.274  0.00  0.00    -0.040 C 
BRANCH  18  19
ATOM     19  C   UNL     1      29.951 -33.068 -30.019  0.00  0.00    -0.001 C 
BRANCH  19  21
ATOM     20  C   UNL     1      29.212 -31.377 -31.598  0.00  0.00    -0.012 C 
ATOM     21  N   UNL     1      30.314 -32.256 -31.192  0.00  0.00    -0.301 N 
ATOM     22  H   UNL     1      30.505 -32.888 -31.969  0.00  0.00    +0.000 HD
BRANCH  21  23
ATOM     23  C   UNL     1      31.528 -31.466 -30.902  0.00  0.00    +0.024 C 
BRANCH  23  24
ATOM     24  C   UNL     1      32.780 -32.309 -30.757  0.00  0.00    -0.033 A 
ATOM     25  C   UNL     1      33.159 -33.208 -31.764  0.00  0.00    -0.057 A 
ATOM     26  C   UNL     1      34.320 -33.971 -31.631  0.00  0.00    -0.061 A 
ATOM     27  C   UNL     1      35.115 -33.843 -30.493  0.00  0.00    -0.062 A 
ATOM     28  C   UNL     1      34.752 -32.951 -29.487  0.00  0.00    -0.061 A 
ATOM     29  C   UNL     1      33.592 -32.186 -29.618  0.00  0.00    -0.057 A 
ENDBRANCH  23  24
ENDBRANCH  21  23
ENDBRANCH  19  21
ENDBRANCH  18  19
ENDBRANCH  17  18
ENDBRANCH  16  17
ENDBRANCH   1  16
TORSDOF 10
ENDMDL
MODEL 9
REMARK VINA RESULT:    -6.613     16.912     20.730
REMARK INTER + INTRA:         -11.524
REMARK INTER:                 -10.373
REMARK INTRA:                  -1.152
REMARK UNBOUND:                -1.045
REMARK  Name = cpd108.pdb
REMARK  11 active torsions:
REMARK  status: ('A' for Active; 'I' for Inactive)
REMARK    1  A    between atoms: C_1  and  N_2
REMARK    2  A    between atoms: N_2  and  C_3
REMARK    3  A    between atoms: N_2  and  C_21
REMARK    4  A    between atoms: C_3  and  C_4
REMARK    5  A    between atoms: C_4  and  C_5
REMARK    6  A    between atoms: C_5  and  C_6
REMARK    7  A    between atoms: C_6  and  C_7
REMARK    8  A    between atoms: C_7  and  N_8
REMARK    9  A    between atoms: N_8  and  C_9
REMARK   10  A    between atoms: C_12  and  C_13
REMARK   11  A    between atoms: C_21  and  C_22
REMARK                            x       y       z     vdW  Elec       q    Type
REMARK                         _______ _______ _______ _____ _____    ______ ____
ROOT
ATOM      1  C   UNL     1      42.385 -20.728 -40.939  0.00  0.00    +0.010 C 
ENDROOT
BRANCH   1   2
ATOM      2  N   UNL     1      41.739 -21.961 -40.496  0.00  0.00    -0.328 N 
ATOM      3  H   UNL     1      41.724 -22.782 -41.039  0.00  0.00    +0.000 HD
BRANCH   2   4
ATOM      4  C   UNL     1      41.140 -21.875 -39.225  0.00  0.00    +0.141 A 
ATOM      5  C   UNL     1      40.606 -20.659 -38.831  0.00  0.00    -0.018 A 
ATOM      6  C   UNL     1      39.978 -20.542 -37.589  0.00  0.00    -0.031 A 
ATOM      7  C   UNL     1      39.892 -21.653 -36.761  0.00  0.00    +0.093 A 
ATOM      8  N   UNL     1      40.405 -22.831 -37.176  0.00  0.00    -0.147 NA
ATOM      9  N   UNL     1      41.020 -22.941 -38.411  0.00  0.00    -0.134 NA
BRANCH   7  10
ATOM     10  C   UNL     1      39.251 -21.644 -35.431  0.00  0.00    +0.002 A 
ATOM     11  C   UNL     1      38.084 -20.903 -35.165  0.00  0.00    -0.053 A 
ATOM     12  C   UNL     1      37.487 -20.910 -33.898  0.00  0.00    -0.061 A 
ATOM     13  C   UNL     1      38.049 -21.655 -32.866  0.00  0.00    -0.062 A 
ATOM     14  C   UNL     1      39.206 -22.391 -33.097  0.00  0.00    -0.061 A 
ATOM     15  C   UNL     1      39.799 -22.382 -34.363  0.00  0.00    -0.053 A 
ENDBRANCH   7  10
ENDBRANCH   2   4
ENDBRANCH   1   2
BRANCH   1  16
ATOM     16  C   UNL     1      43.468 -21.072 -41.966  0.00  0.00    -0.037 C 
BRANCH  16  17
ATOM     17  C   UNL     1      44.278 -19.837 -42.360  0.00  0.00    -0.050 C 
BRANCH  17  18
ATOM     18  C   UNL     1      44.831 -19.027 -41.180  0.00  0.00    -0.040 C 
BRANCH  18  19
ATOM     19  C   UNL     1      46.342 -19.166 -40.931  0.00  0.00    -0.001 C 
BRANCH  19  21
ATOM     20  C   UNL     1      46.087 -18.840 -38.538  0.00  0.00    -0.012 C 
ATOM     21  N   UNL     1      46.707 -19.652 -39.591  0.00  0.00    -0.301 N 
ATOM     22  H   UNL     1      47.718 -19.568 -39.487  0.00  0.00    +0.000 HD
BRANCH  21  23
ATOM     23  C   UNL     1      46.324 -21.071 -39.447  0.00  0.00    +0.024 C 
BRANCH  23  24
ATOM     24  C   UNL     1      47.057 -21.996 -40.398  0.00  0.00    -0.033 A 
ATOM     25  C   UNL     1      46.365 -22.675 -41.412  0.00  0.00    -0.057 A 
ATOM     26  C   UNL     1      47.048 -23.514 -42.294  0.00  0.00    -0.061 A 
ATOM     27  C   UNL     1      48.426 -23.683 -42.174  0.00  0.00    -0.062 A 
ATOM     28  C   UNL     1      49.126 -23.012 -41.174  0.00  0.00    -0.061 A 
ATOM     29  C   UNL     1      48.446 -22.172 -40.291  0.00  0.00    -0.057 A 
ENDBRANCH  23  24
ENDBRANCH  21  23
ENDBRANCH  19  21
ENDBRANCH  18  19
ENDBRANCH  17  18
ENDBRANCH  16  17
ENDBRANCH   1  16
TORSDOF 10
ENDMDL
MODEL 10
REMARK VINA RESULT:    -6.520     16.962     20.420
REMARK INTER + INTRA:         -11.377
REMARK INTER:                  -9.186
REMARK INTRA:                  -2.191
REMARK UNBOUND:                -1.045
REMARK  Name = cpd108.pdb
REMARK  11 active torsions:
REMARK  status: ('A' for Active; 'I' for Inactive)
REMARK    1  A    between atoms: C_1  and  N_2
REMARK    2  A    between atoms: N_2  and  C_3
REMARK    3  A    between atoms: N_2  and  C_21
REMARK    4  A    between atoms: C_3  and  C_4
REMARK    5  A    between atoms: C_4  and  C_5
REMARK    6  A    between atoms: C_5  and  C_6
REMARK    7  A    between atoms: C_6  and  C_7
REMARK    8  A    between atoms: C_7  and  N_8
REMARK    9  A    between atoms: N_8  and  C_9
REMARK   10  A    between atoms: C_12  and  C_13
REMARK   11  A    between atoms: C_21  and  C_22
REMARK                            x       y       z     vdW  Elec       q    Type
REMARK                         _______ _______ _______ _____ _____    ______ ____
ROOT
ATOM      1  C   UNL     1      43.231 -20.812 -41.064  0.00  0.00    +0.010 C 
ENDROOT
BRANCH   1   2
ATOM      2  N   UNL     1      42.357 -21.921 -40.688  0.00  0.00    -0.328 N 
ATOM      3  H   UNL     1      42.065 -22.612 -41.326  0.00  0.00    +0.000 HD
BRANCH   2   4
ATOM      4  C   UNL     1      41.968 -21.917 -39.336  0.00  0.00    +0.141 A 
ATOM      5  C   UNL     1      42.352 -20.847 -38.544  0.00  0.00    -0.018 A 
ATOM      6  C   UNL     1      41.960 -20.794 -37.204  0.00  0.00    -0.031 A 
ATOM      7  C   UNL     1      41.183 -21.817 -36.679  0.00  0.00    +0.093 A 
ATOM      8  N   UNL     1      40.807 -22.839 -37.477  0.00  0.00    -0.147 NA
ATOM      9  N   UNL     1      41.193 -22.883 -38.806  0.00  0.00    -0.134 NA
BRANCH   7  10
ATOM     10  C   UNL     1      40.712 -21.862 -35.281  0.00  0.00    +0.002 A 
ATOM     11  C   UNL     1      41.431 -21.267 -34.227  0.00  0.00    -0.053 A 
ATOM     12  C   UNL     1      40.967 -21.316 -32.907  0.00  0.00    -0.061 A 
ATOM     13  C   UNL     1      39.774 -21.968 -32.610  0.00  0.00    -0.062 A 
ATOM     14  C   UNL     1      39.046 -22.572 -33.630  0.00  0.00    -0.061 A 
ATOM     15  C   UNL     1      39.512 -22.521 -34.947  0.00  0.00    -0.053 A 
ENDBRANCH   7  10
ENDBRANCH   2   4
ENDBRANCH   1   2
BRANCH   1  16
ATOM     16  C   UNL     1      44.169 -21.273 -42.184  0.00  0.00    -0.037 C 
BRANCH  16  17
ATOM     17  C   UNL     1      45.112 -20.152 -42.619  0.00  0.00    -0.050 C 
BRANCH  17  18
ATOM     18  C   UNL     1      45.452 -19.134 -41.522  0.00  0.00    -0.040 C 
BRANCH  18  19
ATOM     19  C   UNL     1      46.719 -19.437 -40.706  0.00  0.00    -0.001 C 
BRANCH  19  21
ATOM     20  C   UNL     1      47.054 -21.622 -39.701  0.00  0.00    -0.012 C 
ATOM     21  N   UNL     1      46.505 -20.274 -39.515  0.00  0.00    -0.301 N 
ATOM     22  H   UNL     1      45.500 -20.370 -39.370  0.00  0.00    +0.000 HD
BRANCH  21  23
ATOM     23  C   UNL     1      47.105 -19.628 -38.330  0.00  0.00    +0.024 C 
BRANCH  23  24
ATOM     24  C   UNL     1      46.123 -19.413 -37.195  0.00  0.00    -0.033 A 
ATOM     25  C   UNL     1      45.998 -20.360 -36.168  0.00  0.00    -0.057 A 
ATOM     26  C   UNL     1      45.103 -20.150 -35.117  0.00  0.00    -0.061 A 
ATOM     27  C   UNL     1      44.327 -18.993 -35.080  0.00  0.00    -0.062 A 
ATOM     28  C   UNL     1      44.444 -18.043 -36.092  0.00  0.00    -0.061 A 
ATOM     29  C   UNL     1      45.339 -18.250 -37.143  0.00  0.00    -0.057 A 
ENDBRANCH  23  24
ENDBRANCH  21  23
ENDBRANCH  19  21
ENDBRANCH  18  19
ENDBRANCH  17  18
ENDBRANCH  16  17
ENDBRANCH   1  16
TORSDOF 10
ENDMDL
MODEL 11
REMARK VINA RESULT:    -6.502      3.072      5.148
REMARK INTER + INTRA:         -11.348
REMARK INTER:                 -10.346
REMARK INTRA:                  -1.002
REMARK UNBOUND:                -1.045
REMARK  Name = cpd108.pdb
REMARK  11 active torsions:
REMARK  status: ('A' for Active; 'I' for Inactive)
REMARK    1  A    between atoms: C_1  and  N_2
REMARK    2  A    between atoms: N_2  and  C_3
REMARK    3  A    between atoms: N_2  and  C_21
REMARK    4  A    between atoms: C_3  and  C_4
REMARK    5  A    between atoms: C_4  and  C_5
REMARK    6  A    between atoms: C_5  and  C_6
REMARK    7  A    between atoms: C_6  and  C_7
REMARK    8  A    between atoms: C_7  and  N_8
REMARK    9  A    between atoms: N_8  and  C_9
REMARK   10  A    between atoms: C_12  and  C_13
REMARK   11  A    between atoms: C_21  and  C_22
REMARK                            x       y       z     vdW  Elec       q    Type
REMARK                         _______ _______ _______ _____ _____    ______ ____
ROOT
ATOM      1  C   UNL     1      34.325 -35.313 -29.910  0.00  0.00    +0.010 C 
ENDROOT
BRANCH   1   2
ATOM      2  N   UNL     1      35.213 -34.869 -30.983  0.00  0.00    -0.328 N 
ATOM      3  H   UNL     1      34.934 -34.233 -31.680  0.00  0.00    +0.000 HD
BRANCH   2   4
ATOM      4  C   UNL     1      36.503 -35.431 -30.934  0.00  0.00    +0.141 A 
ATOM      5  C   UNL     1      36.783 -36.351 -29.937  0.00  0.00    -0.018 A 
ATOM      6  C   UNL     1      38.043 -36.951 -29.874  0.00  0.00    -0.031 A 
ATOM      7  C   UNL     1      39.004 -36.620 -30.819  0.00  0.00    +0.093 A 
ATOM      8  N   UNL     1      38.700 -35.733 -31.792  0.00  0.00    -0.147 NA
ATOM      9  N   UNL     1      37.447 -35.148 -31.852  0.00  0.00    -0.134 NA
BRANCH   7  10
ATOM     10  C   UNL     1      40.365 -37.192 -30.848  0.00  0.00    +0.002 A 
ATOM     11  C   UNL     1      40.858 -38.010 -29.814  0.00  0.00    -0.053 A 
ATOM     12  C   UNL     1      42.150 -38.547 -29.861  0.00  0.00    -0.061 A 
ATOM     13  C   UNL     1      42.980 -38.274 -30.943  0.00  0.00    -0.062 A 
ATOM     14  C   UNL     1      42.523 -37.462 -31.976  0.00  0.00    -0.061 A 
ATOM     15  C   UNL     1      41.232 -36.927 -31.926  0.00  0.00    -0.053 A 
ENDBRANCH   7  10
ENDBRANCH   2   4
ENDBRANCH   1   2
BRANCH   1  16
ATOM     16  C   UNL     1      32.936 -34.708 -30.130  0.00  0.00    -0.037 C 
BRANCH  16  17
ATOM     17  C   UNL     1      31.958 -35.144 -29.039  0.00  0.00    -0.050 C 
BRANCH  17  18
ATOM     18  C   UNL     1      31.542 -36.619 -29.099  0.00  0.00    -0.040 C 
BRANCH  18  19
ATOM     19  C   UNL     1      31.456 -37.340 -27.743  0.00  0.00    -0.001 C 
BRANCH  19  21
ATOM     20  C   UNL     1      33.404 -38.568 -28.513  0.00  0.00    -0.012 C 
ATOM     21  N   UNL     1      32.676 -38.060 -27.345  0.00  0.00    -0.301 N 
ATOM     22  H   UNL     1      32.400 -38.865 -26.783  0.00  0.00    +0.000 HD
BRANCH  21  23
ATOM     23  C   UNL     1      33.541 -37.179 -26.535  0.00  0.00    +0.024 C 
BRANCH  23  24
ATOM     24  C   UNL     1      33.546 -37.525 -25.060  0.00  0.00    -0.033 A 
ATOM     25  C   UNL     1      33.614 -36.516 -24.088  0.00  0.00    -0.057 A 
ATOM     26  C   UNL     1      33.604 -36.840 -22.730  0.00  0.00    -0.061 A 
ATOM     27  C   UNL     1      33.524 -38.172 -22.329  0.00  0.00    -0.062 A 
ATOM     28  C   UNL     1      33.453 -39.184 -23.284  0.00  0.00    -0.061 A 
ATOM     29  C   UNL     1      33.462 -38.862 -24.642  0.00  0.00    -0.057 A 
ENDBRANCH  23  24
ENDBRANCH  21  23
ENDBRANCH  19  21
ENDBRANCH  18  19
ENDBRANCH  17  18
ENDBRANCH  16  17
ENDBRANCH   1  16
TORSDOF 10
ENDMDL
MODEL 12
REMARK VINA RESULT:    -6.456     17.354     20.100
REMARK INTER + INTRA:         -11.276
REMARK INTER:                  -7.915
REMARK INTRA:                  -3.360
REMARK UNBOUND:                -1.045
REMARK  Name = cpd108.pdb
REMARK  11 active torsions:
REMARK  status: ('A' for Active; 'I' for Inactive)
REMARK    1  A    between atoms: C_1  and  N_2
REMARK    2  A    between atoms: N_2  and  C_3
REMARK    3  A    between atoms: N_2  and  C_21
REMARK    4  A    between atoms: C_3  and  C_4
REMARK    5  A    between atoms: C_4  and  C_5
REMARK    6  A    between atoms: C_5  and  C_6
REMARK    7  A    between atoms: C_6  and  C_7
REMARK    8  A    between atoms: C_7  and  N_8
REMARK    9  A    between atoms: N_8  and  C_9
REMARK   10  A    between atoms: C_12  and  C_13
REMARK   11  A    between atoms: C_21  and  C_22
REMARK                            x       y       z     vdW  Elec       q    Type
REMARK                         _______ _______ _______ _____ _____    ______ ____
ROOT
ATOM      1  C   UNL     1      47.220 -18.318 -35.941  0.00  0.00    +0.010 C 
ENDROOT
BRANCH   1   2
ATOM      2  N   UNL     1      46.855 -17.921 -34.583  0.00  0.00    -0.328 N 
ATOM      3  H   UNL     1      47.435 -17.367 -34.013  0.00  0.00    +0.000 HD
BRANCH   2   4
ATOM      4  C   UNL     1      45.601 -18.400 -34.159  0.00  0.00    +0.141 A 
ATOM      5  C   UNL     1      44.656 -17.481 -33.730  0.00  0.00    -0.018 A 
ATOM      6  C   UNL     1      43.391 -17.915 -33.329  0.00  0.00    -0.031 A 
ATOM      7  C   UNL     1      43.091 -19.270 -33.369  0.00  0.00    +0.093 A 
ATOM      8  N   UNL     1      44.023 -20.143 -33.807  0.00  0.00    -0.147 NA
ATOM      9  N   UNL     1      45.273 -19.705 -34.210  0.00  0.00    -0.134 NA
BRANCH   7  10
ATOM     10  C   UNL     1      41.788 -19.839 -32.970  0.00  0.00    +0.002 A 
ATOM     11  C   UNL     1      41.577 -21.226 -32.857  0.00  0.00    -0.053 A 
ATOM     12  C   UNL     1      40.336 -21.747 -32.473  0.00  0.00    -0.061 A 
ATOM     13  C   UNL     1      39.274 -20.891 -32.198  0.00  0.00    -0.062 A 
ATOM     14  C   UNL     1      39.450 -19.516 -32.309  0.00  0.00    -0.061 A 
ATOM     15  C   UNL     1      40.692 -18.999 -32.693  0.00  0.00    -0.053 A 
ENDBRANCH   7  10
ENDBRANCH   2   4
ENDBRANCH   1   2
BRANCH   1  16
ATOM     16  C   UNL     1      46.557 -17.361 -36.936  0.00  0.00    -0.037 C 
BRANCH  16  17
ATOM     17  C   UNL     1      45.732 -18.119 -37.975  0.00  0.00    -0.050 C 
BRANCH  17  18
ATOM     18  C   UNL     1      44.238 -18.240 -37.648  0.00  0.00    -0.040 C 
BRANCH  18  19
ATOM     19  C   UNL     1      43.357 -18.812 -38.770  0.00  0.00    -0.001 C 
BRANCH  19  21
ATOM     20  C   UNL     1      43.976 -21.087 -39.350  0.00  0.00    -0.012 C 
ATOM     21  N   UNL     1      43.021 -20.238 -38.630  0.00  0.00    -0.301 N 
ATOM     22  H   UNL     1      42.102 -20.390 -39.045  0.00  0.00    +0.000 HD
BRANCH  21  23
ATOM     23  C   UNL     1      42.972 -20.606 -37.200  0.00  0.00    +0.024 C 
BRANCH  23  24
ATOM     24  C   UNL     1      41.591 -21.011 -36.726  0.00  0.00    -0.033 A 
ATOM     25  C   UNL     1      41.257 -22.364 -36.565  0.00  0.00    -0.057 A 
ATOM     26  C   UNL     1      39.988 -22.731 -36.113  0.00  0.00    -0.061 A 
ATOM     27  C   UNL     1      39.041 -21.752 -35.816  0.00  0.00    -0.062 A 
ATOM     28  C   UNL     1      39.361 -20.405 -35.968  0.00  0.00    -0.061 A 
ATOM     29  C   UNL     1      40.629 -20.036 -36.418  0.00  0.00    -0.057 A 
ENDBRANCH  23  24
ENDBRANCH  21  23
ENDBRANCH  19  21
ENDBRANCH  18  19
ENDBRANCH  17  18
ENDBRANCH  16  17
ENDBRANCH   1  16
TORSDOF 10
ENDMDL
MODEL 13
REMARK VINA RESULT:    -6.448      2.867      6.166
REMARK INTER + INTRA:         -11.262
REMARK INTER:                  -9.785
REMARK INTRA:                  -1.477
REMARK UNBOUND:                -1.045
REMARK  Name = cpd108.pdb
REMARK  11 active torsions:
REMARK  status: ('A' for Active; 'I' for Inactive)
REMARK    1  A    between atoms: C_1  and  N_2
REMARK    2  A    between atoms: N_2  and  C_3
REMARK    3  A    between atoms: N_2  and  C_21
REMARK    4  A    between atoms: C_3  and  C_4
REMARK    5  A    between atoms: C_4  and  C_5
REMARK    6  A    between atoms: C_5  and  C_6
REMARK    7  A    between atoms: C_6  and  C_7
REMARK    8  A    between atoms: C_7  and  N_8
REMARK    9  A    between atoms: N_8  and  C_9
REMARK   10  A    between atoms: C_12  and  C_13
REMARK   11  A    between atoms: C_21  and  C_22
REMARK                            x       y       z     vdW  Elec       q    Type
REMARK                         _______ _______ _______ _____ _____    ______ ____
ROOT
ATOM      1  C   UNL     1      33.611 -36.440 -27.349  0.00  0.00    +0.010 C 
ENDROOT
BRANCH   1   2
ATOM      2  N   UNL     1      33.881 -36.224 -28.769  0.00  0.00    -0.328 N 
ATOM      3  H   UNL     1      33.192 -35.925 -29.405  0.00  0.00    +0.000 HD
BRANCH   2   4
ATOM      4  C   UNL     1      35.211 -36.482 -29.150  0.00  0.00    +0.141 A 
ATOM      5  C   UNL     1      35.604 -36.149 -30.436  0.00  0.00    -0.018 A 
ATOM      6  C   UNL     1      36.923 -36.363 -30.841  0.00  0.00    -0.031 A 
ATOM      7  C   UNL     1      37.832 -36.906 -29.944  0.00  0.00    +0.093 A 
ATOM      8  N   UNL     1      37.429 -37.205 -28.690  0.00  0.00    -0.147 NA
ATOM      9  N   UNL     1      36.121 -36.985 -28.294  0.00  0.00    -0.134 NA
BRANCH   7  10
ATOM     10  C   UNL     1      39.249 -37.173 -30.263  0.00  0.00    +0.002 A 
ATOM     11  C   UNL     1      39.867 -36.660 -31.419  0.00  0.00    -0.053 A 
ATOM     12  C   UNL     1      41.213 -36.921 -31.703  0.00  0.00    -0.061 A 
ATOM     13  C   UNL     1      41.970 -37.706 -30.840  0.00  0.00    -0.062 A 
ATOM     14  C   UNL     1      41.383 -38.233 -29.694  0.00  0.00    -0.061 A 
ATOM     15  C   UNL     1      40.039 -37.971 -29.413  0.00  0.00    -0.053 A 
ENDBRANCH   7  10
ENDBRANCH   2   4
ENDBRANCH   1   2
BRANCH   1  16
ATOM     16  C   UNL     1      32.376 -35.628 -26.947  0.00  0.00    -0.037 C 
BRANCH  16  17
ATOM     17  C   UNL     1      31.736 -34.948 -28.156  0.00  0.00    -0.050 C 
BRANCH  17  18
ATOM     18  C   UNL     1      31.800 -33.415 -28.142  0.00  0.00    -0.040 C 
BRANCH  18  19
ATOM     19  C   UNL     1      32.654 -32.777 -29.250  0.00  0.00    -0.001 C 
BRANCH  19  21
ATOM     20  C   UNL     1      31.648 -31.491 -31.047  0.00  0.00    -0.012 C 
ATOM     21  N   UNL     1      32.062 -32.825 -30.596  0.00  0.00    -0.301 N 
ATOM     22  H   UNL     1      31.227 -33.408 -30.555  0.00  0.00    +0.000 HD
BRANCH  21  23
ATOM     23  C   UNL     1      33.021 -33.421 -31.548  0.00  0.00    +0.024 C 
BRANCH  23  24
ATOM     24  C   UNL     1      32.422 -34.520 -32.403  0.00  0.00    -0.033 A 
ATOM     25  C   UNL     1      31.118 -34.979 -32.170  0.00  0.00    -0.057 A 
ATOM     26  C   UNL     1      30.566 -35.981 -32.970  0.00  0.00    -0.061 A 
ATOM     27  C   UNL     1      31.310 -36.533 -34.012  0.00  0.00    -0.062 A 
ATOM     28  C   UNL     1      32.605 -36.083 -34.257  0.00  0.00    -0.061 A 
ATOM     29  C   UNL     1      33.158 -35.081 -33.459  0.00  0.00    -0.057 A 
ENDBRANCH  23  24
ENDBRANCH  21  23
ENDBRANCH  19  21
ENDBRANCH  18  19
ENDBRANCH  17  18
ENDBRANCH  16  17
ENDBRANCH   1  16
TORSDOF 10
ENDMDL
MODEL 14
REMARK VINA RESULT:    -6.409     19.424     20.975
REMARK INTER + INTRA:         -11.200
REMARK INTER:                  -8.335
REMARK INTRA:                  -2.866
REMARK UNBOUND:                -1.045
REMARK  Name = cpd108.pdb
REMARK  11 active torsions:
REMARK  status: ('A' for Active; 'I' for Inactive)
REMARK    1  A    between atoms: C_1  and  N_2
REMARK    2  A    between atoms: N_2  and  C_3
REMARK    3  A    between atoms: N_2  and  C_21
REMARK    4  A    between atoms: C_3  and  C_4
REMARK    5  A    between atoms: C_4  and  C_5
REMARK    6  A    between atoms: C_5  and  C_6
REMARK    7  A    between atoms: C_6  and  C_7
REMARK    8  A    between atoms: C_7  and  N_8
REMARK    9  A    between atoms: N_8  and  C_9
REMARK   10  A    between atoms: C_12  and  C_13
REMARK   11  A    between atoms: C_21  and  C_22
REMARK                            x       y       z     vdW  Elec       q    Type
REMARK                         _______ _______ _______ _____ _____    ______ ____
ROOT
ATOM      1  C   UNL     1      44.590 -21.680 -42.769  0.00  0.00    +0.010 C 
ENDROOT
BRANCH   1   2
ATOM      2  N   UNL     1      45.824 -20.914 -42.612  0.00  0.00    -0.328 N 
ATOM      3  H   UNL     1      46.412 -20.686 -43.369  0.00  0.00    +0.000 HD
BRANCH   2   4
ATOM      4  C   UNL     1      46.101 -20.530 -41.287  0.00  0.00    +0.141 A 
ATOM      5  C   UNL     1      46.534 -21.500 -40.397  0.00  0.00    -0.018 A 
ATOM      6  C   UNL     1      46.846 -21.151 -39.082  0.00  0.00    -0.031 A 
ATOM      7  C   UNL     1      46.723 -19.828 -38.679  0.00  0.00    +0.093 A 
ATOM      8  N   UNL     1      46.316 -18.899 -39.570  0.00  0.00    -0.147 NA
ATOM      9  N   UNL     1      46.015 -19.251 -40.875  0.00  0.00    -0.134 NA
BRANCH   7  10
ATOM     10  C   UNL     1      47.026 -19.348 -37.316  0.00  0.00    +0.002 A 
ATOM     11  C   UNL     1      46.980 -20.196 -36.194  0.00  0.00    -0.053 A 
ATOM     12  C   UNL     1      47.275 -19.724 -34.909  0.00  0.00    -0.061 A 
ATOM     13  C   UNL     1      47.617 -18.390 -34.717  0.00  0.00    -0.062 A 
ATOM     14  C   UNL     1      47.663 -17.526 -35.806  0.00  0.00    -0.061 A 
ATOM     15  C   UNL     1      47.368 -18.001 -37.088  0.00  0.00    -0.053 A 
ENDBRANCH   7  10
ENDBRANCH   2   4
ENDBRANCH   1   2
BRANCH   1  16
ATOM     16  C   UNL     1      43.456 -20.955 -42.038  0.00  0.00    -0.037 C 
BRANCH  16  17
ATOM     17  C   UNL     1      42.404 -21.938 -41.524  0.00  0.00    -0.050 C 
BRANCH  17  18
ATOM     18  C   UNL     1      41.948 -21.696 -40.080  0.00  0.00    -0.040 C 
BRANCH  18  19
ATOM     19  C   UNL     1      42.965 -20.983 -39.174  0.00  0.00    -0.001 C 
BRANCH  19  21
ATOM     20  C   UNL     1      40.925 -20.042 -38.253  0.00  0.00    -0.012 C 
ATOM     21  N   UNL     1      42.376 -20.181 -38.090  0.00  0.00    -0.301 N 
ATOM     22  H   UNL     1      42.780 -19.246 -38.130  0.00  0.00    +0.000 HD
BRANCH  21  23
ATOM     23  C   UNL     1      42.696 -20.789 -36.782  0.00  0.00    +0.024 C 
BRANCH  23  24
ATOM     24  C   UNL     1      43.227 -19.798 -35.766  0.00  0.00    -0.033 A 
ATOM     25  C   UNL     1      43.489 -20.196 -34.447  0.00  0.00    -0.057 A 
ATOM     26  C   UNL     1      43.992 -19.282 -33.519  0.00  0.00    -0.061 A 
ATOM     27  C   UNL     1      44.239 -17.964 -33.899  0.00  0.00    -0.062 A 
ATOM     28  C   UNL     1      43.987 -17.557 -35.207  0.00  0.00    -0.061 A 
ATOM     29  C   UNL     1      43.485 -18.469 -36.136  0.00  0.00    -0.057 A 
ENDBRANCH  23  24
ENDBRANCH  21  23
ENDBRANCH  19  21
ENDBRANCH  18  19
ENDBRANCH  17  18
ENDBRANCH  16  17
ENDBRANCH   1  16
TORSDOF 10
ENDMDL
MODEL 15
REMARK VINA RESULT:    -6.292     17.759     20.514
REMARK INTER + INTRA:         -11.015
REMARK INTER:                  -8.117
REMARK INTRA:                  -2.898
REMARK UNBOUND:                -1.045
REMARK  Name = cpd108.pdb
REMARK  11 active torsions:
REMARK  status: ('A' for Active; 'I' for Inactive)
REMARK    1  A    between atoms: C_1  and  N_2
REMARK    2  A    between atoms: N_2  and  C_3
REMARK    3  A    between atoms: N_2  and  C_21
REMARK    4  A    between atoms: C_3  and  C_4
REMARK    5  A    between atoms: C_4  and  C_5
REMARK    6  A    between atoms: C_5  and  C_6
REMARK    7  A    between atoms: C_6  and  C_7
REMARK    8  A    between atoms: C_7  and  N_8
REMARK    9  A    between atoms: N_8  and  C_9
REMARK   10  A    between atoms: C_12  and  C_13
REMARK   11  A    between atoms: C_21  and  C_22
REMARK                            x       y       z     vdW  Elec       q    Type
REMARK                         _______ _______ _______ _____ _____    ______ ____
ROOT
ATOM      1  C   UNL     1      43.918 -18.973 -33.235  0.00  0.00    +0.010 C 
ENDROOT
BRANCH   1   2
ATOM      2  N   UNL     1      45.343 -18.893 -33.552  0.00  0.00    -0.328 N 
ATOM      3  H   UNL     1      46.022 -18.612 -32.897  0.00  0.00    +0.000 HD
BRANCH   2   4
ATOM      4  C   UNL     1      45.661 -19.253 -34.874  0.00  0.00    +0.141 A 
ATOM      5  C   UNL     1      44.722 -19.960 -35.609  0.00  0.00    -0.018 A 
ATOM      6  C   UNL     1      44.991 -20.309 -36.934  0.00  0.00    -0.031 A 
ATOM      7  C   UNL     1      46.201 -19.939 -37.505  0.00  0.00    +0.093 A 
ATOM      8  N   UNL     1      47.091 -19.236 -36.774  0.00  0.00    -0.147 NA
ATOM      9  N   UNL     1      46.816 -18.887 -35.463  0.00  0.00    -0.134 NA
BRANCH   7  10
ATOM     10  C   UNL     1      46.588 -20.255 -38.894  0.00  0.00    +0.002 A 
ATOM     11  C   UNL     1      46.709 -19.261 -39.884  0.00  0.00    -0.053 A 
ATOM     12  C   UNL     1      47.083 -19.578 -41.196  0.00  0.00    -0.061 A 
ATOM     13  C   UNL     1      47.339 -20.899 -41.548  0.00  0.00    -0.062 A 
ATOM     14  C   UNL     1      47.220 -21.904 -40.594  0.00  0.00    -0.061 A 
ATOM     15  C   UNL     1      46.847 -21.583 -39.284  0.00  0.00    -0.053 A 
ENDBRANCH   7  10
ENDBRANCH   2   4
ENDBRANCH   1   2
BRANCH   1  16
ATOM     16  C   UNL     1      43.337 -17.557 -33.188  0.00  0.00    -0.037 C 
BRANCH  16  17
ATOM     17  C   UNL     1      41.910 -17.521 -33.733  0.00  0.00    -0.050 C 
BRANCH  17  18
ATOM     18  C   UNL     1      41.699 -18.299 -35.038  0.00  0.00    -0.040 C 
BRANCH  18  19
ATOM     19  C   UNL     1      40.706 -19.470 -34.960  0.00  0.00    -0.001 C 
BRANCH  19  21
ATOM     20  C   UNL     1      40.686 -21.895 -35.082  0.00  0.00    -0.012 C 
ATOM     21  N   UNL     1      41.074 -20.651 -35.757  0.00  0.00    -0.301 N 
ATOM     22  H   UNL     1      42.089 -20.661 -35.859  0.00  0.00    +0.000 HD
BRANCH  21  23
ATOM     23  C   UNL     1      40.454 -20.570 -37.095  0.00  0.00    +0.024 C 
BRANCH  23  24
ATOM     24  C   UNL     1      41.460 -20.539 -38.228  0.00  0.00    -0.033 A 
ATOM     25  C   UNL     1      41.951 -21.730 -38.783  0.00  0.00    -0.057 A 
ATOM     26  C   UNL     1      42.866 -21.696 -39.836  0.00  0.00    -0.061 A 
ATOM     27  C   UNL     1      43.299 -20.473 -40.347  0.00  0.00    -0.062 A 
ATOM     28  C   UNL     1      42.816 -19.283 -39.808  0.00  0.00    -0.061 A 
ATOM     29  C   UNL     1      41.901 -19.315 -38.756  0.00  0.00    -0.057 A 
ENDBRANCH  23  24
ENDBRANCH  21  23
ENDBRANCH  19  21
ENDBRANCH  18  19
ENDBRANCH  17  18
ENDBRANCH  16  17
ENDBRANCH   1  16
TORSDOF 10
ENDMDL
MODEL 16
REMARK VINA RESULT:    -6.278     32.050     34.364
REMARK INTER + INTRA:         -10.992
REMARK INTER:                  -9.777
REMARK INTRA:                  -1.216
REMARK UNBOUND:                -1.045
REMARK  Name = cpd108.pdb
REMARK  11 active torsions:
REMARK  status: ('A' for Active; 'I' for Inactive)
REMARK    1  A    between atoms: C_1  and  N_2
REMARK    2  A    between atoms: N_2  and  C_3
REMARK    3  A    between atoms: N_2  and  C_21
REMARK    4  A    between atoms: C_3  and  C_4
REMARK    5  A    between atoms: C_4  and  C_5
REMARK    6  A    between atoms: C_5  and  C_6
REMARK    7  A    between atoms: C_6  and  C_7
REMARK    8  A    between atoms: C_7  and  N_8
REMARK    9  A    between atoms: N_8  and  C_9
REMARK   10  A    between atoms: C_12  and  C_13
REMARK   11  A    between atoms: C_21  and  C_22
REMARK                            x       y       z     vdW  Elec       q    Type
REMARK                         _______ _______ _______ _____ _____    ______ ____
ROOT
ATOM      1  C   UNL     1      62.924 -19.170 -10.541  0.00  0.00    +0.010 C 
ENDROOT
BRANCH   1   2
ATOM      2  N   UNL     1      63.220 -19.323  -9.118  0.00  0.00    -0.328 N 
ATOM      3  H   UNL     1      63.437 -18.562  -8.532  0.00  0.00    +0.000 HD
BRANCH   2   4
ATOM      4  C   UNL     1      63.168 -20.651  -8.657  0.00  0.00    +0.141 A 
ATOM      5  C   UNL     1      63.111 -21.672  -9.593  0.00  0.00    -0.018 A 
ATOM      6  C   UNL     1      63.088 -23.003  -9.174  0.00  0.00    -0.031 A 
ATOM      7  C   UNL     1      63.127 -23.292  -7.817  0.00  0.00    +0.093 A 
ATOM      8  N   UNL     1      63.201 -22.280  -6.925  0.00  0.00    -0.147 NA
ATOM      9  N   UNL     1      63.230 -20.963  -7.348  0.00  0.00    -0.134 NA
BRANCH   7  10
ATOM     10  C   UNL     1      63.108 -24.661  -7.263  0.00  0.00    +0.002 A 
ATOM     11  C   UNL     1      64.036 -25.092  -6.296  0.00  0.00    -0.053 A 
ATOM     12  C   UNL     1      64.000 -26.393  -5.779  0.00  0.00    -0.061 A 
ATOM     13  C   UNL     1      63.037 -27.294  -6.221  0.00  0.00    -0.062 A 
ATOM     14  C   UNL     1      62.112 -26.898  -7.181  0.00  0.00    -0.061 A 
ATOM     15  C   UNL     1      62.150 -25.598  -7.696  0.00  0.00    -0.053 A 
ENDBRANCH   7  10
ENDBRANCH   2   4
ENDBRANCH   1   2
BRANCH   1  16
ATOM     16  C   UNL     1      61.571 -18.470 -10.698  0.00  0.00    -0.037 C 
BRANCH  16  17
ATOM     17  C   UNL     1      61.407 -17.339  -9.682  0.00  0.00    -0.050 C 
BRANCH  17  18
ATOM     18  C   UNL     1      59.969 -16.830  -9.513  0.00  0.00    -0.040 C 
BRANCH  18  19
ATOM     19  C   UNL     1      58.947 -17.875  -9.037  0.00  0.00    -0.001 C 
BRANCH  19  21
ATOM     20  C   UNL     1      56.614 -17.236  -9.252  0.00  0.00    -0.012 C 
ATOM     21  N   UNL     1      57.730 -17.972  -9.858  0.00  0.00    -0.301 N 
ATOM     22  H   UNL     1      57.458 -18.953  -9.910  0.00  0.00    +0.000 HD
BRANCH  21  23
ATOM     23  C   UNL     1      58.001 -17.474 -11.222  0.00  0.00    +0.024 C 
BRANCH  23  24
ATOM     24  C   UNL     1      57.701 -18.488 -12.308  0.00  0.00    -0.033 A 
ATOM     25  C   UNL     1      57.345 -19.804 -11.981  0.00  0.00    -0.057 A 
ATOM     26  C   UNL     1      57.056 -20.730 -12.985  0.00  0.00    -0.061 A 
ATOM     27  C   UNL     1      57.118 -20.350 -14.325  0.00  0.00    -0.062 A 
ATOM     28  C   UNL     1      57.466 -19.045 -14.664  0.00  0.00    -0.061 A 
ATOM     29  C   UNL     1      57.754 -18.118 -13.662  0.00  0.00    -0.057 A 
ENDBRANCH  23  24
ENDBRANCH  21  23
ENDBRANCH  19  21
ENDBRANCH  18  19
ENDBRANCH  17  18
ENDBRANCH  16  17
ENDBRANCH   1  16
TORSDOF 10
ENDMDL
MODEL 17
REMARK VINA RESULT:    -6.263     18.449     20.248
REMARK INTER + INTRA:         -10.969
REMARK INTER:                  -9.038
REMARK INTRA:                  -1.930
REMARK UNBOUND:                -1.045
REMARK  Name = cpd108.pdb
REMARK  11 active torsions:
REMARK  status: ('A' for Active; 'I' for Inactive)
REMARK    1  A    between atoms: C_1  and  N_2
REMARK    2  A    between atoms: N_2  and  C_3
REMARK    3  A    between atoms: N_2  and  C_21
REMARK    4  A    between atoms: C_3  and  C_4
REMARK    5  A    between atoms: C_4  and  C_5
REMARK    6  A    between atoms: C_5  and  C_6
REMARK    7  A    between atoms: C_6  and  C_7
REMARK    8  A    between atoms: C_7  and  N_8
REMARK    9  A    between atoms: N_8  and  C_9
REMARK   10  A    between atoms: C_12  and  C_13
REMARK   11  A    between atoms: C_21  and  C_22
REMARK                            x       y       z     vdW  Elec       q    Type
REMARK                         _______ _______ _______ _____ _____    ______ ____
ROOT
ATOM      1  C   UNL     1      45.177 -17.585 -35.376  0.00  0.00    +0.010 C 
ENDROOT
BRANCH   1   2
ATOM      2  N   UNL     1      46.495 -17.745 -35.985  0.00  0.00    -0.328 N 
ATOM      3  H   UNL     1      47.291 -17.256 -35.674  0.00  0.00    +0.000 HD
BRANCH   2   4
ATOM      4  C   UNL     1      46.531 -18.659 -37.055  0.00  0.00    +0.141 A 
ATOM      5  C   UNL     1      46.294 -19.997 -36.785  0.00  0.00    -0.018 A 
ATOM      6  C   UNL     1      46.292 -20.929 -37.825  0.00  0.00    -0.031 A 
ATOM      7  C   UNL     1      46.526 -20.502 -39.125  0.00  0.00    +0.093 A 
ATOM      8  N   UNL     1      46.737 -19.190 -39.363  0.00  0.00    -0.147 NA
ATOM      9  N   UNL     1      46.731 -18.270 -38.329  0.00  0.00    -0.134 NA
BRANCH   7  10
ATOM     10  C   UNL     1      46.546 -21.399 -40.298  0.00  0.00    +0.002 A 
ATOM     11  C   UNL     1      45.632 -21.267 -41.360  0.00  0.00    -0.053 A 
ATOM     12  C   UNL     1      45.670 -22.123 -42.466  0.00  0.00    -0.061 A 
ATOM     13  C   UNL     1      46.621 -23.136 -42.533  0.00  0.00    -0.062 A 
ATOM     14  C   UNL     1      47.532 -23.296 -41.494  0.00  0.00    -0.061 A 
ATOM     15  C   UNL     1      47.492 -22.438 -40.391  0.00  0.00    -0.053 A 
ENDBRANCH   7  10
ENDBRANCH   2   4
ENDBRANCH   1   2
BRANCH   1  16
ATOM     16  C   UNL     1      45.243 -18.038 -33.915  0.00  0.00    -0.037 C 
BRANCH  16  17
ATOM     17  C   UNL     1      43.954 -18.740 -33.489  0.00  0.00    -0.050 C 
BRANCH  17  18
ATOM     18  C   UNL     1      43.530 -19.910 -34.387  0.00  0.00    -0.040 C 
BRANCH  18  19
ATOM     19  C   UNL     1      42.281 -20.680 -33.928  0.00  0.00    -0.001 C 
BRANCH  19  21
ATOM     20  C   UNL     1      40.080 -19.656 -33.982  0.00  0.00    -0.012 C 
ATOM     21  N   UNL     1      41.072 -20.436 -34.730  0.00  0.00    -0.301 N 
ATOM     22  H   UNL     1      40.649 -21.337 -34.951  0.00  0.00    +0.000 HD
BRANCH  21  23
ATOM     23  C   UNL     1      41.431 -19.749 -35.988  0.00  0.00    +0.024 C 
BRANCH  23  24
ATOM     24  C   UNL     1      41.451 -20.666 -37.194  0.00  0.00    -0.033 A 
ATOM     25  C   UNL     1      40.331 -21.445 -37.521  0.00  0.00    -0.057 A 
ATOM     26  C   UNL     1      40.350 -22.277 -38.642  0.00  0.00    -0.061 A 
ATOM     27  C   UNL     1      41.485 -22.338 -39.449  0.00  0.00    -0.062 A 
ATOM     28  C   UNL     1      42.603 -21.567 -39.138  0.00  0.00    -0.061 A 
ATOM     29  C   UNL     1      42.586 -20.734 -38.018  0.00  0.00    -0.057 A 
ENDBRANCH  23  24
ENDBRANCH  21  23
ENDBRANCH  19  21
ENDBRANCH  18  19
ENDBRANCH  17  18
ENDBRANCH  16  17
ENDBRANCH   1  16
TORSDOF 10
ENDMDL
MODEL 18
REMARK VINA RESULT:    -6.149      3.374      6.527
REMARK INTER + INTRA:         -10.788
REMARK INTER:                  -8.579
REMARK INTRA:                  -2.209
REMARK UNBOUND:                -1.045
REMARK  Name = cpd108.pdb
REMARK  11 active torsions:
REMARK  status: ('A' for Active; 'I' for Inactive)
REMARK    1  A    between atoms: C_1  and  N_2
REMARK    2  A    between atoms: N_2  and  C_3
REMARK    3  A    between atoms: N_2  and  C_21
REMARK    4  A    between atoms: C_3  and  C_4
REMARK    5  A    between atoms: C_4  and  C_5
REMARK    6  A    between atoms: C_5  and  C_6
REMARK    7  A    between atoms: C_6  and  C_7
REMARK    8  A    between atoms: C_7  and  N_8
REMARK    9  A    between atoms: N_8  and  C_9
REMARK   10  A    between atoms: C_12  and  C_13
REMARK   11  A    between atoms: C_21  and  C_22
REMARK                            x       y       z     vdW  Elec       q    Type
REMARK                         _______ _______ _______ _____ _____    ______ ____
ROOT
ATOM      1  C   UNL     1      33.935 -37.977 -26.565  0.00  0.00    +0.010 C 
ENDROOT
BRANCH   1   2
ATOM      2  N   UNL     1      33.739 -37.493 -27.930  0.00  0.00    -0.328 N 
ATOM      3  H   UNL     1      32.850 -37.300 -28.307  0.00  0.00    +0.000 HD
BRANCH   2   4
ATOM      4  C   UNL     1      34.931 -37.324 -28.659  0.00  0.00    +0.141 A 
ATOM      5  C   UNL     1      34.845 -37.169 -30.034  0.00  0.00    -0.018 A 
ATOM      6  C   UNL     1      36.004 -36.971 -30.787  0.00  0.00    -0.031 A 
ATOM      7  C   UNL     1      37.235 -36.926 -30.148  0.00  0.00    +0.093 A 
ATOM      8  N   UNL     1      37.289 -37.063 -28.805  0.00  0.00    -0.147 NA
ATOM      9  N   UNL     1      36.136 -37.252 -28.063  0.00  0.00    -0.134 NA
BRANCH   7  10
ATOM     10  C   UNL     1      38.520 -36.722 -30.844  0.00  0.00    +0.002 A 
ATOM     11  C   UNL     1      38.607 -36.051 -32.078  0.00  0.00    -0.053 A 
ATOM     12  C   UNL     1      39.836 -35.862 -32.722  0.00  0.00    -0.061 A 
ATOM     13  C   UNL     1      41.007 -36.345 -32.147  0.00  0.00    -0.062 A 
ATOM     14  C   UNL     1      40.951 -37.019 -30.932  0.00  0.00    -0.061 A 
ATOM     15  C   UNL     1      39.722 -37.206 -30.291  0.00  0.00    -0.053 A 
ENDBRANCH   7  10
ENDBRANCH   2   4
ENDBRANCH   1   2
BRANCH   1  16
ATOM     16  C   UNL     1      32.728 -38.828 -26.159  0.00  0.00    -0.037 C 
BRANCH  16  17
ATOM     17  C   UNL     1      33.163 -40.135 -25.497  0.00  0.00    -0.050 C 
BRANCH  17  18
ATOM     18  C   UNL     1      32.317 -41.359 -25.868  0.00  0.00    -0.040 C 
BRANCH  18  19
ATOM     19  C   UNL     1      33.099 -42.569 -26.404  0.00  0.00    -0.001 C 
BRANCH  19  21
ATOM     20  C   UNL     1      31.633 -43.706 -27.971  0.00  0.00    -0.012 C 
ATOM     21  N   UNL     1      32.847 -42.896 -27.816  0.00  0.00    -0.301 N 
ATOM     22  H   UNL     1      33.631 -43.451 -28.159  0.00  0.00    +0.000 HD
BRANCH  21  23
ATOM     23  C   UNL     1      32.749 -41.655 -28.612  0.00  0.00    +0.024 C 
BRANCH  23  24
ATOM     24  C   UNL     1      34.037 -41.286 -29.319  0.00  0.00    -0.033 A 
ATOM     25  C   UNL     1      34.072 -41.135 -30.713  0.00  0.00    -0.057 A 
ATOM     26  C   UNL     1      35.258 -40.779 -31.357  0.00  0.00    -0.061 A 
ATOM     27  C   UNL     1      36.420 -40.569 -30.617  0.00  0.00    -0.062 A 
ATOM     28  C   UNL     1      36.399 -40.711 -29.231  0.00  0.00    -0.061 A 
ATOM     29  C   UNL     1      35.214 -41.066 -28.585  0.00  0.00    -0.057 A 
ENDBRANCH  23  24
ENDBRANCH  21  23
ENDBRANCH  19  21
ENDBRANCH  18  19
ENDBRANCH  17  18
ENDBRANCH  16  17
ENDBRANCH   1  16
TORSDOF 10
ENDMDL
MODEL 19
REMARK VINA RESULT:    -6.089     17.468     20.325
REMARK INTER + INTRA:         -10.693
REMARK INTER:                  -7.365
REMARK INTRA:                  -3.328
REMARK UNBOUND:                -1.045
REMARK  Name = cpd108.pdb
REMARK  11 active torsions:
REMARK  status: ('A' for Active; 'I' for Inactive)
REMARK    1  A    between atoms: C_1  and  N_2
REMARK    2  A    between atoms: N_2  and  C_3
REMARK    3  A    between atoms: N_2  and  C_21
REMARK    4  A    between atoms: C_3  and  C_4
REMARK    5  A    between atoms: C_4  and  C_5
REMARK    6  A    between atoms: C_5  and  C_6
REMARK    7  A    between atoms: C_6  and  C_7
REMARK    8  A    between atoms: C_7  and  N_8
REMARK    9  A    between atoms: N_8  and  C_9
REMARK   10  A    between atoms: C_12  and  C_13
REMARK   11  A    between atoms: C_21  and  C_22
REMARK                            x       y       z     vdW  Elec       q    Type
REMARK                         _______ _______ _______ _____ _____    ______ ____
ROOT
ATOM      1  C   UNL     1      46.139 -18.095 -34.485  0.00  0.00    +0.010 C 
ENDROOT
BRANCH   1   2
ATOM      2  N   UNL     1      45.464 -17.910 -33.202  0.00  0.00    -0.328 N 
ATOM      3  H   UNL     1      45.883 -17.450 -32.439  0.00  0.00    +0.000 HD
BRANCH   2   4
ATOM      4  C   UNL     1      44.164 -18.445 -33.151  0.00  0.00    +0.141 A 
ATOM      5  C   UNL     1      43.935 -19.677 -33.743  0.00  0.00    -0.018 A 
ATOM      6  C   UNL     1      42.664 -20.253 -33.688  0.00  0.00    -0.031 A 
ATOM      7  C   UNL     1      41.640 -19.585 -33.032  0.00  0.00    +0.093 A 
ATOM      8  N   UNL     1      41.893 -18.394 -32.448  0.00  0.00    -0.147 NA
ATOM      9  N   UNL     1      43.157 -17.831 -32.501  0.00  0.00    -0.134 NA
BRANCH   7  10
ATOM     10  C   UNL     1      40.261 -20.100 -32.912  0.00  0.00    +0.002 A 
ATOM     11  C   UNL     1      39.979 -21.476 -32.827  0.00  0.00    -0.053 A 
ATOM     12  C   UNL     1      38.666 -21.946 -32.708  0.00  0.00    -0.061 A 
ATOM     13  C   UNL     1      37.603 -21.049 -32.678  0.00  0.00    -0.062 A 
ATOM     14  C   UNL     1      37.851 -19.684 -32.768  0.00  0.00    -0.061 A 
ATOM     15  C   UNL     1      39.164 -19.217 -32.886  0.00  0.00    -0.053 A 
ENDBRANCH   7  10
ENDBRANCH   2   4
ENDBRANCH   1   2
BRANCH   1  16
ATOM     16  C   UNL     1      45.561 -17.107 -35.501  0.00  0.00    -0.037 C 
BRANCH  16  17
ATOM     17  C   UNL     1      44.785 -17.828 -36.603  0.00  0.00    -0.050 C 
BRANCH  17  18
ATOM     18  C   UNL     1      43.743 -16.965 -37.327  0.00  0.00    -0.040 C 
BRANCH  18  19
ATOM     19  C   UNL     1      42.642 -16.368 -36.437  0.00  0.00    -0.001 C 
BRANCH  19  21
ATOM     20  C   UNL     1      40.617 -16.678 -35.132  0.00  0.00    -0.012 C 
ATOM     21  N   UNL     1      41.626 -17.327 -35.978  0.00  0.00    -0.301 N 
ATOM     22  H   UNL     1      42.091 -18.036 -35.411  0.00  0.00    +0.000 HD
BRANCH  21  23
ATOM     23  C   UNL     1      40.988 -17.981 -37.139  0.00  0.00    +0.024 C 
BRANCH  23  24
ATOM     24  C   UNL     1      40.727 -19.459 -36.935  0.00  0.00    -0.033 A 
ATOM     25  C   UNL     1      41.762 -20.395 -37.069  0.00  0.00    -0.057 A 
ATOM     26  C   UNL     1      41.519 -21.754 -36.865  0.00  0.00    -0.061 A 
ATOM     27  C   UNL     1      40.240 -22.193 -36.523  0.00  0.00    -0.062 A 
ATOM     28  C   UNL     1      39.203 -21.273 -36.383  0.00  0.00    -0.061 A 
ATOM     29  C   UNL     1      39.445 -19.914 -36.585  0.00  0.00    -0.057 A 
ENDBRANCH  23  24
ENDBRANCH  21  23
ENDBRANCH  19  21
ENDBRANCH  18  19
ENDBRANCH  17  18
ENDBRANCH  16  17
ENDBRANCH   1  16
TORSDOF 10
ENDMDL
MODEL 20
REMARK VINA RESULT:    -6.057     20.479     21.737
REMARK INTER + INTRA:         -10.643
REMARK INTER:                  -8.354
REMARK INTRA:                  -2.288
REMARK UNBOUND:                -1.045
REMARK  Name = cpd108.pdb
REMARK  11 active torsions:
REMARK  status: ('A' for Active; 'I' for Inactive)
REMARK    1  A    between atoms: C_1  and  N_2
REMARK    2  A    between atoms: N_2  and  C_3
REMARK    3  A    between atoms: N_2  and  C_21
REMARK    4  A    between atoms: C_3  and  C_4
REMARK    5  A    between atoms: C_4  and  C_5
REMARK    6  A    between atoms: C_5  and  C_6
REMARK    7  A    between atoms: C_6  and  C_7
REMARK    8  A    between atoms: C_7  and  N_8
REMARK    9  A    between atoms: N_8  and  C_9
REMARK   10  A    between atoms: C_12  and  C_13
REMARK   11  A    between atoms: C_21  and  C_22
REMARK                            x       y       z     vdW  Elec       q    Type
REMARK                         _______ _______ _______ _____ _____    ______ ____
ROOT
ATOM      1  C   UNL     1      43.538 -16.478 -37.552  0.00  0.00    +0.010 C 
ENDROOT
BRANCH   1   2
ATOM      2  N   UNL     1      43.157 -16.900 -38.898  0.00  0.00    -0.328 N 
ATOM      3  H   UNL     1      42.463 -16.442 -39.426  0.00  0.00    +0.000 HD
BRANCH   2   4
ATOM      4  C   UNL     1      43.867 -18.017 -39.376  0.00  0.00    +0.141 A 
ATOM      5  C   UNL     1      43.251 -19.257 -39.330  0.00  0.00    -0.018 A 
ATOM      6  C   UNL     1      43.913 -20.384 -39.822  0.00  0.00    -0.031 A 
ATOM      7  C   UNL     1      45.186 -20.248 -40.358  0.00  0.00    +0.093 A 
ATOM      8  N   UNL     1      45.757 -19.025 -40.407  0.00  0.00    -0.147 NA
ATOM      9  N   UNL     1      45.093 -17.911 -39.924  0.00  0.00    -0.134 NA
BRANCH   7  10
ATOM     10  C   UNL     1      45.976 -21.368 -40.906  0.00  0.00    +0.002 A 
ATOM     11  C   UNL     1      45.637 -22.006 -42.114  0.00  0.00    -0.053 A 
ATOM     12  C   UNL     1      46.401 -23.064 -42.621  0.00  0.00    -0.061 A 
ATOM     13  C   UNL     1      47.520 -23.513 -41.926  0.00  0.00    -0.062 A 
ATOM     14  C   UNL     1      47.874 -22.908 -40.725  0.00  0.00    -0.061 A 
ATOM     15  C   UNL     1      47.109 -21.851 -40.222  0.00  0.00    -0.053 A 
ENDBRANCH   7  10
ENDBRANCH   2   4
ENDBRANCH   1   2
BRANCH   1  16
ATOM     16  C   UNL     1      42.583 -17.115 -36.539  0.00  0.00    -0.037 C 
BRANCH  16  17
ATOM     17  C   UNL     1      42.512 -16.300 -35.248  0.00  0.00    -0.050 C 
BRANCH  17  18
ATOM     18  C   UNL     1      42.118 -17.102 -34.001  0.00  0.00    -0.040 C 
BRANCH  18  19
ATOM     19  C   UNL     1      43.034 -16.921 -32.780  0.00  0.00    -0.001 C 
BRANCH  19  21
ATOM     20  C   UNL     1      45.233 -17.142 -31.772  0.00  0.00    -0.012 C 
ATOM     21  N   UNL     1      44.443 -17.285 -33.001  0.00  0.00    -0.301 N 
ATOM     22  H   UNL     1      44.832 -16.644 -33.692  0.00  0.00    +0.000 HD
BRANCH  21  23
ATOM     23  C   UNL     1      44.532 -18.665 -33.519  0.00  0.00    +0.024 C 
BRANCH  23  24
ATOM     24  C   UNL     1      45.388 -18.791 -34.763  0.00  0.00    -0.033 A 
ATOM     25  C   UNL     1      45.299 -19.927 -35.581  0.00  0.00    -0.057 A 
ATOM     26  C   UNL     1      46.080 -20.031 -36.734  0.00  0.00    -0.061 A 
ATOM     27  C   UNL     1      46.954 -19.003 -37.082  0.00  0.00    -0.062 A 
ATOM     28  C   UNL     1      47.049 -17.868 -36.280  0.00  0.00    -0.061 A 
ATOM     29  C   UNL     1      46.269 -17.761 -35.128  0.00  0.00    -0.057 A 
ENDBRANCH  23  24
ENDBRANCH  21  23
ENDBRANCH  19  21
ENDBRANCH  18  19
ENDBRANCH  17  18
ENDBRANCH  16  17
ENDBRANCH   1  16
TORSDOF 10
ENDMDL
