MODEL 1
REMARK VINA RESULT:    -9.167      0.000      0.000
REMARK INTER + INTRA:         -11.672
REMARK INTER:                 -11.311
REMARK INTRA:                  -0.361
REMARK UNBOUND:                -0.361
REMARK  Name = cpd361.pdb
REMARK  4 active torsions:
REMARK  status: ('A' for Active; 'I' for Inactive)
REMARK    1  A    between atoms: C_5  and  C_6
REMARK    2  A    between atoms: C_6  and  N_7
REMARK    3  A    between atoms: C_10  and  C_11
REMARK    4  A    between atoms: C_11  and  N_12
REMARK                            x       y       z     vdW  Elec       q    Type
REMARK                         _______ _______ _______ _____ _____    ______ ____
ROOT
ATOM      1  N   UNL A   1      39.607 -35.830 -31.903  0.00  0.00    -0.349 N 
ATOM      2  C   UNL A   1      39.406 -36.739 -30.922  0.00  0.00    +0.005 A 
ATOM      3  C   UNL A   1      38.213 -36.761 -30.206  0.00  0.00    -0.041 A 
ATOM      4  C   UNL A   1      37.208 -35.835 -30.491  0.00  0.00    -0.025 A 
ATOM      5  C   UNL A   1      37.430 -34.931 -31.534  0.00  0.00    -0.041 A 
ATOM      6  C   UNL A   1      38.642 -34.937 -32.218  0.00  0.00    +0.005 A 
ENDROOT
BRANCH   1   7
ATOM      7  C   UNL A   1      40.893 -35.811 -32.643  0.00  0.00    +0.048 C 
BRANCH   7  12
ATOM      8  F   UNL A   1      44.921 -38.587 -29.830  0.00  0.00    -0.205 F 
ATOM      9  C   UNL A   1      43.963 -37.928 -30.491  0.00  0.00    +0.123 A 
ATOM     10  C   UNL A   1      44.066 -36.552 -30.656  0.00  0.00    -0.026 A 
ATOM     11  C   UNL A   1      43.067 -35.861 -31.345  0.00  0.00    -0.054 A 
ATOM     12  C   UNL A   1      41.960 -36.549 -31.874  0.00  0.00    -0.028 A 
ATOM     13  C   UNL A   1      41.876 -37.941 -31.694  0.00  0.00    -0.054 A 
ATOM     14  C   UNL A   1      42.878 -38.626 -31.003  0.00  0.00    -0.026 A 
ENDBRANCH   7  12
ENDBRANCH   1   7
BRANCH   4  15
ATOM     15  C   UNL A   1      35.913 -35.865 -29.699  0.00  0.00    +0.049 C 
BRANCH  15  16
ATOM     16  N   UNL A   1      34.748 -35.502 -30.501  0.00  0.00    -0.339 N 
ATOM     17  C   UNL A   1      34.035 -36.353 -31.310  0.00  0.00    +0.023 A 
ATOM     18  C   UNL A   1      33.020 -35.629 -31.905  0.00  0.00    -0.019 A 
ATOM     19  C   UNL A   1      33.126 -34.284 -31.456  0.00  0.00    +0.003 A 
ATOM     20  C   UNL A   1      32.394 -33.109 -31.720  0.00  0.00    -0.052 A 
ATOM     21  C   UNL A   1      32.755 -31.914 -31.088  0.00  0.00    -0.061 A 
ATOM     22  C   UNL A   1      33.827 -31.880 -30.202  0.00  0.00    -0.060 A 
ATOM     23  C   UNL A   1      34.568 -33.032 -29.924  0.00  0.00    -0.038 A 
ATOM     24  C   UNL A   1      34.203 -34.228 -30.567  0.00  0.00    +0.050 A 
ATOM     25  C   UNL A   1      32.037 -36.238 -32.850  0.00  0.00    -0.025 C 
ATOM     26  C   UNL A   1      32.037 -37.772 -32.738  0.00  0.00    -0.049 C 
ATOM     27  C   UNL A   1      33.465 -38.343 -32.693  0.00  0.00    -0.047 C 
ATOM     28  C   UNL A   1      34.264 -37.819 -31.487  0.00  0.00    -0.012 C 
ENDBRANCH  15  16
ENDBRANCH   4  15
TORSDOF 4
ENDMDL
MODEL 2
REMARK VINA RESULT:    -8.412      5.129      8.400
REMARK INTER + INTRA:         -10.740
REMARK INTER:                  -9.644
REMARK INTRA:                  -1.095
REMARK UNBOUND:                -0.361
REMARK  Name = cpd361.pdb
REMARK  4 active torsions:
REMARK  status: ('A' for Active; 'I' for Inactive)
REMARK    1  A    between atoms: C_5  and  C_6
REMARK    2  A    between atoms: C_6  and  N_7
REMARK    3  A    between atoms: C_10  and  C_11
REMARK    4  A    between atoms: C_11  and  N_12
REMARK                            x       y       z     vdW  Elec       q    Type
REMARK                         _______ _______ _______ _____ _____    ______ ____
ROOT
ATOM      1  N   UNL A   1      34.193 -40.964 -29.160  0.00  0.00    -0.349 N 
ATOM      2  C   UNL A   1      35.379 -40.890 -29.805  0.00  0.00    +0.005 A 
ATOM      3  C   UNL A   1      36.343 -39.964 -29.416  0.00  0.00    -0.041 A 
ATOM      4  C   UNL A   1      36.091 -39.094 -28.354  0.00  0.00    -0.025 A 
ATOM      5  C   UNL A   1      34.870 -39.219 -27.684  0.00  0.00    -0.041 A 
ATOM      6  C   UNL A   1      33.930 -40.151 -28.112  0.00  0.00    +0.005 A 
ENDROOT
BRANCH   1   7
ATOM      7  C   UNL A   1      33.170 -41.945 -29.601  0.00  0.00    +0.048 C 
BRANCH   7  12
ATOM      8  F   UNL A   1      32.437 -45.886 -25.629  0.00  0.00    -0.205 F 
ATOM      9  C   UNL A   1      32.610 -44.956 -26.575  0.00  0.00    +0.123 A 
ATOM     10  C   UNL A   1      31.550 -44.126 -26.922  0.00  0.00    -0.026 A 
ATOM     11  C   UNL A   1      31.726 -43.155 -27.909  0.00  0.00    -0.054 A 
ATOM     12  C   UNL A   1      32.968 -43.011 -28.553  0.00  0.00    -0.028 A 
ATOM     13  C   UNL A   1      34.026 -43.863 -28.188  0.00  0.00    -0.054 A 
ATOM     14  C   UNL A   1      33.843 -44.833 -27.201  0.00  0.00    -0.026 A 
ENDBRANCH   7  12
ENDBRANCH   1   7
BRANCH   4  15
ATOM     15  C   UNL A   1      37.148 -38.084 -27.943  0.00  0.00    +0.049 C 
BRANCH  15  16
ATOM     16  N   UNL A   1      37.543 -37.199 -29.036  0.00  0.00    -0.339 N 
ATOM     17  C   UNL A   1      38.757 -37.209 -29.677  0.00  0.00    +0.023 A 
ATOM     18  C   UNL A   1      38.743 -36.217 -30.638  0.00  0.00    -0.019 A 
ATOM     19  C   UNL A   1      37.480 -35.568 -30.572  0.00  0.00    +0.003 A 
ATOM     20  C   UNL A   1      36.897 -34.499 -31.280  0.00  0.00    -0.052 A 
ATOM     21  C   UNL A   1      35.591 -34.099 -30.976  0.00  0.00    -0.061 A 
ATOM     22  C   UNL A   1      34.866 -34.750 -29.984  0.00  0.00    -0.060 A 
ATOM     23  C   UNL A   1      35.423 -35.814 -29.267  0.00  0.00    -0.038 A 
ATOM     24  C   UNL A   1      36.737 -36.207 -29.574  0.00  0.00    +0.050 A 
ATOM     25  C   UNL A   1      39.904 -35.942 -31.537  0.00  0.00    -0.025 C 
ATOM     26  C   UNL A   1      40.890 -37.123 -31.544  0.00  0.00    -0.049 C 
ATOM     27  C   UNL A   1      41.167 -37.647 -30.125  0.00  0.00    -0.047 C 
ATOM     28  C   UNL A   1      39.889 -38.153 -29.432  0.00  0.00    -0.012 C 
ENDBRANCH  15  16
ENDBRANCH   4  15
TORSDOF 4
ENDMDL
MODEL 3
REMARK VINA RESULT:    -8.183     17.046     19.929
REMARK INTER + INTRA:         -10.457
REMARK INTER:                  -9.343
REMARK INTRA:                  -1.114
REMARK UNBOUND:                -0.361
REMARK  Name = cpd361.pdb
REMARK  4 active torsions:
REMARK  status: ('A' for Active; 'I' for Inactive)
REMARK    1  A    between atoms: C_5  and  C_6
REMARK    2  A    between atoms: C_6  and  N_7
REMARK    3  A    between atoms: C_10  and  C_11
REMARK    4  A    between atoms: C_11  and  N_12
REMARK                            x       y       z     vdW  Elec       q    Type
REMARK                         _______ _______ _______ _____ _____    ______ ____
ROOT
ATOM      1  N   UNL A   1      42.727 -19.698 -34.504  0.00  0.00    -0.349 N 
ATOM      2  C   UNL A   1      43.842 -19.537 -33.756  0.00  0.00    +0.005 A 
ATOM      3  C   UNL A   1      45.106 -19.675 -34.324  0.00  0.00    -0.041 A 
ATOM      4  C   UNL A   1      45.235 -19.988 -35.679  0.00  0.00    -0.025 A 
ATOM      5  C   UNL A   1      44.065 -20.113 -36.433  0.00  0.00    -0.041 A 
ATOM      6  C   UNL A   1      42.822 -19.978 -35.824  0.00  0.00    +0.005 A 
ENDROOT
BRANCH   1   7
ATOM      7  C   UNL A   1      41.389 -19.567 -33.877  0.00  0.00    +0.048 C 
BRANCH   7  12
ATOM      8  F   UNL A   1      38.661 -24.506 -33.803  0.00  0.00    -0.205 F 
ATOM      9  C   UNL A   1      39.312 -23.338 -33.825  0.00  0.00    +0.123 A 
ATOM     10  C   UNL A   1      38.864 -22.320 -34.658  0.00  0.00    -0.026 A 
ATOM     11  C   UNL A   1      39.542 -21.099 -34.684  0.00  0.00    -0.054 A 
ATOM     12  C   UNL A   1      40.671 -20.893 -33.872  0.00  0.00    -0.028 A 
ATOM     13  C   UNL A   1      41.107 -21.938 -33.038  0.00  0.00    -0.054 A 
ATOM     14  C   UNL A   1      40.426 -23.157 -33.018  0.00  0.00    -0.026 A 
ENDBRANCH   7  12
ENDBRANCH   1   7
BRANCH   4  15
ATOM     15  C   UNL A   1      46.619 -20.141 -36.285  0.00  0.00    +0.049 C 
BRANCH  15  16
ATOM     16  N   UNL A   1      46.745 -19.484 -37.584  0.00  0.00    -0.339 N 
ATOM     17  C   UNL A   1      46.896 -18.135 -37.788  0.00  0.00    +0.023 A 
ATOM     18  C   UNL A   1      46.966 -17.912 -39.149  0.00  0.00    -0.019 A 
ATOM     19  C   UNL A   1      46.838 -19.169 -39.801  0.00  0.00    +0.003 A 
ATOM     20  C   UNL A   1      46.825 -19.569 -41.152  0.00  0.00    -0.052 A 
ATOM     21  C   UNL A   1      46.694 -20.925 -41.470  0.00  0.00    -0.061 A 
ATOM     22  C   UNL A   1      46.580 -21.879 -40.464  0.00  0.00    -0.060 A 
ATOM     23  C   UNL A   1      46.590 -21.507 -39.117  0.00  0.00    -0.038 A 
ATOM     24  C   UNL A   1      46.716 -20.142 -38.804  0.00  0.00    +0.050 A 
ATOM     25  C   UNL A   1      47.137 -16.552 -39.741  0.00  0.00    -0.025 C 
ATOM     26  C   UNL A   1      47.633 -15.548 -38.686  0.00  0.00    -0.049 C 
ATOM     27  C   UNL A   1      46.864 -15.682 -37.361  0.00  0.00    -0.047 C 
ATOM     28  C   UNL A   1      47.020 -17.080 -36.737  0.00  0.00    -0.012 C 
ENDBRANCH  15  16
ENDBRANCH   4  15
TORSDOF 4
ENDMDL
MODEL 4
REMARK VINA RESULT:    -8.124     15.515     17.354
REMARK INTER + INTRA:         -10.385
REMARK INTER:                  -9.382
REMARK INTRA:                  -1.003
REMARK UNBOUND:                -0.361
REMARK  Name = cpd361.pdb
REMARK  4 active torsions:
REMARK  status: ('A' for Active; 'I' for Inactive)
REMARK    1  A    between atoms: C_5  and  C_6
REMARK    2  A    between atoms: C_6  and  N_7
REMARK    3  A    between atoms: C_10  and  C_11
REMARK    4  A    between atoms: C_11  and  N_12
REMARK                            x       y       z     vdW  Elec       q    Type
REMARK                         _______ _______ _______ _____ _____    ______ ____
ROOT
ATOM      1  N   UNL A   1      43.768 -20.723 -39.825  0.00  0.00    -0.349 N 
ATOM      2  C   UNL A   1      42.729 -21.201 -40.547  0.00  0.00    +0.005 A 
ATOM      3  C   UNL A   1      41.607 -21.728 -39.914  0.00  0.00    -0.041 A 
ATOM      4  C   UNL A   1      41.544 -21.773 -38.520  0.00  0.00    -0.025 A 
ATOM      5  C   UNL A   1      42.618 -21.238 -37.802  0.00  0.00    -0.041 A 
ATOM      6  C   UNL A   1      43.725 -20.731 -38.473  0.00  0.00    +0.005 A 
ENDROOT
BRANCH   1   7
ATOM      7  C   UNL A   1      44.965 -20.183 -40.517  0.00  0.00    +0.048 C 
BRANCH   7  12
ATOM      8  F   UNL A   1      48.181 -24.426 -42.387  0.00  0.00    -0.205 F 
ATOM      9  C   UNL A   1      47.423 -23.416 -41.946  0.00  0.00    +0.123 A 
ATOM     10  C   UNL A   1      46.431 -22.894 -42.767  0.00  0.00    -0.026 A 
ATOM     11  C   UNL A   1      45.638 -21.839 -42.309  0.00  0.00    -0.054 A 
ATOM     12  C   UNL A   1      45.837 -21.304 -41.024  0.00  0.00    -0.028 A 
ATOM     13  C   UNL A   1      46.848 -21.846 -40.211  0.00  0.00    -0.054 A 
ATOM     14  C   UNL A   1      47.638 -22.900 -40.675  0.00  0.00    -0.026 A 
ENDBRANCH   7  12
ENDBRANCH   1   7
BRANCH   4  15
ATOM     15  C   UNL A   1      40.316 -22.355 -37.842  0.00  0.00    +0.049 C 
BRANCH  15  16
ATOM     16  N   UNL A   1      39.796 -21.499 -36.779  0.00  0.00    -0.339 N 
ATOM     17  C   UNL A   1      39.116 -20.319 -36.961  0.00  0.00    +0.023 A 
ATOM     18  C   UNL A   1      38.805 -19.807 -35.716  0.00  0.00    -0.019 A 
ATOM     19  C   UNL A   1      39.327 -20.698 -34.739  0.00  0.00    +0.003 A 
ATOM     20  C   UNL A   1      39.333 -20.703 -33.330  0.00  0.00    -0.052 A 
ATOM     21  C   UNL A   1      39.935 -21.764 -32.645  0.00  0.00    -0.061 A 
ATOM     22  C   UNL A   1      40.524 -22.812 -33.344  0.00  0.00    -0.060 A 
ATOM     23  C   UNL A   1      40.531 -22.830 -34.741  0.00  0.00    -0.038 A 
ATOM     24  C   UNL A   1      39.930 -21.758 -35.423  0.00  0.00    +0.050 A 
ATOM     25  C   UNL A   1      38.057 -18.528 -35.529  0.00  0.00    -0.025 C 
ATOM     26  C   UNL A   1      37.342 -18.111 -36.825  0.00  0.00    -0.049 C 
ATOM     27  C   UNL A   1      38.254 -18.255 -38.055  0.00  0.00    -0.047 C 
ATOM     28  C   UNL A   1      38.721 -19.707 -38.266  0.00  0.00    -0.012 C 
ENDBRANCH  15  16
ENDBRANCH   4  15
TORSDOF 4
ENDMDL
MODEL 5
REMARK VINA RESULT:    -8.088     23.875     26.964
REMARK INTER + INTRA:         -10.340
REMARK INTER:                  -9.172
REMARK INTRA:                  -1.168
REMARK UNBOUND:                -0.361
REMARK  Name = cpd361.pdb
REMARK  4 active torsions:
REMARK  status: ('A' for Active; 'I' for Inactive)
REMARK    1  A    between atoms: C_5  and  C_6
REMARK    2  A    between atoms: C_6  and  N_7
REMARK    3  A    between atoms: C_10  and  C_11
REMARK    4  A    between atoms: C_11  and  N_12
REMARK                            x       y       z     vdW  Elec       q    Type
REMARK                         _______ _______ _______ _____ _____    ______ ____
ROOT
ATOM      1  N   UNL A   1      54.840 -32.646 -53.686  0.00  0.00    -0.349 N 
ATOM      2  C   UNL A   1      54.576 -33.968 -53.800  0.00  0.00    +0.005 A 
ATOM      3  C   UNL A   1      55.141 -34.885 -52.918  0.00  0.00    -0.041 A 
ATOM      4  C   UNL A   1      55.995 -34.446 -51.904  0.00  0.00    -0.025 A 
ATOM      5  C   UNL A   1      56.219 -33.071 -51.789  0.00  0.00    -0.041 A 
ATOM      6  C   UNL A   1      55.643 -32.191 -52.698  0.00  0.00    +0.005 A 
ENDROOT
BRANCH   1   7
ATOM      7  C   UNL A   1      54.244 -31.687 -54.648  0.00  0.00    +0.048 C 
BRANCH   7  12
ATOM      8  F   UNL A   1      48.789 -30.879 -53.449  0.00  0.00    -0.205 F 
ATOM      9  C   UNL A   1      50.082 -31.064 -53.736  0.00  0.00    +0.123 A 
ATOM     10  C   UNL A   1      51.042 -30.823 -52.760  0.00  0.00    -0.026 A 
ATOM     11  C   UNL A   1      52.393 -31.015 -53.056  0.00  0.00    -0.054 A 
ATOM     12  C   UNL A   1      52.788 -31.452 -54.333  0.00  0.00    -0.028 A 
ATOM     13  C   UNL A   1      51.800 -31.688 -55.305  0.00  0.00    -0.054 A 
ATOM     14  C   UNL A   1      50.450 -31.493 -55.003  0.00  0.00    -0.026 A 
ENDBRANCH   7  12
ENDBRANCH   1   7
BRANCH   4  15
ATOM     15  C   UNL A   1      56.609 -35.457 -50.951  0.00  0.00    +0.049 C 
BRANCH  15  16
ATOM     16  N   UNL A   1      55.797 -35.676 -49.756  0.00  0.00    -0.339 N 
ATOM     17  C   UNL A   1      54.824 -36.635 -49.614  0.00  0.00    +0.023 A 
ATOM     18  C   UNL A   1      54.282 -36.510 -48.349  0.00  0.00    -0.019 A 
ATOM     19  C   UNL A   1      54.937 -35.428 -47.701  0.00  0.00    +0.003 A 
ATOM     20  C   UNL A   1      54.810 -34.832 -46.431  0.00  0.00    -0.052 A 
ATOM     21  C   UNL A   1      55.639 -33.760 -46.084  0.00  0.00    -0.061 A 
ATOM     22  C   UNL A   1      56.588 -33.282 -46.981  0.00  0.00    -0.060 A 
ATOM     23  C   UNL A   1      56.733 -33.856 -48.248  0.00  0.00    -0.038 A 
ATOM     24  C   UNL A   1      55.892 -34.928 -48.592  0.00  0.00    +0.050 A 
ATOM     25  C   UNL A   1      53.193 -37.398 -47.843  0.00  0.00    -0.025 C 
ATOM     26  C   UNL A   1      53.069 -38.668 -48.703  0.00  0.00    -0.049 C 
ATOM     27  C   UNL A   1      53.118 -38.348 -50.206  0.00  0.00    -0.047 C 
ATOM     28  C   UNL A   1      54.440 -37.675 -50.616  0.00  0.00    -0.012 C 
ENDBRANCH  15  16
ENDBRANCH   4  15
TORSDOF 4
ENDMDL
MODEL 6
REMARK VINA RESULT:    -8.044      5.519      8.877
REMARK INTER + INTRA:         -10.286
REMARK INTER:                  -9.072
REMARK INTRA:                  -1.214
REMARK UNBOUND:                -0.361
REMARK  Name = cpd361.pdb
REMARK  4 active torsions:
REMARK  status: ('A' for Active; 'I' for Inactive)
REMARK    1  A    between atoms: C_5  and  C_6
REMARK    2  A    between atoms: C_6  and  N_7
REMARK    3  A    between atoms: C_10  and  C_11
REMARK    4  A    between atoms: C_11  and  N_12
REMARK                            x       y       z     vdW  Elec       q    Type
REMARK                         _______ _______ _______ _____ _____    ______ ____
ROOT
ATOM      1  N   UNL A   1      31.809 -37.189 -25.244  0.00  0.00    -0.349 N 
ATOM      2  C   UNL A   1      31.790 -36.154 -26.114  0.00  0.00    +0.005 A 
ATOM      3  C   UNL A   1      32.218 -36.322 -27.428  0.00  0.00    -0.041 A 
ATOM      4  C   UNL A   1      32.678 -37.567 -27.861  0.00  0.00    -0.025 A 
ATOM      5  C   UNL A   1      32.652 -38.626 -26.949  0.00  0.00    -0.041 A 
ATOM      6  C   UNL A   1      32.227 -38.412 -25.642  0.00  0.00    +0.005 A 
ENDROOT
BRANCH   1   7
ATOM      7  C   UNL A   1      31.368 -36.986 -23.842  0.00  0.00    +0.048 C 
BRANCH   7  12
ATOM      8  F   UNL A   1      35.678 -37.523 -20.239  0.00  0.00    -0.205 F 
ATOM      9  C   UNL A   1      34.659 -37.400 -21.097  0.00  0.00    +0.123 A 
ATOM     10  C   UNL A   1      33.560 -38.241 -20.981  0.00  0.00    -0.026 A 
ATOM     11  C   UNL A   1      32.494 -38.115 -21.875  0.00  0.00    -0.054 A 
ATOM     12  C   UNL A   1      32.528 -37.143 -22.890  0.00  0.00    -0.028 A 
ATOM     13  C   UNL A   1      33.652 -36.304 -22.991  0.00  0.00    -0.054 A 
ATOM     14  C   UNL A   1      34.714 -36.435 -22.094  0.00  0.00    -0.026 A 
ENDBRANCH   7  12
ENDBRANCH   1   7
BRANCH   4  15
ATOM     15  C   UNL A   1      33.147 -37.736 -29.296  0.00  0.00    +0.049 C 
BRANCH  15  16
ATOM     16  N   UNL A   1      34.406 -37.046 -29.566  0.00  0.00    -0.339 N 
ATOM     17  C   UNL A   1      34.533 -35.808 -30.147  0.00  0.00    +0.023 A 
ATOM     18  C   UNL A   1      35.879 -35.514 -30.240  0.00  0.00    -0.019 A 
ATOM     19  C   UNL A   1      36.601 -36.618 -29.711  0.00  0.00    +0.003 A 
ATOM     20  C   UNL A   1      37.973 -36.897 -29.549  0.00  0.00    -0.052 A 
ATOM     21  C   UNL A   1      38.368 -38.103 -28.962  0.00  0.00    -0.061 A 
ATOM     22  C   UNL A   1      37.419 -39.025 -28.534  0.00  0.00    -0.060 A 
ATOM     23  C   UNL A   1      36.052 -38.771 -28.683  0.00  0.00    -0.038 A 
ATOM     24  C   UNL A   1      35.662 -37.560 -29.280  0.00  0.00    +0.050 A 
ATOM     25  C   UNL A   1      36.392 -34.237 -30.820  0.00  0.00    -0.025 C 
ATOM     26  C   UNL A   1      35.280 -33.176 -30.893  0.00  0.00    -0.049 C 
ATOM     27  C   UNL A   1      33.967 -33.759 -31.443  0.00  0.00    -0.047 C 
ATOM     28  C   UNL A   1      33.423 -34.898 -30.563  0.00  0.00    -0.012 C 
ENDBRANCH  15  16
ENDBRANCH   4  15
TORSDOF 4
ENDMDL
MODEL 7
REMARK VINA RESULT:    -8.022     32.270     36.840
REMARK INTER + INTRA:         -10.259
REMARK INTER:                  -9.076
REMARK INTRA:                  -1.184
REMARK UNBOUND:                -0.361
REMARK  Name = cpd361.pdb
REMARK  4 active torsions:
REMARK  status: ('A' for Active; 'I' for Inactive)
REMARK    1  A    between atoms: C_5  and  C_6
REMARK    2  A    between atoms: C_6  and  N_7
REMARK    3  A    between atoms: C_10  and  C_11
REMARK    4  A    between atoms: C_11  and  N_12
REMARK                            x       y       z     vdW  Elec       q    Type
REMARK                         _______ _______ _______ _____ _____    ______ ____
ROOT
ATOM      1  N   UNL A   1      60.431 -17.898 -10.237  0.00  0.00    -0.349 N 
ATOM      2  C   UNL A   1      60.483 -18.060  -8.895  0.00  0.00    +0.005 A 
ATOM      3  C   UNL A   1      61.595 -18.638  -8.290  0.00  0.00    -0.041 A 
ATOM      4  C   UNL A   1      62.673 -19.064  -9.069  0.00  0.00    -0.025 A 
ATOM      5  C   UNL A   1      62.606 -18.851 -10.449  0.00  0.00    -0.041 A 
ATOM      6  C   UNL A   1      61.471 -18.280 -11.013  0.00  0.00    +0.005 A 
ENDROOT
BRANCH   1   7
ATOM      7  C   UNL A   1      59.229 -17.298 -10.865  0.00  0.00    +0.048 C 
BRANCH   7  12
ATOM      8  F   UNL A   1      56.598 -21.135 -14.058  0.00  0.00    -0.205 F 
ATOM      9  C   UNL A   1      57.216 -20.222 -13.301  0.00  0.00    +0.123 A 
ATOM     10  C   UNL A   1      57.291 -20.409 -11.926  0.00  0.00    -0.026 A 
ATOM     11  C   UNL A   1      57.935 -19.458 -11.132  0.00  0.00    -0.054 A 
ATOM     12  C   UNL A   1      58.509 -18.314 -11.715  0.00  0.00    -0.028 A 
ATOM     13  C   UNL A   1      58.419 -18.144 -13.108  0.00  0.00    -0.054 A 
ATOM     14  C   UNL A   1      57.773 -19.099 -13.897  0.00  0.00    -0.026 A 
ENDBRANCH   7  12
ENDBRANCH   1   7
BRANCH   4  15
ATOM     15  C   UNL A   1      63.879 -19.699  -8.398  0.00  0.00    +0.049 C 
BRANCH  15  16
ATOM     16  N   UNL A   1      63.605 -21.041  -7.891  0.00  0.00    -0.339 N 
ATOM     17  C   UNL A   1      63.520 -21.396  -6.567  0.00  0.00    +0.023 A 
ATOM     18  C   UNL A   1      63.261 -22.751  -6.502  0.00  0.00    -0.019 A 
ATOM     19  C   UNL A   1      63.201 -23.245  -7.833  0.00  0.00    +0.003 A 
ATOM     20  C   UNL A   1      62.982 -24.521  -8.390  0.00  0.00    -0.052 A 
ATOM     21  C   UNL A   1      62.968 -24.675  -9.780  0.00  0.00    -0.061 A 
ATOM     22  C   UNL A   1      63.166 -23.580 -10.615  0.00  0.00    -0.060 A 
ATOM     23  C   UNL A   1      63.385 -22.304 -10.087  0.00  0.00    -0.038 A 
ATOM     24  C   UNL A   1      63.403 -22.157  -8.689  0.00  0.00    +0.050 A 
ATOM     25  C   UNL A   1      63.099 -23.484  -5.211  0.00  0.00    -0.025 C 
ATOM     26  C   UNL A   1      62.839 -22.510  -4.049  0.00  0.00    -0.049 C 
ATOM     27  C   UNL A   1      63.787 -21.300  -4.093  0.00  0.00    -0.047 C 
ATOM     28  C   UNL A   1      63.630 -20.484  -5.388  0.00  0.00    -0.012 C 
ENDBRANCH  15  16
ENDBRANCH   4  15
TORSDOF 4
ENDMDL
MODEL 8
REMARK VINA RESULT:    -7.960     17.126     19.743
REMARK INTER + INTRA:         -10.182
REMARK INTER:                  -9.107
REMARK INTRA:                  -1.075
REMARK UNBOUND:                -0.361
REMARK  Name = cpd361.pdb
REMARK  4 active torsions:
REMARK  status: ('A' for Active; 'I' for Inactive)
REMARK    1  A    between atoms: C_5  and  C_6
REMARK    2  A    between atoms: C_6  and  N_7
REMARK    3  A    between atoms: C_10  and  C_11
REMARK    4  A    between atoms: C_11  and  N_12
REMARK                            x       y       z     vdW  Elec       q    Type
REMARK                         _______ _______ _______ _____ _____    ______ ____
ROOT
ATOM      1  N   UNL A   1      42.857 -19.775 -34.564  0.00  0.00    -0.349 N 
ATOM      2  C   UNL A   1      44.016 -19.855 -33.871  0.00  0.00    +0.005 A 
ATOM      3  C   UNL A   1      45.232 -20.001 -34.533  0.00  0.00    -0.041 A 
ATOM      4  C   UNL A   1      45.266 -20.072 -35.928  0.00  0.00    -0.025 A 
ATOM      5  C   UNL A   1      44.056 -19.950 -36.617  0.00  0.00    -0.041 A 
ATOM      6  C   UNL A   1      42.863 -19.816 -35.916  0.00  0.00    +0.005 A 
ENDROOT
BRANCH   1   7
ATOM      7  C   UNL A   1      41.570 -19.639 -33.840  0.00  0.00    +0.048 C 
BRANCH   7  12
ATOM      8  F   UNL A   1      38.522 -24.378 -34.157  0.00  0.00    -0.205 F 
ATOM      9  C   UNL A   1      39.248 -23.257 -34.087  0.00  0.00    +0.123 A 
ATOM     10  C   UNL A   1      38.878 -22.151 -34.842  0.00  0.00    -0.026 A 
ATOM     11  C   UNL A   1      39.634 -20.979 -34.771  0.00  0.00    -0.054 A 
ATOM     12  C   UNL A   1      40.766 -20.911 -33.940  0.00  0.00    -0.028 A 
ATOM     13  C   UNL A   1      41.123 -22.043 -33.186  0.00  0.00    -0.054 A 
ATOM     14  C   UNL A   1      40.364 -23.212 -33.262  0.00  0.00    -0.026 A 
ENDBRANCH   7  12
ENDBRANCH   1   7
BRANCH   4  15
ATOM     15  C   UNL A   1      46.598 -20.237 -36.638  0.00  0.00    +0.049 C 
BRANCH  15  16
ATOM     16  N   UNL A   1      46.663 -19.503 -37.899  0.00  0.00    -0.339 N 
ATOM     17  C   UNL A   1      46.514 -20.047 -39.152  0.00  0.00    +0.023 A 
ATOM     18  C   UNL A   1      46.655 -19.032 -40.079  0.00  0.00    -0.019 A 
ATOM     19  C   UNL A   1      46.914 -17.829 -39.368  0.00  0.00    +0.003 A 
ATOM     20  C   UNL A   1      47.150 -16.497 -39.762  0.00  0.00    -0.052 A 
ATOM     21  C   UNL A   1      47.362 -15.515 -38.788  0.00  0.00    -0.061 A 
ATOM     22  C   UNL A   1      47.339 -15.844 -37.437  0.00  0.00    -0.060 A 
ATOM     23  C   UNL A   1      47.107 -17.158 -37.021  0.00  0.00    -0.038 A 
ATOM     24  C   UNL A   1      46.900 -18.141 -38.005  0.00  0.00    +0.050 A 
ATOM     25  C   UNL A   1      46.546 -19.259 -41.551  0.00  0.00    -0.025 C 
ATOM     26  C   UNL A   1      45.865 -20.604 -41.856  0.00  0.00    -0.049 C 
ATOM     27  C   UNL A   1      46.418 -21.738 -40.976  0.00  0.00    -0.047 C 
ATOM     28  C   UNL A   1      46.199 -21.471 -39.476  0.00  0.00    -0.012 C 
ENDBRANCH  15  16
ENDBRANCH   4  15
TORSDOF 4
ENDMDL
MODEL 9
REMARK VINA RESULT:    -7.956     15.918     18.716
REMARK INTER + INTRA:         -10.177
REMARK INTER:                  -9.337
REMARK INTRA:                  -0.840
REMARK UNBOUND:                -0.361
REMARK  Name = cpd361.pdb
REMARK  4 active torsions:
REMARK  status: ('A' for Active; 'I' for Inactive)
REMARK    1  A    between atoms: C_5  and  C_6
REMARK    2  A    between atoms: C_6  and  N_7
REMARK    3  A    between atoms: C_10  and  C_11
REMARK    4  A    between atoms: C_11  and  N_12
REMARK                            x       y       z     vdW  Elec       q    Type
REMARK                         _______ _______ _______ _____ _____    ______ ____
ROOT
ATOM      1  N   UNL A   1      40.172 -21.457 -37.912  0.00  0.00    -0.349 N 
ATOM      2  C   UNL A   1      40.318 -20.172 -38.308  0.00  0.00    +0.005 A 
ATOM      3  C   UNL A   1      41.310 -19.816 -39.218  0.00  0.00    -0.041 A 
ATOM      4  C   UNL A   1      42.172 -20.788 -39.730  0.00  0.00    -0.025 A 
ATOM      5  C   UNL A   1      41.973 -22.112 -39.330  0.00  0.00    -0.041 A 
ATOM      6  C   UNL A   1      40.978 -22.423 -38.410  0.00  0.00    +0.005 A 
ENDROOT
BRANCH   1   7
ATOM      7  C   UNL A   1      39.122 -21.814 -36.927  0.00  0.00    +0.048 C 
BRANCH   7  12
ATOM      8  F   UNL A   1      41.283 -22.362 -31.742  0.00  0.00    -0.205 F 
ATOM      9  C   UNL A   1      40.776 -22.234 -32.974  0.00  0.00    +0.123 A 
ATOM     10  C   UNL A   1      40.092 -23.299 -33.548  0.00  0.00    -0.026 A 
ATOM     11  C   UNL A   1      39.563 -23.168 -34.833  0.00  0.00    -0.054 A 
ATOM     12  C   UNL A   1      39.716 -21.968 -35.549  0.00  0.00    -0.028 A 
ATOM     13  C   UNL A   1      40.414 -20.904 -34.949  0.00  0.00    -0.054 A 
ATOM     14  C   UNL A   1      40.942 -21.041 -33.664  0.00  0.00    -0.026 A 
ENDBRANCH   7  12
ENDBRANCH   1   7
BRANCH   4  15
ATOM     15  C   UNL A   1      43.253 -20.386 -40.718  0.00  0.00    +0.049 C 
BRANCH  15  16
ATOM     16  N   UNL A   1      44.601 -20.675 -40.233  0.00  0.00    -0.339 N 
ATOM     17  C   UNL A   1      45.549 -21.416 -40.895  0.00  0.00    +0.023 A 
ATOM     18  C   UNL A   1      46.680 -21.470 -40.105  0.00  0.00    -0.019 A 
ATOM     19  C   UNL A   1      46.409 -20.748 -38.911  0.00  0.00    +0.003 A 
ATOM     20  C   UNL A   1      47.158 -20.468 -37.751  0.00  0.00    -0.052 A 
ATOM     21  C   UNL A   1      46.592 -19.695 -36.732  0.00  0.00    -0.061 A 
ATOM     22  C   UNL A   1      45.298 -19.199 -36.858  0.00  0.00    -0.060 A 
ATOM     23  C   UNL A   1      44.535 -19.463 -37.999  0.00  0.00    -0.038 A 
ATOM     24  C   UNL A   1      45.108 -20.246 -39.016  0.00  0.00    +0.050 A 
ATOM     25  C   UNL A   1      47.921 -22.192 -40.514  0.00  0.00    -0.025 C 
ATOM     26  C   UNL A   1      47.923 -22.479 -42.026  0.00  0.00    -0.049 C 
ATOM     27  C   UNL A   1      46.565 -23.018 -42.507  0.00  0.00    -0.047 C 
ATOM     28  C   UNL A   1      45.420 -22.021 -42.256  0.00  0.00    -0.012 C 
ENDBRANCH  15  16
ENDBRANCH   4  15
TORSDOF 4
ENDMDL
MODEL 10
REMARK VINA RESULT:    -7.866     15.666     17.401
REMARK INTER + INTRA:         -10.066
REMARK INTER:                  -9.112
REMARK INTRA:                  -0.954
REMARK UNBOUND:                -0.361
REMARK  Name = cpd361.pdb
REMARK  4 active torsions:
REMARK  status: ('A' for Active; 'I' for Inactive)
REMARK    1  A    between atoms: C_5  and  C_6
REMARK    2  A    between atoms: C_6  and  N_7
REMARK    3  A    between atoms: C_10  and  C_11
REMARK    4  A    between atoms: C_11  and  N_12
REMARK                            x       y       z     vdW  Elec       q    Type
REMARK                         _______ _______ _______ _____ _____    ______ ____
ROOT
ATOM      1  N   UNL A   1      43.614 -20.558 -39.961  0.00  0.00    -0.349 N 
ATOM      2  C   UNL A   1      42.579 -21.043 -40.683  0.00  0.00    +0.005 A 
ATOM      3  C   UNL A   1      41.439 -21.532 -40.052  0.00  0.00    -0.041 A 
ATOM      4  C   UNL A   1      41.355 -21.531 -38.658  0.00  0.00    -0.025 A 
ATOM      5  C   UNL A   1      42.426 -20.991 -37.941  0.00  0.00    -0.041 A 
ATOM      6  C   UNL A   1      43.551 -20.523 -38.611  0.00  0.00    +0.005 A 
ENDROOT
BRANCH   1   7
ATOM      7  C   UNL A   1      44.829 -20.060 -40.651  0.00  0.00    +0.048 C 
BRANCH   7  12
ATOM      8  F   UNL A   1      48.241 -24.302 -42.137  0.00  0.00    -0.205 F 
ATOM      9  C   UNL A   1      47.428 -23.301 -41.782  0.00  0.00    +0.123 A 
ATOM     10  C   UNL A   1      47.648 -22.631 -40.585  0.00  0.00    -0.026 A 
ATOM     11  C   UNL A   1      46.802 -21.585 -40.211  0.00  0.00    -0.054 A 
ATOM     12  C   UNL A   1      45.730 -21.206 -41.038  0.00  0.00    -0.028 A 
ATOM     13  C   UNL A   1      45.525 -21.899 -42.244  0.00  0.00    -0.054 A 
ATOM     14  C   UNL A   1      46.374 -22.945 -42.612  0.00  0.00    -0.026 A 
ENDBRANCH   7  12
ENDBRANCH   1   7
BRANCH   4  15
ATOM     15  C   UNL A   1      40.108 -22.073 -37.981  0.00  0.00    +0.049 C 
BRANCH  15  16
ATOM     16  N   UNL A   1      39.643 -21.224 -36.887  0.00  0.00    -0.339 N 
ATOM     17  C   UNL A   1      39.695 -21.539 -35.551  0.00  0.00    +0.023 A 
ATOM     18  C   UNL A   1      39.150 -20.487 -34.841  0.00  0.00    -0.019 A 
ATOM     19  C   UNL A   1      38.736 -19.501 -35.777  0.00  0.00    +0.003 A 
ATOM     20  C   UNL A   1      38.117 -18.241 -35.655  0.00  0.00    -0.052 A 
ATOM     21  C   UNL A   1      37.848 -17.488 -36.803  0.00  0.00    -0.061 A 
ATOM     22  C   UNL A   1      38.191 -17.973 -38.061  0.00  0.00    -0.060 A 
ATOM     23  C   UNL A   1      38.806 -19.220 -38.209  0.00  0.00    -0.038 A 
ATOM     24  C   UNL A   1      39.067 -19.973 -37.051  0.00  0.00    +0.050 A 
ATOM     25  C   UNL A   1      39.046 -20.481 -33.351  0.00  0.00    -0.025 C 
ATOM     26  C   UNL A   1      39.969 -21.543 -32.728  0.00  0.00    -0.049 C 
ATOM     27  C   UNL A   1      39.874 -22.889 -33.467  0.00  0.00    -0.047 C 
ATOM     28  C   UNL A   1      40.284 -22.772 -34.945  0.00  0.00    -0.012 C 
ENDBRANCH  15  16
ENDBRANCH   4  15
TORSDOF 4
ENDMDL
MODEL 11
REMARK VINA RESULT:    -7.822      3.661      7.619
REMARK INTER + INTRA:         -10.012
REMARK INTER:                  -8.888
REMARK INTRA:                  -1.124
REMARK UNBOUND:                -0.361
REMARK  Name = cpd361.pdb
REMARK  4 active torsions:
REMARK  status: ('A' for Active; 'I' for Inactive)
REMARK    1  A    between atoms: C_5  and  C_6
REMARK    2  A    between atoms: C_6  and  N_7
REMARK    3  A    between atoms: C_10  and  C_11
REMARK    4  A    between atoms: C_11  and  N_12
REMARK                            x       y       z     vdW  Elec       q    Type
REMARK                         _______ _______ _______ _____ _____    ______ ____
ROOT
ATOM      1  N   UNL A   1      33.511 -40.559 -30.223  0.00  0.00    -0.349 N 
ATOM      2  C   UNL A   1      32.846 -39.465 -29.787  0.00  0.00    +0.005 A 
ATOM      3  C   UNL A   1      33.528 -38.410 -29.187  0.00  0.00    -0.041 A 
ATOM      4  C   UNL A   1      34.913 -38.474 -29.024  0.00  0.00    -0.025 A 
ATOM      5  C   UNL A   1      35.577 -39.601 -29.518  0.00  0.00    -0.041 A 
ATOM      6  C   UNL A   1      34.855 -40.637 -30.101  0.00  0.00    +0.005 A 
ENDROOT
BRANCH   1   7
ATOM      7  C   UNL A   1      32.764 -41.681 -30.843  0.00  0.00    +0.048 C 
BRANCH   7  12
ATOM      8  F   UNL A   1      33.491 -41.775 -36.438  0.00  0.00    -0.205 F 
ATOM      9  C   UNL A   1      33.325 -41.752 -35.111  0.00  0.00    +0.123 A 
ATOM     10  C   UNL A   1      33.086 -40.543 -34.471  0.00  0.00    -0.026 A 
ATOM     11  C   UNL A   1      32.913 -40.515 -33.085  0.00  0.00    -0.054 A 
ATOM     12  C   UNL A   1      32.978 -41.703 -32.336  0.00  0.00    -0.028 A 
ATOM     13  C   UNL A   1      33.223 -42.916 -33.004  0.00  0.00    -0.054 A 
ATOM     14  C   UNL A   1      33.396 -42.936 -34.390  0.00  0.00    -0.026 A 
ENDBRANCH   7  12
ENDBRANCH   1   7
BRANCH   4  15
ATOM     15  C   UNL A   1      35.645 -37.319 -28.363  0.00  0.00    +0.049 C 
BRANCH  15  16
ATOM     16  N   UNL A   1      36.015 -36.268 -29.307  0.00  0.00    -0.339 N 
ATOM     17  C   UNL A   1      35.259 -35.163 -29.614  0.00  0.00    +0.023 A 
ATOM     18  C   UNL A   1      35.947 -34.420 -30.553  0.00  0.00    -0.019 A 
ATOM     19  C   UNL A   1      37.160 -35.102 -30.842  0.00  0.00    +0.003 A 
ATOM     20  C   UNL A   1      38.241 -34.842 -31.707  0.00  0.00    -0.052 A 
ATOM     21  C   UNL A   1      39.323 -35.729 -31.748  0.00  0.00    -0.061 A 
ATOM     22  C   UNL A   1      39.339 -36.861 -30.939  0.00  0.00    -0.060 A 
ATOM     23  C   UNL A   1      38.278 -37.140 -30.072  0.00  0.00    -0.038 A 
ATOM     24  C   UNL A   1      37.192 -36.248 -30.041  0.00  0.00    +0.050 A 
ATOM     25  C   UNL A   1      35.423 -33.140 -31.116  0.00  0.00    -0.025 C 
ATOM     26  C   UNL A   1      34.291 -32.572 -30.242  0.00  0.00    -0.049 C 
ATOM     27  C   UNL A   1      33.286 -33.661 -29.830  0.00  0.00    -0.047 C 
ATOM     28  C   UNL A   1      33.946 -34.783 -29.010  0.00  0.00    -0.012 C 
ENDBRANCH  15  16
ENDBRANCH   4  15
TORSDOF 4
ENDMDL
MODEL 12
REMARK VINA RESULT:    -7.814     16.879     18.701
REMARK INTER + INTRA:         -10.003
REMARK INTER:                  -8.906
REMARK INTRA:                  -1.097
REMARK UNBOUND:                -0.361
REMARK  Name = cpd361.pdb
REMARK  4 active torsions:
REMARK  status: ('A' for Active; 'I' for Inactive)
REMARK    1  A    between atoms: C_5  and  C_6
REMARK    2  A    between atoms: C_6  and  N_7
REMARK    3  A    between atoms: C_10  and  C_11
REMARK    4  A    between atoms: C_11  and  N_12
REMARK                            x       y       z     vdW  Elec       q    Type
REMARK                         _______ _______ _______ _____ _____    ______ ____
ROOT
ATOM      1  N   UNL A   1      45.086 -19.791 -38.469  0.00  0.00    -0.349 N 
ATOM      2  C   UNL A   1      43.850 -20.038 -37.977  0.00  0.00    +0.005 A 
ATOM      3  C   UNL A   1      43.652 -20.224 -36.612  0.00  0.00    -0.041 A 
ATOM      4  C   UNL A   1      44.734 -20.162 -35.732  0.00  0.00    -0.025 A 
ATOM      5  C   UNL A   1      45.993 -19.870 -36.266  0.00  0.00    -0.041 A 
ATOM      6  C   UNL A   1      46.149 -19.702 -37.637  0.00  0.00    +0.005 A 
ENDROOT
BRANCH   1   7
ATOM      7  C   UNL A   1      45.280 -19.615 -39.929  0.00  0.00    +0.048 C 
BRANCH   7  12
ATOM      8  F   UNL A   1      48.554 -23.687 -42.062  0.00  0.00    -0.205 F 
ATOM      9  C   UNL A   1      47.781 -22.722 -41.551  0.00  0.00    +0.123 A 
ATOM     10  C   UNL A   1      48.151 -21.392 -41.708  0.00  0.00    -0.026 A 
ATOM     11  C   UNL A   1      47.347 -20.383 -41.175  0.00  0.00    -0.054 A 
ATOM     12  C   UNL A   1      46.166 -20.704 -40.483  0.00  0.00    -0.028 A 
ATOM     13  C   UNL A   1      45.812 -22.057 -40.334  0.00  0.00    -0.054 A 
ATOM     14  C   UNL A   1      46.621 -23.061 -40.868  0.00  0.00    -0.026 A 
ENDBRANCH   7  12
ENDBRANCH   1   7
BRANCH   4  15
ATOM     15  C   UNL A   1      44.505 -20.372 -34.245  0.00  0.00    +0.049 C 
BRANCH  15  16
ATOM     16  N   UNL A   1      43.426 -19.543 -33.715  0.00  0.00    -0.339 N 
ATOM     17  C   UNL A   1      42.177 -19.987 -33.357  0.00  0.00    +0.023 A 
ATOM     18  C   UNL A   1      41.446 -18.901 -32.916  0.00  0.00    -0.019 A 
ATOM     19  C   UNL A   1      42.274 -17.750 -33.022  0.00  0.00    +0.003 A 
ATOM     20  C   UNL A   1      42.083 -16.383 -32.737  0.00  0.00    -0.052 A 
ATOM     21  C   UNL A   1      43.132 -15.481 -32.942  0.00  0.00    -0.061 A 
ATOM     22  C   UNL A   1      44.360 -15.924 -33.422  0.00  0.00    -0.060 A 
ATOM     23  C   UNL A   1      44.574 -17.274 -33.712  0.00  0.00    -0.038 A 
ATOM     24  C   UNL A   1      43.514 -18.174 -33.509  0.00  0.00    +0.050 A 
ATOM     25  C   UNL A   1      40.035 -19.012 -32.439  0.00  0.00    -0.025 C 
ATOM     26  C   UNL A   1      39.675 -20.472 -32.112  0.00  0.00    -0.049 C 
ATOM     27  C   UNL A   1      40.161 -21.440 -33.204  0.00  0.00    -0.047 C 
ATOM     28  C   UNL A   1      41.689 -21.399 -33.380  0.00  0.00    -0.012 C 
ENDBRANCH  15  16
ENDBRANCH   4  15
TORSDOF 4
ENDMDL
MODEL 13
REMARK VINA RESULT:    -7.802     16.896     18.930
REMARK INTER + INTRA:          -9.987
REMARK INTER:                  -8.998
REMARK INTRA:                  -0.989
REMARK UNBOUND:                -0.361
REMARK  Name = cpd361.pdb
REMARK  4 active torsions:
REMARK  status: ('A' for Active; 'I' for Inactive)
REMARK    1  A    between atoms: C_5  and  C_6
REMARK    2  A    between atoms: C_6  and  N_7
REMARK    3  A    between atoms: C_10  and  C_11
REMARK    4  A    between atoms: C_11  and  N_12
REMARK                            x       y       z     vdW  Elec       q    Type
REMARK                         _______ _______ _______ _____ _____    ______ ____
ROOT
ATOM      1  N   UNL A   1      45.058 -19.765 -38.483  0.00  0.00    -0.349 N 
ATOM      2  C   UNL A   1      43.815 -19.903 -37.969  0.00  0.00    +0.005 A 
ATOM      3  C   UNL A   1      43.625 -20.062 -36.599  0.00  0.00    -0.041 A 
ATOM      4  C   UNL A   1      44.724 -20.087 -35.738  0.00  0.00    -0.025 A 
ATOM      5  C   UNL A   1      45.994 -19.907 -36.295  0.00  0.00    -0.041 A 
ATOM      6  C   UNL A   1      46.139 -19.762 -37.670  0.00  0.00    +0.005 A 
ENDROOT
BRANCH   1   7
ATOM      7  C   UNL A   1      45.242 -19.616 -39.947  0.00  0.00    +0.048 C 
BRANCH   7  12
ATOM      8  F   UNL A   1      48.588 -23.716 -41.907  0.00  0.00    -0.205 F 
ATOM      9  C   UNL A   1      47.791 -22.744 -41.448  0.00  0.00    +0.123 A 
ATOM     10  C   UNL A   1      46.632 -23.076 -40.759  0.00  0.00    -0.026 A 
ATOM     11  C   UNL A   1      45.798 -22.064 -40.279  0.00  0.00    -0.054 A 
ATOM     12  C   UNL A   1      46.126 -20.713 -40.488  0.00  0.00    -0.028 A 
ATOM     13  C   UNL A   1      47.303 -20.400 -41.190  0.00  0.00    -0.054 A 
ATOM     14  C   UNL A   1      48.132 -21.417 -41.668  0.00  0.00    -0.026 A 
ENDBRANCH   7  12
ENDBRANCH   1   7
BRANCH   4  15
ATOM     15  C   UNL A   1      44.504 -20.267 -34.246  0.00  0.00    +0.049 C 
BRANCH  15  16
ATOM     16  N   UNL A   1      43.405 -19.454 -33.732  0.00  0.00    -0.339 N 
ATOM     17  C   UNL A   1      43.431 -18.092 -33.556  0.00  0.00    +0.023 A 
ATOM     18  C   UNL A   1      42.209 -17.704 -33.041  0.00  0.00    -0.019 A 
ATOM     19  C   UNL A   1      41.414 -18.871 -32.884  0.00  0.00    +0.003 A 
ATOM     20  C   UNL A   1      40.109 -19.104 -32.405  0.00  0.00    -0.052 A 
ATOM     21  C   UNL A   1      39.600 -20.407 -32.394  0.00  0.00    -0.061 A 
ATOM     22  C   UNL A   1      40.369 -21.471 -32.853  0.00  0.00    -0.060 A 
ATOM     23  C   UNL A   1      41.666 -21.265 -33.333  0.00  0.00    -0.038 A 
ATOM     24  C   UNL A   1      42.174 -19.955 -33.336  0.00  0.00    +0.050 A 
ATOM     25  C   UNL A   1      41.876 -16.282 -32.728  0.00  0.00    -0.025 C 
ATOM     26  C   UNL A   1      42.855 -15.318 -33.421  0.00  0.00    -0.049 C 
ATOM     27  C   UNL A   1      44.314 -15.781 -33.275  0.00  0.00    -0.047 C 
ATOM     28  C   UNL A   1      44.551 -17.166 -33.904  0.00  0.00    -0.012 C 
ENDBRANCH  15  16
ENDBRANCH   4  15
TORSDOF 4
ENDMDL
MODEL 14
REMARK VINA RESULT:    -7.793      2.342      4.197
REMARK INTER + INTRA:          -9.977
REMARK INTER:                  -9.212
REMARK INTRA:                  -0.765
REMARK UNBOUND:                -0.361
REMARK  Name = cpd361.pdb
REMARK  4 active torsions:
REMARK  status: ('A' for Active; 'I' for Inactive)
REMARK    1  A    between atoms: C_5  and  C_6
REMARK    2  A    between atoms: C_6  and  N_7
REMARK    3  A    between atoms: C_10  and  C_11
REMARK    4  A    between atoms: C_11  and  N_12
REMARK                            x       y       z     vdW  Elec       q    Type
REMARK                         _______ _______ _______ _____ _____    ______ ____
ROOT
ATOM      1  N   UNL A   1      35.352 -36.552 -29.846  0.00  0.00    -0.349 N 
ATOM      2  C   UNL A   1      34.684 -37.096 -30.888  0.00  0.00    +0.005 A 
ATOM      3  C   UNL A   1      34.013 -36.288 -31.802  0.00  0.00    -0.041 A 
ATOM      4  C   UNL A   1      34.020 -34.900 -31.648  0.00  0.00    -0.025 A 
ATOM      5  C   UNL A   1      34.750 -34.366 -30.582  0.00  0.00    -0.041 A 
ATOM      6  C   UNL A   1      35.396 -35.209 -29.685  0.00  0.00    +0.005 A 
ENDROOT
BRANCH   1   7
ATOM      7  C   UNL A   1      36.045 -37.430 -28.870  0.00  0.00    +0.048 C 
BRANCH   7  12
ATOM      8  F   UNL A   1      41.569 -37.668 -29.996  0.00  0.00    -0.205 F 
ATOM      9  C   UNL A   1      40.259 -37.617 -29.733  0.00  0.00    +0.123 A 
ATOM     10  C   UNL A   1      39.771 -38.195 -28.568  0.00  0.00    -0.026 A 
ATOM     11  C   UNL A   1      38.403 -38.144 -28.290  0.00  0.00    -0.054 A 
ATOM     12  C   UNL A   1      37.519 -37.511 -29.180  0.00  0.00    -0.028 A 
ATOM     13  C   UNL A   1      38.034 -36.934 -30.354  0.00  0.00    -0.054 A 
ATOM     14  C   UNL A   1      39.402 -36.989 -30.627  0.00  0.00    -0.026 A 
ENDBRANCH   7  12
ENDBRANCH   1   7
BRANCH   4  15
ATOM     15  C   UNL A   1      33.281 -34.030 -32.649  0.00  0.00    +0.049 C 
BRANCH  15  16
ATOM     16  N   UNL A   1      31.931 -33.684 -32.211  0.00  0.00    -0.339 N 
ATOM     17  C   UNL A   1      30.789 -34.392 -32.499  0.00  0.00    +0.023 A 
ATOM     18  C   UNL A   1      29.721 -33.736 -31.917  0.00  0.00    -0.019 A 
ATOM     19  C   UNL A   1      30.226 -32.580 -31.264  0.00  0.00    +0.003 A 
ATOM     20  C   UNL A   1      29.628 -31.541 -30.523  0.00  0.00    -0.052 A 
ATOM     21  C   UNL A   1      30.428 -30.527 -29.984  0.00  0.00    -0.061 A 
ATOM     22  C   UNL A   1      31.806 -30.541 -30.171  0.00  0.00    -0.060 A 
ATOM     23  C   UNL A   1      32.423 -31.561 -30.902  0.00  0.00    -0.038 A 
ATOM     24  C   UNL A   1      31.612 -32.572 -31.446  0.00  0.00    +0.050 A 
ATOM     25  C   UNL A   1      28.315 -34.229 -32.020  0.00  0.00    -0.025 C 
ATOM     26  C   UNL A   1      28.275 -35.703 -32.459  0.00  0.00    -0.049 C 
ATOM     27  C   UNL A   1      29.238 -35.979 -33.626  0.00  0.00    -0.047 C 
ATOM     28  C   UNL A   1      30.701 -35.676 -33.258  0.00  0.00    -0.012 C 
ENDBRANCH  15  16
ENDBRANCH   4  15
TORSDOF 4
ENDMDL
MODEL 15
REMARK VINA RESULT:    -7.762     15.305     17.043
REMARK INTER + INTRA:          -9.938
REMARK INTER:                  -8.838
REMARK INTRA:                  -1.100
REMARK UNBOUND:                -0.361
REMARK  Name = cpd361.pdb
REMARK  4 active torsions:
REMARK  status: ('A' for Active; 'I' for Inactive)
REMARK    1  A    between atoms: C_5  and  C_6
REMARK    2  A    between atoms: C_6  and  N_7
REMARK    3  A    between atoms: C_10  and  C_11
REMARK    4  A    between atoms: C_11  and  N_12
REMARK                            x       y       z     vdW  Elec       q    Type
REMARK                         _______ _______ _______ _____ _____    ______ ____
ROOT
ATOM      1  N   UNL A   1      43.575 -19.727 -37.662  0.00  0.00    -0.349 N 
ATOM      2  C   UNL A   1      44.245 -19.337 -36.554  0.00  0.00    +0.005 A 
ATOM      3  C   UNL A   1      43.832 -19.751 -35.291  0.00  0.00    -0.041 A 
ATOM      4  C   UNL A   1      42.712 -20.573 -35.154  0.00  0.00    -0.025 A 
ATOM      5  C   UNL A   1      42.062 -20.989 -36.320  0.00  0.00    -0.041 A 
ATOM      6  C   UNL A   1      42.501 -20.543 -37.562  0.00  0.00    +0.005 A 
ENDROOT
BRANCH   1   7
ATOM      7  C   UNL A   1      44.019 -19.260 -38.999  0.00  0.00    +0.048 C 
BRANCH   7  12
ATOM      8  F   UNL A   1      46.678 -23.358 -41.824  0.00  0.00    -0.205 F 
ATOM      9  C   UNL A   1      46.044 -22.391 -41.152  0.00  0.00    +0.123 A 
ATOM     10  C   UNL A   1      46.542 -21.969 -39.925  0.00  0.00    -0.026 A 
ATOM     11  C   UNL A   1      45.882 -20.961 -39.220  0.00  0.00    -0.054 A 
ATOM     12  C   UNL A   1      44.719 -20.369 -39.744  0.00  0.00    -0.028 A 
ATOM     13  C   UNL A   1      44.232 -20.813 -40.986  0.00  0.00    -0.054 A 
ATOM     14  C   UNL A   1      44.895 -21.822 -41.686  0.00  0.00    -0.026 A 
ENDBRANCH   7  12
ENDBRANCH   1   7
BRANCH   4  15
ATOM     15  C   UNL A   1      42.268 -21.013 -33.770  0.00  0.00    +0.049 C 
BRANCH  15  16
ATOM     16  N   UNL A   1      40.858 -20.736 -33.511  0.00  0.00    -0.339 N 
ATOM     17  C   UNL A   1      39.830 -21.641 -33.621  0.00  0.00    +0.023 A 
ATOM     18  C   UNL A   1      38.652 -20.991 -33.306  0.00  0.00    -0.019 A 
ATOM     19  C   UNL A   1      38.969 -19.638 -33.008  0.00  0.00    +0.003 A 
ATOM     20  C   UNL A   1      38.201 -18.516 -32.638  0.00  0.00    -0.052 A 
ATOM     21  C   UNL A   1      38.836 -17.294 -32.394  0.00  0.00    -0.061 A 
ATOM     22  C   UNL A   1      40.217 -17.179 -32.512  0.00  0.00    -0.060 A 
ATOM     23  C   UNL A   1      41.001 -18.277 -32.878  0.00  0.00    -0.038 A 
ATOM     24  C   UNL A   1      40.356 -19.501 -33.127  0.00  0.00    +0.050 A 
ATOM     25  C   UNL A   1      37.323 -21.673 -33.314  0.00  0.00    -0.025 C 
ATOM     26  C   UNL A   1      37.486 -23.203 -33.293  0.00  0.00    -0.049 C 
ATOM     27  C   UNL A   1      38.562 -23.678 -34.284  0.00  0.00    -0.047 C 
ATOM     28  C   UNL A   1      39.948 -23.090 -33.964  0.00  0.00    -0.012 C 
ENDBRANCH  15  16
ENDBRANCH   4  15
TORSDOF 4
ENDMDL
MODEL 16
REMARK VINA RESULT:    -7.744     15.408     17.429
REMARK INTER + INTRA:          -9.916
REMARK INTER:                  -8.965
REMARK INTRA:                  -0.951
REMARK UNBOUND:                -0.361
REMARK  Name = cpd361.pdb
REMARK  4 active torsions:
REMARK  status: ('A' for Active; 'I' for Inactive)
REMARK    1  A    between atoms: C_5  and  C_6
REMARK    2  A    between atoms: C_6  and  N_7
REMARK    3  A    between atoms: C_10  and  C_11
REMARK    4  A    between atoms: C_11  and  N_12
REMARK                            x       y       z     vdW  Elec       q    Type
REMARK                         _______ _______ _______ _____ _____    ______ ____
ROOT
ATOM      1  N   UNL A   1      43.142 -19.946 -38.368  0.00  0.00    -0.349 N 
ATOM      2  C   UNL A   1      43.877 -19.448 -37.348  0.00  0.00    +0.005 A 
ATOM      3  C   UNL A   1      43.629 -19.838 -36.035  0.00  0.00    -0.041 A 
ATOM      4  C   UNL A   1      42.610 -20.750 -35.756  0.00  0.00    -0.025 A 
ATOM      5  C   UNL A   1      41.891 -21.276 -36.834  0.00  0.00    -0.041 A 
ATOM      6  C   UNL A   1      42.164 -20.850 -38.130  0.00  0.00    +0.005 A 
ENDROOT
BRANCH   1   7
ATOM      7  C   UNL A   1      43.408 -19.503 -39.758  0.00  0.00    +0.048 C 
BRANCH   7  12
ATOM      8  F   UNL A   1      46.565 -23.271 -42.529  0.00  0.00    -0.205 F 
ATOM      9  C   UNL A   1      45.813 -22.383 -41.871  0.00  0.00    +0.123 A 
ATOM     10  C   UNL A   1      46.109 -22.081 -40.547  0.00  0.00    -0.026 A 
ATOM     11  C   UNL A   1      45.325 -21.154 -39.857  0.00  0.00    -0.054 A 
ATOM     12  C   UNL A   1      44.241 -20.525 -40.492  0.00  0.00    -0.028 A 
ATOM     13  C   UNL A   1      43.958 -20.847 -41.831  0.00  0.00    -0.054 A 
ATOM     14  C   UNL A   1      44.745 -21.775 -42.516  0.00  0.00    -0.026 A 
ENDBRANCH   7  12
ENDBRANCH   1   7
BRANCH   4  15
ATOM     15  C   UNL A   1      42.346 -21.165 -34.319  0.00  0.00    +0.049 C 
BRANCH  15  16
ATOM     16  N   UNL A   1      41.004 -20.810 -33.864  0.00  0.00    -0.339 N 
ATOM     17  C   UNL A   1      40.602 -19.565 -33.446  0.00  0.00    +0.023 A 
ATOM     18  C   UNL A   1      39.270 -19.643 -33.087  0.00  0.00    -0.019 A 
ATOM     19  C   UNL A   1      38.847 -20.987 -33.278  0.00  0.00    +0.003 A 
ATOM     20  C   UNL A   1      37.627 -21.661 -33.078  0.00  0.00    -0.052 A 
ATOM     21  C   UNL A   1      37.531 -23.023 -33.385  0.00  0.00    -0.061 A 
ATOM     22  C   UNL A   1      38.629 -23.712 -33.888  0.00  0.00    -0.060 A 
ATOM     23  C   UNL A   1      39.851 -23.065 -34.095  0.00  0.00    -0.038 A 
ATOM     24  C   UNL A   1      39.942 -21.699 -33.779  0.00  0.00    +0.050 A 
ATOM     25  C   UNL A   1      38.495 -18.468 -32.587  0.00  0.00    -0.025 C 
ATOM     26  C   UNL A   1      39.213 -17.149 -32.921  0.00  0.00    -0.049 C 
ATOM     27  C   UNL A   1      40.718 -17.222 -32.614  0.00  0.00    -0.047 C 
ATOM     28  C   UNL A   1      41.426 -18.319 -33.428  0.00  0.00    -0.012 C 
ENDBRANCH  15  16
ENDBRANCH   4  15
TORSDOF 4
ENDMDL
MODEL 17
REMARK VINA RESULT:    -7.690     16.975     19.803
REMARK INTER + INTRA:          -9.849
REMARK INTER:                  -8.747
REMARK INTRA:                  -1.102
REMARK UNBOUND:                -0.361
REMARK  Name = cpd361.pdb
REMARK  4 active torsions:
REMARK  status: ('A' for Active; 'I' for Inactive)
REMARK    1  A    between atoms: C_5  and  C_6
REMARK    2  A    between atoms: C_6  and  N_7
REMARK    3  A    between atoms: C_10  and  C_11
REMARK    4  A    between atoms: C_11  and  N_12
REMARK                            x       y       z     vdW  Elec       q    Type
REMARK                         _______ _______ _______ _____ _____    ______ ____
ROOT
ATOM      1  N   UNL A   1      41.883 -19.957 -36.193  0.00  0.00    -0.349 N 
ATOM      2  C   UNL A   1      41.417 -19.030 -37.061  0.00  0.00    +0.005 A 
ATOM      3  C   UNL A   1      41.783 -19.066 -38.404  0.00  0.00    -0.041 A 
ATOM      4  C   UNL A   1      42.644 -20.062 -38.869  0.00  0.00    -0.025 A 
ATOM      5  C   UNL A   1      43.080 -21.027 -37.956  0.00  0.00    -0.041 A 
ATOM      6  C   UNL A   1      42.698 -20.948 -36.621  0.00  0.00    +0.005 A 
ENDROOT
BRANCH   1   7
ATOM      7  C   UNL A   1      41.497 -19.892 -34.762  0.00  0.00    +0.048 C 
BRANCH   7  12
ATOM      8  F   UNL A   1      38.494 -24.459 -33.359  0.00  0.00    -0.205 F 
ATOM      9  C   UNL A   1      39.202 -23.373 -33.687  0.00  0.00    +0.123 A 
ATOM     10  C   UNL A   1      40.371 -23.081 -32.995  0.00  0.00    -0.026 A 
ATOM     11  C   UNL A   1      41.113 -21.948 -33.335  0.00  0.00    -0.054 A 
ATOM     12  C   UNL A   1      40.685 -21.102 -34.374  0.00  0.00    -0.028 A 
ATOM     13  C   UNL A   1      39.498 -21.415 -35.060  0.00  0.00    -0.054 A 
ATOM     14  C   UNL A   1      38.760 -22.550 -34.714  0.00  0.00    -0.026 A 
ENDBRANCH   7  12
ENDBRANCH   1   7
BRANCH   4  15
ATOM     15  C   UNL A   1      43.040 -20.087 -40.335  0.00  0.00    +0.049 C 
BRANCH  15  16
ATOM     16  N   UNL A   1      44.449 -19.766 -40.547  0.00  0.00    -0.339 N 
ATOM     17  C   UNL A   1      44.978 -18.502 -40.639  0.00  0.00    +0.023 A 
ATOM     18  C   UNL A   1      46.338 -18.621 -40.852  0.00  0.00    -0.019 A 
ATOM     19  C   UNL A   1      46.648 -20.007 -40.908  0.00  0.00    +0.003 A 
ATOM     20  C   UNL A   1      47.841 -20.730 -41.107  0.00  0.00    -0.052 A 
ATOM     21  C   UNL A   1      47.811 -22.129 -41.090  0.00  0.00    -0.061 A 
ATOM     22  C   UNL A   1      46.616 -22.808 -40.876  0.00  0.00    -0.060 A 
ATOM     23  C   UNL A   1      45.420 -22.112 -40.675  0.00  0.00    -0.038 A 
ATOM     24  C   UNL A   1      45.456 -20.707 -40.700  0.00  0.00    +0.050 A 
ATOM     25  C   UNL A   1      47.242 -17.441 -40.997  0.00  0.00    -0.025 C 
ATOM     26  C   UNL A   1      46.570 -16.160 -40.472  0.00  0.00    -0.049 C 
ATOM     27  C   UNL A   1      45.116 -16.036 -40.957  0.00  0.00    -0.047 C 
ATOM     28  C   UNL A   1      44.241 -17.211 -40.483  0.00  0.00    -0.012 C 
ENDBRANCH  15  16
ENDBRANCH   4  15
TORSDOF 4
ENDMDL
MODEL 18
REMARK VINA RESULT:    -7.638      3.783      4.737
REMARK INTER + INTRA:          -9.785
REMARK INTER:                  -8.974
REMARK INTRA:                  -0.811
REMARK UNBOUND:                -0.361
REMARK  Name = cpd361.pdb
REMARK  4 active torsions:
REMARK  status: ('A' for Active; 'I' for Inactive)
REMARK    1  A    between atoms: C_5  and  C_6
REMARK    2  A    between atoms: C_6  and  N_7
REMARK    3  A    between atoms: C_10  and  C_11
REMARK    4  A    between atoms: C_11  and  N_12
REMARK                            x       y       z     vdW  Elec       q    Type
REMARK                         _______ _______ _______ _____ _____    ______ ____
ROOT
ATOM      1  N   UNL A   1      37.315 -36.962 -30.333  0.00  0.00    -0.349 N 
ATOM      2  C   UNL A   1      37.352 -36.864 -28.985  0.00  0.00    +0.005 A 
ATOM      3  C   UNL A   1      36.681 -37.785 -28.186  0.00  0.00    -0.041 A 
ATOM      4  C   UNL A   1      35.955 -38.824 -28.772  0.00  0.00    -0.025 A 
ATOM      5  C   UNL A   1      35.966 -38.920 -30.167  0.00  0.00    -0.041 A 
ATOM      6  C   UNL A   1      36.640 -37.972 -30.928  0.00  0.00    +0.005 A 
ENDROOT
BRANCH   1   7
ATOM      7  C   UNL A   1      38.020 -35.959 -31.169  0.00  0.00    +0.048 C 
BRANCH   7  12
ATOM      8  F   UNL A   1      43.333 -37.556 -32.206  0.00  0.00    -0.205 F 
ATOM      9  C   UNL A   1      42.071 -37.182 -31.963  0.00  0.00    +0.123 A 
ATOM     10  C   UNL A   1      41.470 -37.541 -30.763  0.00  0.00    -0.026 A 
ATOM     11  C   UNL A   1      40.153 -37.154 -30.507  0.00  0.00    -0.054 A 
ATOM     12  C   UNL A   1      39.434 -36.403 -31.453  0.00  0.00    -0.028 A 
ATOM     13  C   UNL A   1      40.062 -36.053 -32.662  0.00  0.00    -0.054 A 
ATOM     14  C   UNL A   1      41.379 -36.444 -32.913  0.00  0.00    -0.026 A 
ENDBRANCH   7  12
ENDBRANCH   1   7
BRANCH   4  15
ATOM     15  C   UNL A   1      35.223 -39.819 -27.890  0.00  0.00    +0.049 C 
BRANCH  15  16
ATOM     16  N   UNL A   1      33.842 -39.429 -27.618  0.00  0.00    -0.339 N 
ATOM     17  C   UNL A   1      32.737 -39.855 -28.314  0.00  0.00    +0.023 A 
ATOM     18  C   UNL A   1      31.624 -39.253 -27.761  0.00  0.00    -0.019 A 
ATOM     19  C   UNL A   1      32.065 -38.418 -26.699  0.00  0.00    +0.003 A 
ATOM     20  C   UNL A   1      31.406 -37.564 -25.792  0.00  0.00    -0.052 A 
ATOM     21  C   UNL A   1      32.148 -36.874 -24.828  0.00  0.00    -0.061 A 
ATOM     22  C   UNL A   1      33.529 -37.026 -24.757  0.00  0.00    -0.060 A 
ATOM     23  C   UNL A   1      34.206 -37.867 -25.645  0.00  0.00    -0.038 A 
ATOM     24  C   UNL A   1      33.455 -38.553 -26.615  0.00  0.00    +0.050 A 
ATOM     25  C   UNL A   1      30.239 -39.492 -28.265  0.00  0.00    -0.025 C 
ATOM     26  C   UNL A   1      30.178 -40.754 -29.142  0.00  0.00    -0.049 C 
ATOM     27  C   UNL A   1      31.345 -40.813 -30.142  0.00  0.00    -0.047 C 
ATOM     28  C   UNL A   1      32.714 -40.838 -29.439  0.00  0.00    -0.012 C 
ENDBRANCH  15  16
ENDBRANCH   4  15
TORSDOF 4
ENDMDL
MODEL 19
REMARK VINA RESULT:    -7.340     16.742     19.433
REMARK INTER + INTRA:          -9.418
REMARK INTER:                  -8.403
REMARK INTRA:                  -1.015
REMARK UNBOUND:                -0.361
REMARK  Name = cpd361.pdb
REMARK  4 active torsions:
REMARK  status: ('A' for Active; 'I' for Inactive)
REMARK    1  A    between atoms: C_5  and  C_6
REMARK    2  A    between atoms: C_6  and  N_7
REMARK    3  A    between atoms: C_10  and  C_11
REMARK    4  A    between atoms: C_11  and  N_12
REMARK                            x       y       z     vdW  Elec       q    Type
REMARK                         _______ _______ _______ _____ _____    ______ ____
ROOT
ATOM      1  N   UNL A   1      41.148 -21.611 -35.839  0.00  0.00    -0.349 N 
ATOM      2  C   UNL A   1      41.895 -20.978 -34.905  0.00  0.00    +0.005 A 
ATOM      3  C   UNL A   1      42.994 -20.209 -35.275  0.00  0.00    -0.041 A 
ATOM      4  C   UNL A   1      43.341 -20.086 -36.622  0.00  0.00    -0.025 A 
ATOM      5  C   UNL A   1      42.530 -20.722 -37.566  0.00  0.00    -0.041 A 
ATOM      6  C   UNL A   1      41.447 -21.490 -37.152  0.00  0.00    +0.005 A 
ENDROOT
BRANCH   1   7
ATOM      7  C   UNL A   1      39.992 -22.442 -35.424  0.00  0.00    +0.048 C 
BRANCH   7  12
ATOM      8  F   UNL A   1      36.252 -19.425 -32.464  0.00  0.00    -0.205 F 
ATOM      9  C   UNL A   1      37.143 -20.135 -33.164  0.00  0.00    +0.123 A 
ATOM     10  C   UNL A   1      37.821 -21.181 -32.549  0.00  0.00    -0.026 A 
ATOM     11  C   UNL A   1      38.752 -21.925 -33.277  0.00  0.00    -0.054 A 
ATOM     12  C   UNL A   1      39.006 -21.624 -34.627  0.00  0.00    -0.028 A 
ATOM     13  C   UNL A   1      38.310 -20.560 -35.228  0.00  0.00    -0.054 A 
ATOM     14  C   UNL A   1      37.381 -19.819 -34.495  0.00  0.00    -0.026 A 
ENDBRANCH   7  12
ENDBRANCH   1   7
BRANCH   4  15
ATOM     15  C   UNL A   1      44.546 -19.248 -37.013  0.00  0.00    +0.049 C 
BRANCH  15  16
ATOM     16  N   UNL A   1      44.752 -19.188 -38.458  0.00  0.00    -0.339 N 
ATOM     17  C   UNL A   1      45.539 -20.042 -39.191  0.00  0.00    +0.023 A 
ATOM     18  C   UNL A   1      45.481 -19.648 -40.514  0.00  0.00    -0.019 A 
ATOM     19  C   UNL A   1      44.640 -18.505 -40.590  0.00  0.00    +0.003 A 
ATOM     20  C   UNL A   1      44.219 -17.673 -41.646  0.00  0.00    -0.052 A 
ATOM     21  C   UNL A   1      43.352 -16.607 -41.384  0.00  0.00    -0.061 A 
ATOM     22  C   UNL A   1      42.902 -16.365 -40.090  0.00  0.00    -0.060 A 
ATOM     23  C   UNL A   1      43.305 -17.175 -39.025  0.00  0.00    -0.038 A 
ATOM     24  C   UNL A   1      44.181 -18.241 -39.295  0.00  0.00    +0.050 A 
ATOM     25  C   UNL A   1      46.216 -20.357 -41.604  0.00  0.00    -0.025 C 
ATOM     26  C   UNL A   1      46.664 -21.757 -41.149  0.00  0.00    -0.049 C 
ATOM     27  C   UNL A   1      47.283 -21.731 -39.742  0.00  0.00    -0.047 C 
ATOM     28  C   UNL A   1      46.290 -21.227 -38.679  0.00  0.00    -0.012 C 
ENDBRANCH  15  16
ENDBRANCH   4  15
TORSDOF 4
ENDMDL
MODEL 20
REMARK VINA RESULT:    -7.287     16.330     19.290
REMARK INTER + INTRA:          -9.352
REMARK INTER:                  -8.160
REMARK INTRA:                  -1.192
REMARK UNBOUND:                -0.361
REMARK  Name = cpd361.pdb
REMARK  4 active torsions:
REMARK  status: ('A' for Active; 'I' for Inactive)
REMARK    1  A    between atoms: C_5  and  C_6
REMARK    2  A    between atoms: C_6  and  N_7
REMARK    3  A    between atoms: C_10  and  C_11
REMARK    4  A    between atoms: C_11  and  N_12
REMARK                            x       y       z     vdW  Elec       q    Type
REMARK                         _______ _______ _______ _____ _____    ______ ____
ROOT
ATOM      1  N   UNL A   1      39.899 -20.156 -37.206  0.00  0.00    -0.349 N 
ATOM      2  C   UNL A   1      40.137 -18.843 -37.426  0.00  0.00    +0.005 A 
ATOM      3  C   UNL A   1      41.196 -18.438 -38.234  0.00  0.00    -0.041 A 
ATOM      4  C   UNL A   1      42.031 -19.390 -38.824  0.00  0.00    -0.025 A 
ATOM      5  C   UNL A   1      41.738 -20.739 -38.606  0.00  0.00    -0.041 A 
ATOM      6  C   UNL A   1      40.677 -21.100 -37.783  0.00  0.00    +0.005 A 
ENDROOT
BRANCH   1   7
ATOM      7  C   UNL A   1      38.778 -20.567 -36.326  0.00  0.00    +0.048 C 
BRANCH   7  12
ATOM      8  F   UNL A   1      40.791 -22.810 -31.555  0.00  0.00    -0.205 F 
ATOM      9  C   UNL A   1      40.308 -22.277 -32.683  0.00  0.00    +0.123 A 
ATOM     10  C   UNL A   1      40.514 -20.929 -32.947  0.00  0.00    -0.026 A 
ATOM     11  C   UNL A   1      40.011 -20.369 -34.123  0.00  0.00    -0.054 A 
ATOM     12  C   UNL A   1      39.299 -21.162 -35.041  0.00  0.00    -0.028 A 
ATOM     13  C   UNL A   1      39.101 -22.523 -34.752  0.00  0.00    -0.054 A 
ATOM     14  C   UNL A   1      39.605 -23.077 -33.574  0.00  0.00    -0.026 A 
ENDBRANCH   7  12
ENDBRANCH   1   7
BRANCH   4  15
ATOM     15  C   UNL A   1      43.186 -18.935 -39.699  0.00  0.00    +0.049 C 
BRANCH  15  16
ATOM     16  N   UNL A   1      44.481 -19.416 -39.224  0.00  0.00    -0.339 N 
ATOM     17  C   UNL A   1      45.178 -18.915 -38.152  0.00  0.00    +0.023 A 
ATOM     18  C   UNL A   1      46.356 -19.627 -38.036  0.00  0.00    -0.019 A 
ATOM     19  C   UNL A   1      46.387 -20.588 -39.083  0.00  0.00    +0.003 A 
ATOM     20  C   UNL A   1      47.316 -21.571 -39.476  0.00  0.00    -0.052 A 
ATOM     21  C   UNL A   1      47.034 -22.390 -40.574  0.00  0.00    -0.061 A 
ATOM     22  C   UNL A   1      45.843 -22.242 -41.278  0.00  0.00    -0.060 A 
ATOM     23  C   UNL A   1      44.905 -21.274 -40.908  0.00  0.00    -0.038 A 
ATOM     24  C   UNL A   1      45.198 -20.451 -39.806  0.00  0.00    +0.050 A 
ATOM     25  C   UNL A   1      47.365 -19.356 -36.969  0.00  0.00    -0.025 C 
ATOM     26  C   UNL A   1      46.755 -18.526 -35.827  0.00  0.00    -0.049 C 
ATOM     27  C   UNL A   1      45.914 -17.353 -36.358  0.00  0.00    -0.047 C 
ATOM     28  C   UNL A   1      44.735 -17.828 -37.227  0.00  0.00    -0.012 C 
ENDBRANCH  15  16
ENDBRANCH   4  15
TORSDOF 4
ENDMDL
