@<TRIPOS>MOLECULE
*****
 28 32 0 0 0
SMALL
GASTEIGER

@<TRIPOS>ATOM
      1 F          -8.7154    1.3799    0.0000 F       1  UNL1       -0.2042
      2 C          -7.8493    1.8799    0.0000 C.ar    1  UNL1        0.1401
      3 C          -7.8493    2.8799    0.0000 C.ar    1  UNL1        0.0295
      4 C          -6.9833    3.3799    0.0000 C.ar    1  UNL1        0.0048
      5 C          -6.1173    2.8799    0.0000 C.ar    1  UNL1        0.0557
      6 C          -5.2513    3.3799    0.0000 C.3     1  UNL1        0.3502
      7 N          -4.3852    2.8799    0.0000 N.ar    1  UNL1       -0.1555
      8 C          -3.5192    3.3799    0.0000 C.ar    1  UNL1        0.2901
      9 C          -2.6532    2.8799    0.0000 C.ar    1  UNL1        0.0735
     10 C          -2.6532    1.8799    0.0000 C.ar    1  UNL1        0.0126
     11 C          -1.7872    1.3799    0.0000 C.3     1  UNL1        0.1328
     12 N          -1.7872    0.3799    0.0000 N.ar    1  UNL1       -0.3268
     13 C          -0.9781   -0.2079    0.0000 C.ar    1  UNL1        0.0334
     14 C          -1.2872   -1.1590    0.0000 C.ar    1  UNL1       -0.0091
     15 C          -2.2872   -1.1590    0.0000 C.ar    1  UNL1        0.0129
     16 C          -2.9563   -1.9021    0.0000 C.ar    1  UNL1        0.0012
     17 C          -3.9344   -1.6942    0.0000 C.ar    1  UNL1        0.0001
     18 C          -4.2435   -0.7431    0.0000 C.ar    1  UNL1        0.0015
     19 C          -3.5743   -0.0000    0.0000 C.ar    1  UNL1        0.0172
     20 C          -2.5962   -0.2079    0.0000 C.ar    1  UNL1        0.0596
     21 C          -0.6180   -1.9021    0.0000 C.3     1  UNL1        0.0275
     22 C           0.3601   -1.6942    0.0000 C.3     1  UNL1        0.0051
     23 C           0.6691   -0.7431    0.0000 C.3     1  UNL1        0.0066
     24 C           0.0000   -0.0000    0.0000 C.3     1  UNL1        0.0435
     25 C          -3.5192    1.3799    0.0000 C.ar    1  UNL1        0.0735
     26 C          -4.3852    1.8799    0.0000 C.ar    1  UNL1        0.2901
     27 C          -6.1173    1.8799    0.0000 C.ar    1  UNL1        0.0048
     28 C          -6.9833    1.3799    0.0000 C.ar    1  UNL1        0.0295
@<TRIPOS>UNITY_ATOM_ATTR
7 1
charge 1
@<TRIPOS>BOND
     1     1     2    1
     2     2     3   ar
     3     3     4   ar
     4     4     5   ar
     5     5     6    1
     6     6     7    1
     7     7     8   ar
     8     8     9   ar
     9     9    10   ar
    10    10    11    1
    11    11    12    1
    12    12    13   ar
    13    13    14   ar
    14    14    15   ar
    15    15    16   ar
    16    16    17   ar
    17    17    18   ar
    18    18    19   ar
    19    19    20   ar
    20    15    20   ar
    21    12    20   ar
    22    14    21    1
    23    21    22    1
    24    22    23    1
    25    23    24    1
    26    13    24    1
    27    10    25   ar
    28    25    26   ar
    29     7    26   ar
    30     5    27   ar
    31    27    28   ar
    32     2    28   ar
