REMARK  Name = cpd361.pdb
REMARK  4 active torsions:
REMARK  status: ('A' for Active; 'I' for Inactive)
REMARK    1  A    between atoms: C_5  and  C_6
REMARK    2  A    between atoms: C_6  and  N_7
REMARK    3  A    between atoms: C_10  and  C_11
REMARK    4  A    between atoms: C_11  and  N_12
REMARK                            x       y       z     vdW  Elec       q    Type
REMARK                         _______ _______ _______ _____ _____    ______ ____
ROOT
ATOM      1  N   UNL A   1      -4.425   3.757  -0.439  0.00  0.00    -0.349 N 
ATOM      2  C   UNL A   1      -4.075   4.013   0.842  0.00  0.00    +0.005 A 
ATOM      3  C   UNL A   1      -3.105   3.246   1.481  0.00  0.00    -0.041 A 
ATOM      4  C   UNL A   1      -2.484   2.195   0.803  0.00  0.00    -0.025 A 
ATOM      5  C   UNL A   1      -2.841   1.978  -0.531  0.00  0.00    -0.041 A 
ATOM      6  C   UNL A   1      -3.823   2.761  -1.128  0.00  0.00    +0.005 A 
ENDROOT
BRANCH   1   7
ATOM      7  C   UNL A   1      -5.475   4.573  -1.097  0.00  0.00    +0.048 C 
BRANCH   7  12
ATOM      8  F   UNL A   1     -10.428   1.878  -0.875  0.00  0.00    -0.205 F 
ATOM      9  C   UNL A   1      -9.257   2.522  -0.930  0.00  0.00    +0.123 A 
ATOM     10  C   UNL A   1      -8.799   3.208   0.188  0.00  0.00    -0.026 A 
ATOM     11  C   UNL A   1      -7.577   3.882   0.134  0.00  0.00    -0.054 A 
ATOM     12  C   UNL A   1      -6.808   3.869  -1.043  0.00  0.00    -0.028 A 
ATOM     13  C   UNL A   1      -7.292   3.170  -2.163  0.00  0.00    -0.054 A 
ATOM     14  C   UNL A   1      -8.515   2.499  -2.103  0.00  0.00    -0.026 A 
ENDBRANCH   7  12
ENDBRANCH   1   7
BRANCH   4  15
ATOM     15  C   UNL A   1      -1.431   1.362   1.513  0.00  0.00    +0.049 C 
BRANCH  15  16
ATOM     16  N   UNL A   1      -1.416  -0.030   1.071  0.00  0.00    -0.339 N 
ATOM     17  C   UNL A   1      -0.451  -0.611   0.285  0.00  0.00    +0.023 A 
ATOM     18  C   UNL A   1      -0.803  -1.931   0.080  0.00  0.00    -0.019 A 
ATOM     19  C   UNL A   1      -2.034  -2.161   0.752  0.00  0.00    +0.003 A 
ATOM     20  C   UNL A   1      -2.872  -3.285   0.892  0.00  0.00    -0.052 A 
ATOM     21  C   UNL A   1      -4.041  -3.185   1.654  0.00  0.00    -0.061 A 
ATOM     22  C   UNL A   1      -4.379  -1.987   2.275  0.00  0.00    -0.060 A 
ATOM     23  C   UNL A   1      -3.564  -0.858   2.151  0.00  0.00    -0.038 A 
ATOM     24  C   UNL A   1      -2.394  -0.964   1.379  0.00  0.00    +0.050 A 
ATOM     25  C   UNL A   1       0.025  -2.874  -0.730  0.00  0.00    -0.025 C 
ATOM     26  C   UNL A   1       1.451  -2.331  -0.926  0.00  0.00    -0.049 C 
ATOM     27  C   UNL A   1       1.449  -0.841  -1.307  0.00  0.00    -0.047 C 
ATOM     28  C   UNL A   1       0.796   0.036  -0.224  0.00  0.00    -0.012 C 
ENDBRANCH  15  16
ENDBRANCH   4  15
TORSDOF 4
