MODEL 1
REMARK VINA RESULT:    -6.529      0.000      0.000
REMARK INTER + INTRA:         -20.553
REMARK INTER:                 -13.781
REMARK INTRA:                  -6.772
REMARK UNBOUND:                -6.772
REMARK  Name = cpd54.pdb
REMARK  21 active torsions:
REMARK  status: ('A' for Active; 'I' for Inactive)
REMARK    1  A    between atoms: C_1  and  C_2
REMARK    2  A    between atoms: C_6  and  N_7
REMARK    3  A    between atoms: N_7  and  C_8
REMARK    4  A    between atoms: C_13  and  C_14
REMARK    5  A    between atoms: N_16  and  C_17
REMARK    6  A    between atoms: C_17  and  C_18
REMARK    7  A    between atoms: C_18  and  C_19
REMARK    8  A    between atoms: C_19  and  C_20
REMARK    9  A    between atoms: C_20  and  C_21
REMARK   10  A    between atoms: C_21  and  C_22
REMARK   11  A    between atoms: N_24  and  C_25
REMARK   12  A    between atoms: C_25  and  C_26
REMARK   13  A    between atoms: C_26  and  C_27
REMARK   14  A    between atoms: C_27  and  C_28
REMARK   15  A    between atoms: C_28  and  C_29
REMARK   16  A    between atoms: C_29  and  C_30
REMARK   17  A    between atoms: C_30  and  C_31
REMARK   18  A    between atoms: C_31  and  C_32
REMARK   19  A    between atoms: C_32  and  N_33
REMARK   20  A    between atoms: N_33  and  C_34
REMARK   21  A    between atoms: C_49  and  C_50
REMARK                            x       y       z     vdW  Elec       q    Type
REMARK                         _______ _______ _______ _____ _____    ______ ____
ROOT
ATOM      1  C   UNL A   1      44.763 -17.380 -33.447  0.00  0.00    +0.213 C 
ATOM      2  O   UNL A   1      44.995 -16.175 -33.477  0.00  0.00    -0.276 OA
ATOM      3  N   UNL A   1      45.642 -18.340 -33.893  0.00  0.00    -0.315 N 
ATOM      4  H   UNL A   1      45.406 -19.290 -33.780  0.00  0.00    +0.000 HD
ENDROOT
BRANCH   1   5
ATOM      5  C   UNL A   1      43.461 -17.928 -32.904  0.00  0.00    +0.024 C 
BRANCH   5   6
ATOM      6  C   UNL A   1      42.255 -17.127 -33.385  0.00  0.00    -0.045 C 
BRANCH   6   7
ATOM      7  C   UNL A   1      41.013 -17.973 -33.683  0.00  0.00    -0.051 C 
BRANCH   7   8
ATOM      8  C   UNL A   1      40.923 -19.284 -32.896  0.00  0.00    -0.037 C 
BRANCH   8   9
ATOM      9  C   UNL A   1      39.607 -19.429 -32.128  0.00  0.00    +0.012 C 
BRANCH   9  12
ATOM     10  C   UNL A   1      37.944 -19.679 -34.026  0.00  0.00    +0.246 C 
ATOM     11  O   UNL A   1      37.300 -19.052 -34.866  0.00  0.00    -0.270 OA
ATOM     12  N   UNL A   1      38.468 -19.025 -32.937  0.00  0.00    -0.311 N 
ATOM     13  H   UNL A   1      38.021 -18.188 -32.675  0.00  0.00    +0.000 HD
BRANCH  10  19
ATOM     14  C   UNL A   1      39.062 -21.547 -35.256  0.00  0.00    +0.044 A 
ATOM     15  C   UNL A   1      39.332 -22.923 -35.355  0.00  0.00    -0.040 A 
ATOM     16  C   UNL A   1      38.674 -23.850 -34.541  0.00  0.00    -0.060 A 
ATOM     17  C   UNL A   1      37.747 -23.420 -33.597  0.00  0.00    -0.061 A 
ATOM     18  C   UNL A   1      37.503 -22.057 -33.439  0.00  0.00    -0.048 A 
ATOM     19  C   UNL A   1      38.192 -21.124 -34.228  0.00  0.00    +0.058 A 
BRANCH  14  20
ATOM     20  N   UNL A   1      39.764 -20.606 -36.062  0.00  0.00    -0.314 N 
ATOM     21  H   UNL A   1      39.760 -19.672 -35.751  0.00  0.00    +0.000 HD
BRANCH  20  27
ATOM     22  C   UNL A   1      44.098 -20.957 -38.536  0.00  0.00    -0.039 C 
ATOM     23  C   UNL A   1      42.593 -20.974 -38.483  0.00  0.00    -0.046 A 
ATOM     24  C   UNL A   1      41.880 -21.104 -39.684  0.00  0.00    -0.058 A 
ATOM     25  C   UNL A   1      40.489 -21.089 -39.690  0.00  0.00    -0.060 A 
ATOM     26  C   UNL A   1      39.793 -20.953 -38.492  0.00  0.00    -0.040 A 
ATOM     27  C   UNL A   1      40.472 -20.872 -37.268  0.00  0.00    +0.035 A 
ATOM     28  C   UNL A   1      41.888 -20.870 -37.259  0.00  0.00    -0.026 A 
ATOM     29  C   UNL A   1      42.630 -20.698 -35.956  0.00  0.00    -0.038 C 
ENDBRANCH  20  27
ENDBRANCH  14  20
ENDBRANCH  10  19
ENDBRANCH   9  12
ENDBRANCH   8   9
ENDBRANCH   7   8
ENDBRANCH   6   7
ENDBRANCH   5   6
ENDBRANCH   1   5
BRANCH   3  30
ATOM     30  C   UNL A   1      46.902 -18.001 -34.525  0.00  0.00    +0.012 C 
BRANCH  30  31
ATOM     31  C   UNL A   1      46.869 -18.211 -36.041  0.00  0.00    -0.037 C 
BRANCH  31  32
ATOM     32  C   UNL A   1      46.038 -17.155 -36.774  0.00  0.00    -0.052 C 
BRANCH  32  33
ATOM     33  C   UNL A   1      44.739 -17.744 -37.331  0.00  0.00    -0.053 C 
BRANCH  33  34
ATOM     34  C   UNL A   1      43.593 -16.736 -37.227  0.00  0.00    -0.053 C 
BRANCH  34  35
ATOM     35  C   UNL A   1      42.272 -17.331 -37.718  0.00  0.00    -0.052 C 
BRANCH  35  36
ATOM     36  C   UNL A   1      42.253 -17.444 -39.243  0.00  0.00    -0.037 C 
BRANCH  36  37
ATOM     37  C   UNL A   1      42.532 -16.096 -39.910  0.00  0.00    +0.009 C 
BRANCH  37  38
ATOM     38  N   UNL A   1      43.258 -16.333 -41.165  0.00  0.00    -0.343 N 
ATOM     39  H   UNL A   1      42.855 -16.239 -42.058  0.00  0.00    +0.000 HD
BRANCH  38  40
ATOM     40  C   UNL A   1      44.614 -16.714 -40.938  0.00  0.00    +0.041 A 
ATOM     41  C   UNL A   1      45.520 -15.824 -40.329  0.00  0.00    -0.005 A 
ATOM     42  C   UNL A   1      46.818 -16.286 -40.092  0.00  0.00    +0.047 A 
ATOM     43  N   UNL A   1      47.219 -17.550 -40.369  0.00  0.00    -0.251 NA
ATOM     44  C   UNL A   1      46.354 -18.399 -40.936  0.00  0.00    +0.074 A 
ATOM     45  C   UNL A   1      46.794 -19.684 -41.223  0.00  0.00    -0.017 A 
ATOM     46  C   UNL A   1      45.957 -20.617 -41.829  0.00  0.00    +0.043 A 
ATOM     47 CL   UNL A   1      46.542 -22.198 -42.170  0.00  0.00    -0.083 Cl
ATOM     48  C   UNL A   1      44.656 -20.276 -42.165  0.00  0.00    -0.043 A 
ATOM     49  C   UNL A   1      44.197 -18.992 -41.881  0.00  0.00    -0.049 A 
ATOM     50  C   UNL A   1      45.031 -18.037 -41.251  0.00  0.00    +0.022 A 
ATOM     51  C   UNL A   1      47.866 -15.417 -39.444  0.00  0.00    -0.010 C 
ATOM     52  C   UNL A   1      47.560 -13.928 -39.545  0.00  0.00    -0.047 C 
ATOM     53  C   UNL A   1      46.129 -13.669 -39.100  0.00  0.00    -0.049 C 
ATOM     54  C   UNL A   1      45.144 -14.394 -40.016  0.00  0.00    -0.024 C 
ENDBRANCH  38  40
ENDBRANCH  37  38
ENDBRANCH  36  37
ENDBRANCH  35  36
ENDBRANCH  34  35
ENDBRANCH  33  34
ENDBRANCH  32  33
ENDBRANCH  31  32
ENDBRANCH  30  31
ENDBRANCH   3  30
TORSDOF 19
ENDMDL
MODEL 2
REMARK VINA RESULT:    -6.292      2.138      3.516
REMARK INTER + INTRA:         -20.054
REMARK INTER:                 -13.857
REMARK INTRA:                  -6.196
REMARK UNBOUND:                -6.772
REMARK  Name = cpd54.pdb
REMARK  21 active torsions:
REMARK  status: ('A' for Active; 'I' for Inactive)
REMARK    1  A    between atoms: C_1  and  C_2
REMARK    2  A    between atoms: C_6  and  N_7
REMARK    3  A    between atoms: N_7  and  C_8
REMARK    4  A    between atoms: C_13  and  C_14
REMARK    5  A    between atoms: N_16  and  C_17
REMARK    6  A    between atoms: C_17  and  C_18
REMARK    7  A    between atoms: C_18  and  C_19
REMARK    8  A    between atoms: C_19  and  C_20
REMARK    9  A    between atoms: C_20  and  C_21
REMARK   10  A    between atoms: C_21  and  C_22
REMARK   11  A    between atoms: N_24  and  C_25
REMARK   12  A    between atoms: C_25  and  C_26
REMARK   13  A    between atoms: C_26  and  C_27
REMARK   14  A    between atoms: C_27  and  C_28
REMARK   15  A    between atoms: C_28  and  C_29
REMARK   16  A    between atoms: C_29  and  C_30
REMARK   17  A    between atoms: C_30  and  C_31
REMARK   18  A    between atoms: C_31  and  C_32
REMARK   19  A    between atoms: C_32  and  N_33
REMARK   20  A    between atoms: N_33  and  C_34
REMARK   21  A    between atoms: C_49  and  C_50
REMARK                            x       y       z     vdW  Elec       q    Type
REMARK                         _______ _______ _______ _____ _____    ______ ____
ROOT
ATOM      1  C   UNL A   1      41.193 -15.796 -33.026  0.00  0.00    +0.213 C 
ATOM      2  O   UNL A   1      41.645 -15.775 -31.886  0.00  0.00    -0.276 OA
ATOM      3  N   UNL A   1      41.602 -14.947 -34.028  0.00  0.00    -0.315 N 
ATOM      4  H   UNL A   1      41.234 -15.067 -34.933  0.00  0.00    +0.000 HD
ENDROOT
BRANCH   1   5
ATOM      5  C   UNL A   1      40.121 -16.782 -33.441  0.00  0.00    +0.024 C 
BRANCH   5   6
ATOM      6  C   UNL A   1      40.712 -18.105 -33.917  0.00  0.00    -0.045 C 
BRANCH   6   7
ATOM      7  C   UNL A   1      41.147 -19.045 -32.787  0.00  0.00    -0.051 C 
BRANCH   7   8
ATOM      8  C   UNL A   1      41.928 -20.282 -33.243  0.00  0.00    -0.037 C 
BRANCH   8   9
ATOM      9  C   UNL A   1      41.308 -21.592 -32.751  0.00  0.00    +0.012 C 
BRANCH   9  12
ATOM     10  C   UNL A   1      39.640 -22.551 -34.403  0.00  0.00    +0.246 C 
ATOM     11  O   UNL A   1      39.321 -23.574 -35.004  0.00  0.00    -0.270 OA
ATOM     12  N   UNL A   1      40.897 -22.440 -33.859  0.00  0.00    -0.311 N 
ATOM     13  H   UNL A   1      41.598 -22.998 -34.266  0.00  0.00    +0.000 HD
BRANCH  10  19
ATOM     14  C   UNL A   1      38.269 -20.675 -35.329  0.00  0.00    +0.044 A 
ATOM     15  C   UNL A   1      37.259 -19.719 -35.129  0.00  0.00    -0.040 A 
ATOM     16  C   UNL A   1      36.727 -19.482 -33.859  0.00  0.00    -0.060 A 
ATOM     17  C   UNL A   1      37.180 -20.211 -32.763  0.00  0.00    -0.061 A 
ATOM     18  C   UNL A   1      38.139 -21.205 -32.944  0.00  0.00    -0.048 A 
ATOM     19  C   UNL A   1      38.644 -21.470 -34.225  0.00  0.00    +0.058 A 
BRANCH  14  20
ATOM     20  N   UNL A   1      38.778 -20.937 -36.633  0.00  0.00    -0.314 N 
ATOM     21  H   UNL A   1      38.330 -21.649 -37.145  0.00  0.00    +0.000 HD
BRANCH  20  27
ATOM     22  C   UNL A   1      43.120 -21.185 -39.106  0.00  0.00    -0.039 C 
ATOM     23  C   UNL A   1      42.022 -20.413 -38.423  0.00  0.00    -0.046 A 
ATOM     24  C   UNL A   1      42.159 -19.023 -38.290  0.00  0.00    -0.058 A 
ATOM     25  C   UNL A   1      41.188 -18.272 -37.637  0.00  0.00    -0.060 A 
ATOM     26  C   UNL A   1      40.061 -18.900 -37.116  0.00  0.00    -0.040 A 
ATOM     27  C   UNL A   1      39.865 -20.280 -37.275  0.00  0.00    +0.035 A 
ATOM     28  C   UNL A   1      40.860 -21.050 -37.924  0.00  0.00    -0.026 A 
ATOM     29  C   UNL A   1      40.700 -22.548 -38.027  0.00  0.00    -0.038 C 
ENDBRANCH  20  27
ENDBRANCH  14  20
ENDBRANCH  10  19
ENDBRANCH   9  12
ENDBRANCH   8   9
ENDBRANCH   7   8
ENDBRANCH   6   7
ENDBRANCH   5   6
ENDBRANCH   1   5
BRANCH   3  30
ATOM     30  C   UNL A   1      42.558 -13.881 -33.796  0.00  0.00    +0.012 C 
BRANCH  30  31
ATOM     31  C   UNL A   1      43.955 -14.229 -34.316  0.00  0.00    -0.037 C 
BRANCH  31  32
ATOM     32  C   UNL A   1      43.930 -14.952 -35.665  0.00  0.00    -0.052 C 
BRANCH  32  33
ATOM     33  C   UNL A   1      44.882 -16.151 -35.682  0.00  0.00    -0.053 C 
BRANCH  33  34
ATOM     34  C   UNL A   1      44.373 -17.265 -34.764  0.00  0.00    -0.053 C 
BRANCH  34  35
ATOM     35  C   UNL A   1      44.539 -18.644 -35.405  0.00  0.00    -0.052 C 
BRANCH  35  36
ATOM     36  C   UNL A   1      45.997 -18.897 -35.792  0.00  0.00    -0.037 C 
BRANCH  36  37
ATOM     37  C   UNL A   1      46.110 -19.936 -36.909  0.00  0.00    +0.009 C 
BRANCH  37  38
ATOM     38  N   UNL A   1      46.951 -19.386 -37.981  0.00  0.00    -0.343 N 
ATOM     39  H   UNL A   1      47.829 -18.968 -37.830  0.00  0.00    +0.000 HD
BRANCH  38  40
ATOM     40  C   UNL A   1      46.346 -19.528 -39.265  0.00  0.00    +0.041 A 
ATOM     41  C   UNL A   1      45.533 -18.506 -39.796  0.00  0.00    -0.005 A 
ATOM     42  C   UNL A   1      45.018 -18.693 -41.082  0.00  0.00    +0.047 A 
ATOM     43  N   UNL A   1      45.306 -19.773 -41.848  0.00  0.00    -0.251 NA
ATOM     44  C   UNL A   1      46.088 -20.738 -41.348  0.00  0.00    +0.074 A 
ATOM     45  C   UNL A   1      46.356 -21.840 -42.147  0.00  0.00    -0.017 A 
ATOM     46  C   UNL A   1      47.146 -22.891 -41.690  0.00  0.00    +0.043 A 
ATOM     47 CL   UNL A   1      47.452 -24.241 -42.711  0.00  0.00    -0.083 Cl
ATOM     48  C   UNL A   1      47.683 -22.859 -40.412  0.00  0.00    -0.043 A 
ATOM     49  C   UNL A   1      47.427 -21.758 -39.598  0.00  0.00    -0.049 A 
ATOM     50  C   UNL A   1      46.638 -20.674 -40.054  0.00  0.00    +0.022 A 
ATOM     51  C   UNL A   1      44.140 -17.663 -41.745  0.00  0.00    -0.010 C 
ATOM     52  C   UNL A   1      43.481 -16.708 -40.758  0.00  0.00    -0.047 C 
ATOM     53  C   UNL A   1      44.528 -16.158 -39.802  0.00  0.00    -0.049 C 
ATOM     54  C   UNL A   1      45.156 -17.288 -38.987  0.00  0.00    -0.024 C 
ENDBRANCH  38  40
ENDBRANCH  37  38
ENDBRANCH  36  37
ENDBRANCH  35  36
ENDBRANCH  34  35
ENDBRANCH  33  34
ENDBRANCH  32  33
ENDBRANCH  31  32
ENDBRANCH  30  31
ENDBRANCH   3  30
TORSDOF 19
ENDMDL
MODEL 3
REMARK VINA RESULT:    -6.164      2.639      8.379
REMARK INTER + INTRA:         -19.783
REMARK INTER:                 -12.925
REMARK INTRA:                  -6.859
REMARK UNBOUND:                -6.772
REMARK  Name = cpd54.pdb
REMARK  21 active torsions:
REMARK  status: ('A' for Active; 'I' for Inactive)
REMARK    1  A    between atoms: C_1  and  C_2
REMARK    2  A    between atoms: C_6  and  N_7
REMARK    3  A    between atoms: N_7  and  C_8
REMARK    4  A    between atoms: C_13  and  C_14
REMARK    5  A    between atoms: N_16  and  C_17
REMARK    6  A    between atoms: C_17  and  C_18
REMARK    7  A    between atoms: C_18  and  C_19
REMARK    8  A    between atoms: C_19  and  C_20
REMARK    9  A    between atoms: C_20  and  C_21
REMARK   10  A    between atoms: C_21  and  C_22
REMARK   11  A    between atoms: N_24  and  C_25
REMARK   12  A    between atoms: C_25  and  C_26
REMARK   13  A    between atoms: C_26  and  C_27
REMARK   14  A    between atoms: C_27  and  C_28
REMARK   15  A    between atoms: C_28  and  C_29
REMARK   16  A    between atoms: C_29  and  C_30
REMARK   17  A    between atoms: C_30  and  C_31
REMARK   18  A    between atoms: C_31  and  C_32
REMARK   19  A    between atoms: C_32  and  N_33
REMARK   20  A    between atoms: N_33  and  C_34
REMARK   21  A    between atoms: C_49  and  C_50
REMARK                            x       y       z     vdW  Elec       q    Type
REMARK                         _______ _______ _______ _____ _____    ______ ____
ROOT
ATOM      1  C   UNL A   1      41.031 -16.049 -39.604  0.00  0.00    +0.213 C 
ATOM      2  O   UNL A   1      40.340 -15.044 -39.471  0.00  0.00    -0.276 OA
ATOM      3  N   UNL A   1      40.519 -17.319 -39.737  0.00  0.00    -0.315 N 
ATOM      4  H   UNL A   1      41.138 -18.067 -39.900  0.00  0.00    +0.000 HD
ENDROOT
BRANCH   1   5
ATOM      5  C   UNL A   1      42.543 -15.979 -39.636  0.00  0.00    +0.024 C 
BRANCH   5   6
ATOM      6  C   UNL A   1      43.162 -17.215 -40.283  0.00  0.00    -0.045 C 
BRANCH   6   7
ATOM      7  C   UNL A   1      44.462 -16.944 -41.048  0.00  0.00    -0.051 C 
BRANCH   7   8
ATOM      8  C   UNL A   1      45.656 -17.796 -40.609  0.00  0.00    -0.037 C 
BRANCH   8   9
ATOM      9  C   UNL A   1      46.500 -17.124 -39.523  0.00  0.00    +0.012 C 
BRANCH   9  12
ATOM     10  C   UNL A   1      46.538 -18.449 -37.361  0.00  0.00    +0.246 C 
ATOM     11  O   UNL A   1      47.282 -18.922 -36.503  0.00  0.00    -0.270 OA
ATOM     12  N   UNL A   1      47.044 -18.097 -38.588  0.00  0.00    -0.311 N 
ATOM     13  H   UNL A   1      47.869 -18.556 -38.867  0.00  0.00    +0.000 HD
BRANCH  10  19
ATOM     14  C   UNL A   1      44.156 -19.210 -37.327  0.00  0.00    +0.044 A 
ATOM     15  C   UNL A   1      42.830 -18.975 -36.926  0.00  0.00    -0.040 A 
ATOM     16  C   UNL A   1      42.449 -17.752 -36.366  0.00  0.00    -0.060 A 
ATOM     17  C   UNL A   1      43.390 -16.745 -36.177  0.00  0.00    -0.061 A 
ATOM     18  C   UNL A   1      44.723 -16.973 -36.513  0.00  0.00    -0.048 A 
ATOM     19  C   UNL A   1      45.113 -18.214 -37.038  0.00  0.00    +0.058 A 
BRANCH  14  20
ATOM     20  N   UNL A   1      44.544 -20.472 -37.861  0.00  0.00    -0.314 N 
ATOM     21  H   UNL A   1      45.000 -21.089 -37.244  0.00  0.00    +0.000 HD
BRANCH  20  27
ATOM     22  C   UNL A   1      46.411 -22.327 -42.115  0.00  0.00    -0.039 C 
ATOM     23  C   UNL A   1      45.278 -21.780 -41.289  0.00  0.00    -0.046 A 
ATOM     24  C   UNL A   1      44.031 -21.586 -41.903  0.00  0.00    -0.058 A 
ATOM     25  C   UNL A   1      42.964 -21.050 -41.191  0.00  0.00    -0.060 A 
ATOM     26  C   UNL A   1      43.126 -20.709 -39.851  0.00  0.00    -0.040 A 
ATOM     27  C   UNL A   1      44.342 -20.937 -39.191  0.00  0.00    +0.035 A 
ATOM     28  C   UNL A   1      45.436 -21.466 -39.917  0.00  0.00    -0.026 A 
ATOM     29  C   UNL A   1      46.774 -21.636 -39.239  0.00  0.00    -0.038 C 
ENDBRANCH  20  27
ENDBRANCH  14  20
ENDBRANCH  10  19
ENDBRANCH   9  12
ENDBRANCH   8   9
ENDBRANCH   7   8
ENDBRANCH   6   7
ENDBRANCH   5   6
ENDBRANCH   1   5
BRANCH   3  30
ATOM     30  C   UNL A   1      39.098 -17.593 -39.645  0.00  0.00    +0.012 C 
BRANCH  30  31
ATOM     31  C   UNL A   1      38.746 -18.435 -38.415  0.00  0.00    -0.037 C 
BRANCH  31  32
ATOM     32  C   UNL A   1      39.783 -19.520 -38.115  0.00  0.00    -0.052 C 
BRANCH  32  33
ATOM     33  C   UNL A   1      39.286 -20.907 -38.533  0.00  0.00    -0.053 C 
BRANCH  33  34
ATOM     34  C   UNL A   1      40.246 -21.999 -38.055  0.00  0.00    -0.053 C 
BRANCH  34  35
ATOM     35  C   UNL A   1      39.654 -22.802 -36.896  0.00  0.00    -0.052 C 
BRANCH  35  36
ATOM     36  C   UNL A   1      40.242 -22.351 -35.558  0.00  0.00    -0.037 C 
BRANCH  36  37
ATOM     37  C   UNL A   1      39.303 -21.390 -34.826  0.00  0.00    +0.009 C 
BRANCH  37  38
ATOM     38  N   UNL A   1      39.821 -21.168 -33.469  0.00  0.00    -0.343 N 
ATOM     39  H   UNL A   1      39.994 -21.890 -32.823  0.00  0.00    +0.000 HD
BRANCH  38  40
ATOM     40  C   UNL A   1      40.043 -19.786 -33.197  0.00  0.00    +0.041 A 
ATOM     41  C   UNL A   1      38.965 -18.927 -32.902  0.00  0.00    -0.005 A 
ATOM     42  C   UNL A   1      39.265 -17.597 -32.594  0.00  0.00    +0.047 A 
ATOM     43  N   UNL A   1      40.531 -17.119 -32.518  0.00  0.00    -0.251 NA
ATOM     44  C   UNL A   1      41.555 -17.938 -32.788  0.00  0.00    +0.074 A 
ATOM     45  C   UNL A   1      42.840 -17.420 -32.717  0.00  0.00    -0.017 A 
ATOM     46  C   UNL A   1      43.954 -18.206 -33.001  0.00  0.00    +0.043 A 
ATOM     47 CL   UNL A   1      45.531 -17.525 -32.903  0.00  0.00    -0.083 Cl
ATOM     48  C   UNL A   1      43.798 -19.534 -33.367  0.00  0.00    -0.043 A 
ATOM     49  C   UNL A   1      42.515 -20.070 -33.440  0.00  0.00    -0.049 A 
ATOM     50  C   UNL A   1      41.374 -19.289 -33.139  0.00  0.00    +0.022 A 
ATOM     51  C   UNL A   1      38.190 -16.595 -32.260  0.00  0.00    -0.010 C 
ATOM     52  C   UNL A   1      36.811 -17.001 -32.766  0.00  0.00    -0.047 C 
ATOM     53  C   UNL A   1      36.518 -18.436 -32.357  0.00  0.00    -0.049 C 
ATOM     54  C   UNL A   1      37.530 -19.391 -32.990  0.00  0.00    -0.024 C 
ENDBRANCH  38  40
ENDBRANCH  37  38
ENDBRANCH  36  37
ENDBRANCH  35  36
ENDBRANCH  34  35
ENDBRANCH  33  34
ENDBRANCH  32  33
ENDBRANCH  31  32
ENDBRANCH  30  31
ENDBRANCH   3  30
TORSDOF 19
ENDMDL
MODEL 4
REMARK VINA RESULT:    -6.160      1.629      2.260
REMARK INTER + INTRA:         -19.775
REMARK INTER:                 -13.866
REMARK INTRA:                  -5.909
REMARK UNBOUND:                -6.772
REMARK  Name = cpd54.pdb
REMARK  21 active torsions:
REMARK  status: ('A' for Active; 'I' for Inactive)
REMARK    1  A    between atoms: C_1  and  C_2
REMARK    2  A    between atoms: C_6  and  N_7
REMARK    3  A    between atoms: N_7  and  C_8
REMARK    4  A    between atoms: C_13  and  C_14
REMARK    5  A    between atoms: N_16  and  C_17
REMARK    6  A    between atoms: C_17  and  C_18
REMARK    7  A    between atoms: C_18  and  C_19
REMARK    8  A    between atoms: C_19  and  C_20
REMARK    9  A    between atoms: C_20  and  C_21
REMARK   10  A    between atoms: C_21  and  C_22
REMARK   11  A    between atoms: N_24  and  C_25
REMARK   12  A    between atoms: C_25  and  C_26
REMARK   13  A    between atoms: C_26  and  C_27
REMARK   14  A    between atoms: C_27  and  C_28
REMARK   15  A    between atoms: C_28  and  C_29
REMARK   16  A    between atoms: C_29  and  C_30
REMARK   17  A    between atoms: C_30  and  C_31
REMARK   18  A    between atoms: C_31  and  C_32
REMARK   19  A    between atoms: C_32  and  N_33
REMARK   20  A    between atoms: N_33  and  C_34
REMARK   21  A    between atoms: C_49  and  C_50
REMARK                            x       y       z     vdW  Elec       q    Type
REMARK                         _______ _______ _______ _____ _____    ______ ____
ROOT
ATOM      1  C   UNL A   1      46.119 -17.553 -34.775  0.00  0.00    +0.213 C 
ATOM      2  O   UNL A   1      46.596 -16.842 -35.654  0.00  0.00    -0.276 OA
ATOM      3  N   UNL A   1      46.354 -18.904 -34.672  0.00  0.00    -0.315 N 
ATOM      4  H   UNL A   1      45.982 -19.394 -33.903  0.00  0.00    +0.000 HD
ENDROOT
BRANCH   1   5
ATOM      5  C   UNL A   1      45.208 -16.993 -33.703  0.00  0.00    +0.024 C 
BRANCH   5   6
ATOM      6  C   UNL A   1      43.947 -16.366 -34.290  0.00  0.00    -0.045 C 
BRANCH   6   7
ATOM      7  C   UNL A   1      42.678 -17.206 -34.102  0.00  0.00    -0.051 C 
BRANCH   7   8
ATOM      8  C   UNL A   1      42.886 -18.719 -34.216  0.00  0.00    -0.037 C 
BRANCH   8   9
ATOM      9  C   UNL A   1      42.740 -19.443 -32.875  0.00  0.00    +0.012 C 
BRANCH   9  12
ATOM     10  C   UNL A   1      40.830 -21.109 -32.956  0.00  0.00    +0.246 C 
ATOM     11  O   UNL A   1      40.513 -22.264 -32.676  0.00  0.00    -0.270 OA
ATOM     12  N   UNL A   1      42.158 -20.765 -33.040  0.00  0.00    -0.311 N 
ATOM     13  H   UNL A   1      42.786 -21.498 -33.235  0.00  0.00    +0.000 HD
BRANCH  10  19
ATOM     14  C   UNL A   1      38.997 -20.095 -34.323  0.00  0.00    +0.044 A 
ATOM     15  C   UNL A   1      37.953 -19.160 -34.418  0.00  0.00    -0.040 A 
ATOM     16  C   UNL A   1      37.762 -18.184 -33.435  0.00  0.00    -0.060 A 
ATOM     17  C   UNL A   1      38.601 -18.134 -32.326  0.00  0.00    -0.061 A 
ATOM     18  C   UNL A   1      39.608 -19.085 -32.178  0.00  0.00    -0.048 A 
ATOM     19  C   UNL A   1      39.775 -20.089 -33.144  0.00  0.00    +0.058 A 
BRANCH  14  20
ATOM     20  N   UNL A   1      39.161 -21.110 -35.308  0.00  0.00    -0.314 N 
ATOM     21  H   UNL A   1      39.063 -22.040 -35.001  0.00  0.00    +0.000 HD
BRANCH  20  27
ATOM     22  C   UNL A   1      42.216 -21.791 -39.210  0.00  0.00    -0.039 C 
ATOM     23  C   UNL A   1      40.984 -21.203 -38.574  0.00  0.00    -0.046 A 
ATOM     24  C   UNL A   1      40.190 -20.327 -39.330  0.00  0.00    -0.058 A 
ATOM     25  C   UNL A   1      39.063 -19.732 -38.774  0.00  0.00    -0.060 A 
ATOM     26  C   UNL A   1      38.708 -20.012 -37.458  0.00  0.00    -0.040 A 
ATOM     27  C   UNL A   1      39.450 -20.922 -36.689  0.00  0.00    +0.035 A 
ATOM     28  C   UNL A   1      40.608 -21.517 -37.245  0.00  0.00    -0.026 A 
ATOM     29  C   UNL A   1      41.461 -22.432 -36.401  0.00  0.00    -0.038 C 
ENDBRANCH  20  27
ENDBRANCH  14  20
ENDBRANCH  10  19
ENDBRANCH   9  12
ENDBRANCH   8   9
ENDBRANCH   7   8
ENDBRANCH   6   7
ENDBRANCH   5   6
ENDBRANCH   1   5
BRANCH   3  30
ATOM     30  C   UNL A   1      47.132 -19.631 -35.656  0.00  0.00    +0.012 C 
BRANCH  30  31
ATOM     31  C   UNL A   1      46.249 -20.389 -36.651  0.00  0.00    -0.037 C 
BRANCH  31  32
ATOM     32  C   UNL A   1      45.662 -19.488 -37.740  0.00  0.00    -0.052 C 
BRANCH  32  33
ATOM     33  C   UNL A   1      44.166 -19.244 -37.527  0.00  0.00    -0.053 C 
BRANCH  33  34
ATOM     34  C   UNL A   1      43.820 -17.766 -37.719  0.00  0.00    -0.053 C 
BRANCH  34  35
ATOM     35  C   UNL A   1      42.316 -17.560 -37.913  0.00  0.00    -0.052 C 
BRANCH  35  36
ATOM     36  C   UNL A   1      41.965 -17.440 -39.397  0.00  0.00    -0.037 C 
BRANCH  36  37
ATOM     37  C   UNL A   1      42.581 -16.186 -40.021  0.00  0.00    +0.009 C 
BRANCH  37  38
ATOM     38  N   UNL A   1      43.137 -16.539 -41.334  0.00  0.00    -0.343 N 
ATOM     39  H   UNL A   1      42.614 -16.545 -42.168  0.00  0.00    +0.000 HD
BRANCH  38  40
ATOM     40  C   UNL A   1      44.522 -16.870 -41.260  0.00  0.00    +0.041 A 
ATOM     41  C   UNL A   1      45.487 -15.879 -40.989  0.00  0.00    -0.005 A 
ATOM     42  C   UNL A   1      46.819 -16.288 -40.879  0.00  0.00    +0.047 A 
ATOM     43  N   UNL A   1      47.209 -17.582 -40.969  0.00  0.00    -0.251 NA
ATOM     44  C   UNL A   1      46.291 -18.525 -41.215  0.00  0.00    +0.074 A 
ATOM     45  C   UNL A   1      46.719 -19.841 -41.316  0.00  0.00    -0.017 A 
ATOM     46  C   UNL A   1      45.825 -20.873 -41.587  0.00  0.00    +0.043 A 
ATOM     47 CL   UNL A   1      46.396 -22.492 -41.707  0.00  0.00    -0.083 Cl
ATOM     48  C   UNL A   1      44.477 -20.603 -41.768  0.00  0.00    -0.043 A 
ATOM     49  C   UNL A   1      44.031 -19.288 -41.667  0.00  0.00    -0.049 A 
ATOM     50  C   UNL A   1      44.924 -18.229 -41.375  0.00  0.00    +0.022 A 
ATOM     51  C   UNL A   1      47.930 -15.311 -40.589  0.00  0.00    -0.010 C 
ATOM     52  C   UNL A   1      47.567 -13.869 -40.924  0.00  0.00    -0.047 C 
ATOM     53  C   UNL A   1      46.217 -13.527 -40.313  0.00  0.00    -0.049 C 
ATOM     54  C   UNL A   1      45.122 -14.416 -40.900  0.00  0.00    -0.024 C 
ENDBRANCH  38  40
ENDBRANCH  37  38
ENDBRANCH  36  37
ENDBRANCH  35  36
ENDBRANCH  34  35
ENDBRANCH  33  34
ENDBRANCH  32  33
ENDBRANCH  31  32
ENDBRANCH  30  31
ENDBRANCH   3  30
TORSDOF 19
ENDMDL
MODEL 5
REMARK VINA RESULT:    -6.156      2.900      8.016
REMARK INTER + INTRA:         -19.767
REMARK INTER:                 -12.817
REMARK INTRA:                  -6.950
REMARK UNBOUND:                -6.772
REMARK  Name = cpd54.pdb
REMARK  21 active torsions:
REMARK  status: ('A' for Active; 'I' for Inactive)
REMARK    1  A    between atoms: C_1  and  C_2
REMARK    2  A    between atoms: C_6  and  N_7
REMARK    3  A    between atoms: N_7  and  C_8
REMARK    4  A    between atoms: C_13  and  C_14
REMARK    5  A    between atoms: N_16  and  C_17
REMARK    6  A    between atoms: C_17  and  C_18
REMARK    7  A    between atoms: C_18  and  C_19
REMARK    8  A    between atoms: C_19  and  C_20
REMARK    9  A    between atoms: C_20  and  C_21
REMARK   10  A    between atoms: C_21  and  C_22
REMARK   11  A    between atoms: N_24  and  C_25
REMARK   12  A    between atoms: C_25  and  C_26
REMARK   13  A    between atoms: C_26  and  C_27
REMARK   14  A    between atoms: C_27  and  C_28
REMARK   15  A    between atoms: C_28  and  C_29
REMARK   16  A    between atoms: C_29  and  C_30
REMARK   17  A    between atoms: C_30  and  C_31
REMARK   18  A    between atoms: C_31  and  C_32
REMARK   19  A    between atoms: C_32  and  N_33
REMARK   20  A    between atoms: N_33  and  C_34
REMARK   21  A    between atoms: C_49  and  C_50
REMARK                            x       y       z     vdW  Elec       q    Type
REMARK                         _______ _______ _______ _____ _____    ______ ____
ROOT
ATOM      1  C   UNL A   1      43.806 -15.868 -37.856  0.00  0.00    +0.213 C 
ATOM      2  O   UNL A   1      43.265 -14.884 -38.351  0.00  0.00    -0.276 OA
ATOM      3  N   UNL A   1      43.153 -17.051 -37.595  0.00  0.00    -0.315 N 
ATOM      4  H   UNL A   1      43.671 -17.815 -37.253  0.00  0.00    +0.000 HD
ENDROOT
BRANCH   1   5
ATOM      5  C   UNL A   1      45.273 -15.869 -37.482  0.00  0.00    +0.024 C 
BRANCH   5   6
ATOM      6  C   UNL A   1      45.679 -17.146 -36.753  0.00  0.00    -0.045 C 
BRANCH   6   7
ATOM      7  C   UNL A   1      47.193 -17.368 -36.663  0.00  0.00    -0.051 C 
BRANCH   7   8
ATOM      8  C   UNL A   1      47.614 -18.807 -36.350  0.00  0.00    -0.037 C 
BRANCH   8   9
ATOM      9  C   UNL A   1      46.572 -19.841 -36.785  0.00  0.00    +0.012 C 
BRANCH   9  12
ATOM     10  C   UNL A   1      46.717 -20.849 -39.108  0.00  0.00    +0.246 C 
ATOM     11  O   UNL A   1      46.905 -21.899 -39.720  0.00  0.00    -0.270 OA
ATOM     12  N   UNL A   1      47.104 -20.745 -37.794  0.00  0.00    -0.311 N 
ATOM     13  H   UNL A   1      47.822 -21.351 -37.502  0.00  0.00    +0.000 HD
BRANCH  10  19
ATOM     14  C   UNL A   1      44.653 -19.837 -40.094  0.00  0.00    +0.044 A 
ATOM     15  C   UNL A   1      44.022 -18.715 -40.655  0.00  0.00    -0.040 A 
ATOM     16  C   UNL A   1      44.748 -17.572 -40.999  0.00  0.00    -0.060 A 
ATOM     17  C   UNL A   1      46.120 -17.519 -40.771  0.00  0.00    -0.061 A 
ATOM     18  C   UNL A   1      46.761 -18.596 -40.163  0.00  0.00    -0.048 A 
ATOM     19  C   UNL A   1      46.025 -19.727 -39.781  0.00  0.00    +0.058 A 
BRANCH  14  20
ATOM     20  N   UNL A   1      43.900 -20.983 -39.710  0.00  0.00    -0.314 N 
ATOM     21  H   UNL A   1      44.006 -21.787 -40.269  0.00  0.00    +0.000 HD
BRANCH  20  27
ATOM     22  C   UNL A   1      39.270 -21.674 -37.946  0.00  0.00    -0.039 C 
ATOM     23  C   UNL A   1      40.730 -21.362 -37.757  0.00  0.00    -0.046 A 
ATOM     24  C   UNL A   1      41.185 -21.021 -36.474  0.00  0.00    -0.058 A 
ATOM     25  C   UNL A   1      42.518 -20.690 -36.257  0.00  0.00    -0.060 A 
ATOM     26  C   UNL A   1      43.418 -20.705 -37.318  0.00  0.00    -0.040 A 
ATOM     27  C   UNL A   1      43.010 -21.091 -38.604  0.00  0.00    +0.035 A 
ATOM     28  C   UNL A   1      41.650 -21.411 -38.833  0.00  0.00    -0.026 A 
ATOM     29  C   UNL A   1      41.183 -21.745 -40.229  0.00  0.00    -0.038 C 
ENDBRANCH  20  27
ENDBRANCH  14  20
ENDBRANCH  10  19
ENDBRANCH   9  12
ENDBRANCH   8   9
ENDBRANCH   7   8
ENDBRANCH   6   7
ENDBRANCH   5   6
ENDBRANCH   1   5
BRANCH   3  30
ATOM     30  C   UNL A   1      41.727 -17.210 -37.807  0.00  0.00    +0.012 C 
BRANCH  30  31
ATOM     31  C   UNL A   1      40.903 -16.724 -36.612  0.00  0.00    -0.037 C 
BRANCH  31  32
ATOM     32  C   UNL A   1      40.064 -17.834 -35.972  0.00  0.00    -0.052 C 
BRANCH  32  33
ATOM     33  C   UNL A   1      38.772 -18.087 -36.753  0.00  0.00    -0.053 C 
BRANCH  33  34
ATOM     34  C   UNL A   1      37.772 -18.883 -35.912  0.00  0.00    -0.053 C 
BRANCH  34  35
ATOM     35  C   UNL A   1      36.716 -17.974 -35.281  0.00  0.00    -0.052 C 
BRANCH  35  36
ATOM     36  C   UNL A   1      36.886 -17.905 -33.763  0.00  0.00    -0.037 C 
BRANCH  36  37
ATOM     37  C   UNL A   1      37.931 -16.862 -33.361  0.00  0.00    +0.009 C 
BRANCH  37  38
ATOM     38  N   UNL A   1      38.640 -17.342 -32.167  0.00  0.00    -0.343 N 
ATOM     39  H   UNL A   1      38.273 -17.295 -31.255  0.00  0.00    +0.000 HD
BRANCH  38  40
ATOM     40  C   UNL A   1      39.922 -17.882 -32.484  0.00  0.00    +0.041 A 
ATOM     41  C   UNL A   1      41.028 -17.035 -32.697  0.00  0.00    -0.005 A 
ATOM     42  C   UNL A   1      42.263 -17.638 -32.951  0.00  0.00    +0.047 A 
ATOM     43  N   UNL A   1      42.449 -18.981 -32.949  0.00  0.00    -0.251 NA
ATOM     44  C   UNL A   1      41.400 -19.784 -32.735  0.00  0.00    +0.074 A 
ATOM     45  C   UNL A   1      41.615 -21.155 -32.753  0.00  0.00    -0.017 A 
ATOM     46  C   UNL A   1      40.569 -22.054 -32.556  0.00  0.00    +0.043 A 
ATOM     47 CL   UNL A   1      40.877 -23.746 -32.588  0.00  0.00    -0.083 Cl
ATOM     48  C   UNL A   1      39.280 -21.592 -32.341  0.00  0.00    -0.043 A 
ATOM     49  C   UNL A   1      39.048 -20.218 -32.317  0.00  0.00    -0.049 A 
ATOM     50  C   UNL A   1      40.103 -19.292 -32.500  0.00  0.00    +0.022 A 
ATOM     51  C   UNL A   1      43.511 -16.827 -33.190  0.00  0.00    -0.010 C 
ATOM     52  C   UNL A   1      43.224 -15.394 -33.621  0.00  0.00    -0.047 C 
ATOM     53  C   UNL A   1      42.209 -14.770 -32.677  0.00  0.00    -0.049 C 
ATOM     54  C   UNL A   1      40.885 -15.532 -32.734  0.00  0.00    -0.024 C 
ENDBRANCH  38  40
ENDBRANCH  37  38
ENDBRANCH  36  37
ENDBRANCH  35  36
ENDBRANCH  34  35
ENDBRANCH  33  34
ENDBRANCH  32  33
ENDBRANCH  31  32
ENDBRANCH  30  31
ENDBRANCH   3  30
TORSDOF 19
ENDMDL
MODEL 6
REMARK VINA RESULT:    -5.995      2.711      7.599
REMARK INTER + INTRA:         -19.426
REMARK INTER:                 -10.496
REMARK INTRA:                  -8.930
REMARK UNBOUND:                -6.772
REMARK  Name = cpd54.pdb
REMARK  21 active torsions:
REMARK  status: ('A' for Active; 'I' for Inactive)
REMARK    1  A    between atoms: C_1  and  C_2
REMARK    2  A    between atoms: C_6  and  N_7
REMARK    3  A    between atoms: N_7  and  C_8
REMARK    4  A    between atoms: C_13  and  C_14
REMARK    5  A    between atoms: N_16  and  C_17
REMARK    6  A    between atoms: C_17  and  C_18
REMARK    7  A    between atoms: C_18  and  C_19
REMARK    8  A    between atoms: C_19  and  C_20
REMARK    9  A    between atoms: C_20  and  C_21
REMARK   10  A    between atoms: C_21  and  C_22
REMARK   11  A    between atoms: N_24  and  C_25
REMARK   12  A    between atoms: C_25  and  C_26
REMARK   13  A    between atoms: C_26  and  C_27
REMARK   14  A    between atoms: C_27  and  C_28
REMARK   15  A    between atoms: C_28  and  C_29
REMARK   16  A    between atoms: C_29  and  C_30
REMARK   17  A    between atoms: C_30  and  C_31
REMARK   18  A    between atoms: C_31  and  C_32
REMARK   19  A    between atoms: C_32  and  N_33
REMARK   20  A    between atoms: N_33  and  C_34
REMARK   21  A    between atoms: C_49  and  C_50
REMARK                            x       y       z     vdW  Elec       q    Type
REMARK                         _______ _______ _______ _____ _____    ______ ____
ROOT
ATOM      1  C   UNL A   1      43.678 -15.741 -39.834  0.00  0.00    +0.213 C 
ATOM      2  O   UNL A   1      43.784 -16.846 -40.355  0.00  0.00    -0.276 OA
ATOM      3  N   UNL A   1      42.533 -14.979 -39.880  0.00  0.00    -0.315 N 
ATOM      4  H   UNL A   1      42.508 -14.128 -39.385  0.00  0.00    +0.000 HD
ENDROOT
BRANCH   1   5
ATOM      5  C   UNL A   1      44.823 -15.103 -39.076  0.00  0.00    +0.024 C 
BRANCH   5   6
ATOM      6  C   UNL A   1      45.502 -16.086 -38.128  0.00  0.00    -0.045 C 
BRANCH   6   7
ATOM      7  C   UNL A   1      45.587 -15.605 -36.675  0.00  0.00    -0.051 C 
BRANCH   7   8
ATOM      8  C   UNL A   1      46.345 -16.543 -35.730  0.00  0.00    -0.037 C 
BRANCH   8   9
ATOM      9  C   UNL A   1      47.197 -17.575 -36.473  0.00  0.00    +0.012 C 
BRANCH   9  12
ATOM     10  C   UNL A   1      46.428 -19.948 -36.016  0.00  0.00    +0.246 C 
ATOM     11  O   UNL A   1      46.229 -20.768 -35.121  0.00  0.00    -0.270 OA
ATOM     12  N   UNL A   1      47.220 -18.852 -35.776  0.00  0.00    -0.311 N 
ATOM     13  H   UNL A   1      47.878 -18.940 -35.049  0.00  0.00    +0.000 HD
BRANCH  10  19
ATOM     14  C   UNL A   1      44.361 -20.001 -37.424  0.00  0.00    +0.044 A 
ATOM     15  C   UNL A   1      43.787 -20.094 -38.702  0.00  0.00    -0.040 A 
ATOM     16  C   UNL A   1      44.560 -20.414 -39.822  0.00  0.00    -0.060 A 
ATOM     17  C   UNL A   1      45.928 -20.628 -39.690  0.00  0.00    -0.061 A 
ATOM     18  C   UNL A   1      46.533 -20.485 -38.443  0.00  0.00    -0.048 A 
ATOM     19  C   UNL A   1      45.764 -20.125 -37.327  0.00  0.00    +0.058 A 
BRANCH  14  20
ATOM     20  N   UNL A   1      43.574 -19.636 -36.295  0.00  0.00    -0.314 N 
ATOM     21  H   UNL A   1      43.310 -20.365 -35.688  0.00  0.00    +0.000 HD
BRANCH  20  27
ATOM     22  C   UNL A   1      42.659 -16.170 -32.805  0.00  0.00    -0.039 C 
ATOM     23  C   UNL A   1      42.621 -16.667 -34.226  0.00  0.00    -0.046 A 
ATOM     24  C   UNL A   1      41.990 -15.876 -35.198  0.00  0.00    -0.058 A 
ATOM     25  C   UNL A   1      41.899 -16.309 -36.517  0.00  0.00    -0.060 A 
ATOM     26  C   UNL A   1      42.446 -17.536 -36.883  0.00  0.00    -0.040 A 
ATOM     27  C   UNL A   1      43.128 -18.329 -35.948  0.00  0.00    +0.035 A 
ATOM     28  C   UNL A   1      43.208 -17.900 -34.602  0.00  0.00    -0.026 A 
ATOM     29  C   UNL A   1      43.865 -18.784 -33.570  0.00  0.00    -0.038 C 
ENDBRANCH  20  27
ENDBRANCH  14  20
ENDBRANCH  10  19
ENDBRANCH   9  12
ENDBRANCH   8   9
ENDBRANCH   7   8
ENDBRANCH   6   7
ENDBRANCH   5   6
ENDBRANCH   1   5
BRANCH   3  30
ATOM     30  C   UNL A   1      41.362 -15.388 -40.631  0.00  0.00    +0.012 C 
BRANCH  30  31
ATOM     31  C   UNL A   1      40.244 -15.914 -39.727  0.00  0.00    -0.037 C 
BRANCH  31  32
ATOM     32  C   UNL A   1      38.926 -16.138 -40.473  0.00  0.00    -0.052 C 
BRANCH  32  33
ATOM     33  C   UNL A   1      37.722 -16.038 -39.534  0.00  0.00    -0.053 C 
BRANCH  33  34
ATOM     34  C   UNL A   1      36.641 -17.051 -39.920  0.00  0.00    -0.053 C 
BRANCH  34  35
ATOM     35  C   UNL A   1      36.080 -17.771 -38.693  0.00  0.00    -0.052 C 
BRANCH  35  36
ATOM     36  C   UNL A   1      36.297 -16.945 -37.424  0.00  0.00    -0.037 C 
BRANCH  36  37
ATOM     37  C   UNL A   1      37.007 -17.757 -36.340  0.00  0.00    +0.009 C 
BRANCH  37  38
ATOM     38  N   UNL A   1      38.453 -17.516 -36.442  0.00  0.00    -0.343 N 
ATOM     39  H   UNL A   1      38.848 -16.659 -36.719  0.00  0.00    +0.000 HD
BRANCH  38  40
ATOM     40  C   UNL A   1      39.216 -18.669 -36.092  0.00  0.00    +0.041 A 
ATOM     41  C   UNL A   1      39.528 -18.945 -34.745  0.00  0.00    -0.005 A 
ATOM     42  C   UNL A   1      40.234 -20.120 -34.474  0.00  0.00    +0.047 A 
ATOM     43  N   UNL A   1      40.579 -21.017 -35.429  0.00  0.00    -0.251 NA
ATOM     44  C   UNL A   1      40.272 -20.761 -36.707  0.00  0.00    +0.074 A 
ATOM     45  C   UNL A   1      40.649 -21.688 -37.667  0.00  0.00    -0.017 A 
ATOM     46  C   UNL A   1      40.380 -21.482 -39.017  0.00  0.00    +0.043 A 
ATOM     47 CL   UNL A   1      40.866 -22.656 -40.177  0.00  0.00    -0.083 Cl
ATOM     48  C   UNL A   1      39.727 -20.332 -39.434  0.00  0.00    -0.043 A 
ATOM     49  C   UNL A   1      39.339 -19.392 -38.482  0.00  0.00    -0.049 A 
ATOM     50  C   UNL A   1      39.591 -19.595 -37.104  0.00  0.00    +0.022 A 
ATOM     51  C   UNL A   1      40.617 -20.513 -33.070  0.00  0.00    -0.010 C 
ATOM     52  C   UNL A   1      40.627 -19.339 -32.098  0.00  0.00    -0.047 C 
ATOM     53  C   UNL A   1      39.330 -18.557 -32.228  0.00  0.00    -0.049 C 
ATOM     54  C   UNL A   1      39.193 -17.976 -33.635  0.00  0.00    -0.024 C 
ENDBRANCH  38  40
ENDBRANCH  37  38
ENDBRANCH  36  37
ENDBRANCH  35  36
ENDBRANCH  34  35
ENDBRANCH  33  34
ENDBRANCH  32  33
ENDBRANCH  31  32
ENDBRANCH  30  31
ENDBRANCH   3  30
TORSDOF 19
ENDMDL
MODEL 7
REMARK VINA RESULT:    -5.943      2.362      5.202
REMARK INTER + INTRA:         -19.317
REMARK INTER:                 -12.217
REMARK INTRA:                  -7.101
REMARK UNBOUND:                -6.772
REMARK  Name = cpd54.pdb
REMARK  21 active torsions:
REMARK  status: ('A' for Active; 'I' for Inactive)
REMARK    1  A    between atoms: C_1  and  C_2
REMARK    2  A    between atoms: C_6  and  N_7
REMARK    3  A    between atoms: N_7  and  C_8
REMARK    4  A    between atoms: C_13  and  C_14
REMARK    5  A    between atoms: N_16  and  C_17
REMARK    6  A    between atoms: C_17  and  C_18
REMARK    7  A    between atoms: C_18  and  C_19
REMARK    8  A    between atoms: C_19  and  C_20
REMARK    9  A    between atoms: C_20  and  C_21
REMARK   10  A    between atoms: C_21  and  C_22
REMARK   11  A    between atoms: N_24  and  C_25
REMARK   12  A    between atoms: C_25  and  C_26
REMARK   13  A    between atoms: C_26  and  C_27
REMARK   14  A    between atoms: C_27  and  C_28
REMARK   15  A    between atoms: C_28  and  C_29
REMARK   16  A    between atoms: C_29  and  C_30
REMARK   17  A    between atoms: C_30  and  C_31
REMARK   18  A    between atoms: C_31  and  C_32
REMARK   19  A    between atoms: C_32  and  N_33
REMARK   20  A    between atoms: N_33  and  C_34
REMARK   21  A    between atoms: C_49  and  C_50
REMARK                            x       y       z     vdW  Elec       q    Type
REMARK                         _______ _______ _______ _____ _____    ______ ____
ROOT
ATOM      1  C   UNL A   1      41.770 -16.233 -36.981  0.00  0.00    +0.213 C 
ATOM      2  O   UNL A   1      41.155 -15.208 -36.706  0.00  0.00    -0.276 OA
ATOM      3  N   UNL A   1      42.579 -16.367 -38.086  0.00  0.00    -0.315 N 
ATOM      4  H   UNL A   1      43.087 -17.202 -38.205  0.00  0.00    +0.000 HD
ENDROOT
BRANCH   1   5
ATOM      5  C   UNL A   1      41.693 -17.469 -36.110  0.00  0.00    +0.024 C 
BRANCH   5   6
ATOM      6  C   UNL A   1      41.494 -17.121 -34.638  0.00  0.00    -0.045 C 
BRANCH   6   7
ATOM      7  C   UNL A   1      40.179 -17.636 -34.040  0.00  0.00    -0.051 C 
BRANCH   7   8
ATOM      8  C   UNL A   1      40.344 -18.600 -32.861  0.00  0.00    -0.037 C 
BRANCH   8   9
ATOM      9  C   UNL A   1      41.711 -19.287 -32.840  0.00  0.00    +0.012 C 
BRANCH   9  12
ATOM     10  C   UNL A   1      41.237 -21.637 -33.668  0.00  0.00    +0.246 C 
ATOM     11  O   UNL A   1      40.743 -22.717 -33.350  0.00  0.00    -0.270 OA
ATOM     12  N   UNL A   1      41.584 -20.730 -32.697  0.00  0.00    -0.311 N 
ATOM     13  H   UNL A   1      41.768 -21.097 -31.803  0.00  0.00    +0.000 HD
BRANCH  10  19
ATOM     14  C   UNL A   1      40.261 -21.190 -35.928  0.00  0.00    +0.044 A 
ATOM     15  C   UNL A   1      40.462 -20.791 -37.260  0.00  0.00    -0.040 A 
ATOM     16  C   UNL A   1      41.749 -20.628 -37.781  0.00  0.00    -0.060 A 
ATOM     17  C   UNL A   1      42.863 -20.841 -36.975  0.00  0.00    -0.061 A 
ATOM     18  C   UNL A   1      42.691 -21.181 -35.635  0.00  0.00    -0.048 A 
ATOM     19  C   UNL A   1      41.400 -21.306 -35.101  0.00  0.00    +0.058 A 
BRANCH  14  20
ATOM     20  N   UNL A   1      38.947 -21.316 -35.393  0.00  0.00    -0.314 N 
ATOM     21  H   UNL A   1      38.676 -22.216 -35.100  0.00  0.00    +0.000 HD
BRANCH  20  27
ATOM     22  C   UNL A   1      35.321 -19.163 -32.703  0.00  0.00    -0.039 C 
ATOM     23  C   UNL A   1      36.166 -19.276 -33.945  0.00  0.00    -0.046 A 
ATOM     24  C   UNL A   1      35.885 -18.430 -35.028  0.00  0.00    -0.058 A 
ATOM     25  C   UNL A   1      36.615 -18.521 -36.208  0.00  0.00    -0.060 A 
ATOM     26  C   UNL A   1      37.642 -19.453 -36.318  0.00  0.00    -0.040 A 
ATOM     27  C   UNL A   1      37.984 -20.279 -35.237  0.00  0.00    +0.035 A 
ATOM     28  C   UNL A   1      37.232 -20.202 -34.040  0.00  0.00    -0.026 A 
ATOM     29  C   UNL A   1      37.536 -21.145 -32.901  0.00  0.00    -0.038 C 
ENDBRANCH  20  27
ENDBRANCH  14  20
ENDBRANCH  10  19
ENDBRANCH   9  12
ENDBRANCH   8   9
ENDBRANCH   7   8
ENDBRANCH   6   7
ENDBRANCH   5   6
ENDBRANCH   1   5
BRANCH   3  30
ATOM     30  C   UNL A   1      42.709 -15.320 -39.080  0.00  0.00    +0.012 C 
BRANCH  30  31
ATOM     31  C   UNL A   1      42.985 -15.877 -40.479  0.00  0.00    -0.037 C 
BRANCH  31  32
ATOM     32  C   UNL A   1      43.443 -17.338 -40.463  0.00  0.00    -0.052 C 
BRANCH  32  33
ATOM     33  C   UNL A   1      44.050 -17.755 -41.805  0.00  0.00    -0.053 C 
BRANCH  33  34
ATOM     34  C   UNL A   1      44.475 -19.225 -41.781  0.00  0.00    -0.053 C 
BRANCH  34  35
ATOM     35  C   UNL A   1      44.100 -19.897 -40.459  0.00  0.00    -0.052 C 
BRANCH  35  36
ATOM     36  C   UNL A   1      45.308 -20.601 -39.839  0.00  0.00    -0.037 C 
BRANCH  36  37
ATOM     37  C   UNL A   1      46.625 -19.997 -40.331  0.00  0.00    +0.009 C 
BRANCH  37  38
ATOM     38  N   UNL A   1      47.408 -19.561 -39.167  0.00  0.00    -0.343 N 
ATOM     39  H   UNL A   1      48.221 -20.015 -38.850  0.00  0.00    +0.000 HD
BRANCH  38  40
ATOM     40  C   UNL A   1      46.851 -18.402 -38.548  0.00  0.00    +0.041 A 
ATOM     41  C   UNL A   1      46.383 -18.449 -37.220  0.00  0.00    -0.005 A 
ATOM     42  C   UNL A   1      45.900 -17.261 -36.663  0.00  0.00    +0.047 A 
ATOM     43  N   UNL A   1      45.911 -16.075 -37.318  0.00  0.00    -0.251 NA
ATOM     44  C   UNL A   1      46.366 -16.029 -38.576  0.00  0.00    +0.074 A 
ATOM     45  C   UNL A   1      46.353 -14.805 -39.230  0.00  0.00    -0.017 A 
ATOM     46  C   UNL A   1      46.795 -14.682 -40.545  0.00  0.00    +0.043 A 
ATOM     47 CL   UNL A   1      46.760 -13.147 -41.320  0.00  0.00    -0.083 Cl
ATOM     48  C   UNL A   1      47.256 -15.792 -41.235  0.00  0.00    -0.043 A 
ATOM     49  C   UNL A   1      47.279 -17.028 -40.592  0.00  0.00    -0.049 A 
ATOM     50  C   UNL A   1      46.849 -17.166 -39.251  0.00  0.00    +0.022 A 
ATOM     51  C   UNL A   1      45.379 -17.199 -35.250  0.00  0.00    -0.010 C 
ATOM     52  C   UNL A   1      44.966 -18.558 -34.700  0.00  0.00    -0.047 C 
ATOM     53  C   UNL A   1      46.077 -19.567 -34.943  0.00  0.00    -0.049 C 
ATOM     54  C   UNL A   1      46.323 -19.743 -36.441  0.00  0.00    -0.024 C 
ENDBRANCH  38  40
ENDBRANCH  37  38
ENDBRANCH  36  37
ENDBRANCH  35  36
ENDBRANCH  34  35
ENDBRANCH  33  34
ENDBRANCH  32  33
ENDBRANCH  31  32
ENDBRANCH  30  31
ENDBRANCH   3  30
TORSDOF 19
ENDMDL
MODEL 8
REMARK VINA RESULT:    -5.831      1.991      3.745
REMARK INTER + INTRA:         -19.081
REMARK INTER:                 -13.096
REMARK INTRA:                  -5.986
REMARK UNBOUND:                -6.772
REMARK  Name = cpd54.pdb
REMARK  21 active torsions:
REMARK  status: ('A' for Active; 'I' for Inactive)
REMARK    1  A    between atoms: C_1  and  C_2
REMARK    2  A    between atoms: C_6  and  N_7
REMARK    3  A    between atoms: N_7  and  C_8
REMARK    4  A    between atoms: C_13  and  C_14
REMARK    5  A    between atoms: N_16  and  C_17
REMARK    6  A    between atoms: C_17  and  C_18
REMARK    7  A    between atoms: C_18  and  C_19
REMARK    8  A    between atoms: C_19  and  C_20
REMARK    9  A    between atoms: C_20  and  C_21
REMARK   10  A    between atoms: C_21  and  C_22
REMARK   11  A    between atoms: N_24  and  C_25
REMARK   12  A    between atoms: C_25  and  C_26
REMARK   13  A    between atoms: C_26  and  C_27
REMARK   14  A    between atoms: C_27  and  C_28
REMARK   15  A    between atoms: C_28  and  C_29
REMARK   16  A    between atoms: C_29  and  C_30
REMARK   17  A    between atoms: C_30  and  C_31
REMARK   18  A    between atoms: C_31  and  C_32
REMARK   19  A    between atoms: C_32  and  N_33
REMARK   20  A    between atoms: N_33  and  C_34
REMARK   21  A    between atoms: C_49  and  C_50
REMARK                            x       y       z     vdW  Elec       q    Type
REMARK                         _______ _______ _______ _____ _____    ______ ____
ROOT
ATOM      1  C   UNL A   1      41.476 -15.526 -34.679  0.00  0.00    +0.213 C 
ATOM      2  O   UNL A   1      41.694 -14.440 -34.152  0.00  0.00    -0.276 OA
ATOM      3  N   UNL A   1      41.842 -15.841 -35.967  0.00  0.00    -0.315 N 
ATOM      4  H   UNL A   1      41.684 -16.755 -36.296  0.00  0.00    +0.000 HD
ENDROOT
BRANCH   1   5
ATOM      5  C   UNL A   1      40.769 -16.643 -33.939  0.00  0.00    +0.024 C 
BRANCH   5   6
ATOM      6  C   UNL A   1      41.657 -17.873 -33.774  0.00  0.00    -0.045 C 
BRANCH   6   7
ATOM      7  C   UNL A   1      40.896 -19.159 -33.435  0.00  0.00    -0.051 C 
BRANCH   7   8
ATOM      8  C   UNL A   1      41.669 -20.454 -33.705  0.00  0.00    -0.037 C 
BRANCH   8   9
ATOM      9  C   UNL A   1      41.131 -21.646 -32.910  0.00  0.00    +0.012 C 
BRANCH   9  12
ATOM     10  C   UNL A   1      39.593 -22.889 -34.498  0.00  0.00    +0.246 C 
ATOM     11  O   UNL A   1      39.208 -24.009 -34.827  0.00  0.00    -0.270 OA
ATOM     12  N   UNL A   1      40.758 -22.748 -33.783  0.00  0.00    -0.311 N 
ATOM     13  H   UNL A   1      41.414 -23.476 -33.872  0.00  0.00    +0.000 HD
BRANCH  10  19
ATOM     14  C   UNL A   1      38.980 -21.022 -36.045  0.00  0.00    +0.044 A 
ATOM     15  C   UNL A   1      38.114 -19.960 -36.354  0.00  0.00    -0.040 A 
ATOM     16  C   UNL A   1      37.150 -19.521 -35.441  0.00  0.00    -0.060 A 
ATOM     17  C   UNL A   1      37.019 -20.150 -34.206  0.00  0.00    -0.061 A 
ATOM     18  C   UNL A   1      37.826 -21.243 -33.898  0.00  0.00    -0.048 A 
ATOM     19  C   UNL A   1      38.766 -21.707 -34.830  0.00  0.00    +0.058 A 
BRANCH  14  20
ATOM     20  N   UNL A   1      39.932 -21.488 -36.996  0.00  0.00    -0.314 N 
ATOM     21  H   UNL A   1      39.977 -22.462 -37.133  0.00  0.00    +0.000 HD
BRANCH  20  27
ATOM     22  C   UNL A   1      43.068 -21.055 -40.870  0.00  0.00    -0.039 C 
ATOM     23  C   UNL A   1      42.408 -20.516 -39.628  0.00  0.00    -0.046 A 
ATOM     24  C   UNL A   1      42.805 -19.259 -39.147  0.00  0.00    -0.058 A 
ATOM     25  C   UNL A   1      42.250 -18.736 -37.984  0.00  0.00    -0.060 A 
ATOM     26  C   UNL A   1      41.283 -19.459 -37.291  0.00  0.00    -0.040 A 
ATOM     27  C   UNL A   1      40.825 -20.695 -37.771  0.00  0.00    +0.035 A 
ATOM     28  C   UNL A   1      41.400 -21.239 -38.944  0.00  0.00    -0.026 A 
ATOM     29  C   UNL A   1      40.976 -22.606 -39.423  0.00  0.00    -0.038 C 
ENDBRANCH  20  27
ENDBRANCH  14  20
ENDBRANCH  10  19
ENDBRANCH   9  12
ENDBRANCH   8   9
ENDBRANCH   7   8
ENDBRANCH   6   7
ENDBRANCH   5   6
ENDBRANCH   1   5
BRANCH   3  30
ATOM     30  C   UNL A   1      42.451 -14.871 -36.856  0.00  0.00    +0.012 C 
BRANCH  30  31
ATOM     31  C   UNL A   1      42.084 -15.114 -38.322  0.00  0.00    -0.037 C 
BRANCH  31  32
ATOM     32  C   UNL A   1      43.303 -15.148 -39.248  0.00  0.00    -0.052 C 
BRANCH  32  33
ATOM     33  C   UNL A   1      43.623 -13.762 -39.811  0.00  0.00    -0.053 C 
BRANCH  33  34
ATOM     34  C   UNL A   1      45.124 -13.470 -39.726  0.00  0.00    -0.053 C 
BRANCH  34  35
ATOM     35  C   UNL A   1      45.942 -14.491 -40.519  0.00  0.00    -0.052 C 
BRANCH  35  36
ATOM     36  C   UNL A   1      47.160 -14.957 -39.721  0.00  0.00    -0.037 C 
BRANCH  36  37
ATOM     37  C   UNL A   1      47.433 -16.448 -39.930  0.00  0.00    +0.009 C 
BRANCH  37  38
ATOM     38  N   UNL A   1      46.153 -17.168 -39.914  0.00  0.00    -0.343 N 
ATOM     39  H   UNL A   1      45.337 -16.848 -40.362  0.00  0.00    +0.000 HD
BRANCH  38  40
ATOM     40  C   UNL A   1      46.230 -18.385 -39.174  0.00  0.00    +0.041 A 
ATOM     41  C   UNL A   1      45.923 -18.413 -37.799  0.00  0.00    -0.005 A 
ATOM     42  C   UNL A   1      45.969 -19.652 -37.152  0.00  0.00    +0.047 A 
ATOM     43  N   UNL A   1      46.240 -20.815 -37.793  0.00  0.00    -0.251 NA
ATOM     44  C   UNL A   1      46.520 -20.789 -39.102  0.00  0.00    +0.074 A 
ATOM     45  C   UNL A   1      46.808 -21.992 -39.731  0.00  0.00    -0.017 A 
ATOM     46  C   UNL A   1      47.125 -22.042 -41.085  0.00  0.00    +0.043 A 
ATOM     47 CL   UNL A   1      47.479 -23.554 -41.827  0.00  0.00    -0.083 Cl
ATOM     48  C   UNL A   1      47.164 -20.880 -41.839  0.00  0.00    -0.043 A 
ATOM     49  C   UNL A   1      46.874 -19.664 -41.224  0.00  0.00    -0.049 A 
ATOM     50  C   UNL A   1      46.534 -19.598 -39.851  0.00  0.00    +0.022 A 
ATOM     51  C   UNL A   1      45.657 -19.796 -35.685  0.00  0.00    -0.010 C 
ATOM     52  C   UNL A   1      45.792 -18.490 -34.910  0.00  0.00    -0.047 C 
ATOM     53  C   UNL A   1      45.038 -17.386 -35.634  0.00  0.00    -0.049 C 
ATOM     54  C   UNL A   1      45.635 -17.151 -37.021  0.00  0.00    -0.024 C 
ENDBRANCH  38  40
ENDBRANCH  37  38
ENDBRANCH  36  37
ENDBRANCH  35  36
ENDBRANCH  34  35
ENDBRANCH  33  34
ENDBRANCH  32  33
ENDBRANCH  31  32
ENDBRANCH  30  31
ENDBRANCH   3  30
TORSDOF 19
ENDMDL
MODEL 9
REMARK VINA RESULT:    -5.818      2.151      4.608
REMARK INTER + INTRA:         -19.053
REMARK INTER:                 -13.291
REMARK INTRA:                  -5.762
REMARK UNBOUND:                -6.772
REMARK  Name = cpd54.pdb
REMARK  21 active torsions:
REMARK  status: ('A' for Active; 'I' for Inactive)
REMARK    1  A    between atoms: C_1  and  C_2
REMARK    2  A    between atoms: C_6  and  N_7
REMARK    3  A    between atoms: N_7  and  C_8
REMARK    4  A    between atoms: C_13  and  C_14
REMARK    5  A    between atoms: N_16  and  C_17
REMARK    6  A    between atoms: C_17  and  C_18
REMARK    7  A    between atoms: C_18  and  C_19
REMARK    8  A    between atoms: C_19  and  C_20
REMARK    9  A    between atoms: C_20  and  C_21
REMARK   10  A    between atoms: C_21  and  C_22
REMARK   11  A    between atoms: N_24  and  C_25
REMARK   12  A    between atoms: C_25  and  C_26
REMARK   13  A    between atoms: C_26  and  C_27
REMARK   14  A    between atoms: C_27  and  C_28
REMARK   15  A    between atoms: C_28  and  C_29
REMARK   16  A    between atoms: C_29  and  C_30
REMARK   17  A    between atoms: C_30  and  C_31
REMARK   18  A    between atoms: C_31  and  C_32
REMARK   19  A    between atoms: C_32  and  N_33
REMARK   20  A    between atoms: N_33  and  C_34
REMARK   21  A    between atoms: C_49  and  C_50
REMARK                            x       y       z     vdW  Elec       q    Type
REMARK                         _______ _______ _______ _____ _____    ______ ____
ROOT
ATOM      1  C   UNL A   1      46.084 -19.468 -35.424  0.00  0.00    +0.213 C 
ATOM      2  O   UNL A   1      47.065 -19.565 -34.694  0.00  0.00    -0.276 OA
ATOM      3  N   UNL A   1      46.111 -18.880 -36.668  0.00  0.00    -0.315 N 
ATOM      4  H   UNL A   1      45.294 -18.895 -37.218  0.00  0.00    +0.000 HD
ENDROOT
BRANCH   1   5
ATOM      5  C   UNL A   1      44.727 -19.998 -35.012  0.00  0.00    +0.024 C 
BRANCH   5   6
ATOM      6  C   UNL A   1      43.686 -18.888 -34.906  0.00  0.00    -0.045 C 
BRANCH   6   7
ATOM      7  C   UNL A   1      44.091 -17.727 -33.990  0.00  0.00    -0.051 C 
BRANCH   7   8
ATOM      8  C   UNL A   1      43.210 -17.548 -32.750  0.00  0.00    -0.037 C 
BRANCH   8   9
ATOM      9  C   UNL A   1      42.455 -16.216 -32.744  0.00  0.00    +0.012 C 
BRANCH   9  12
ATOM     10  C   UNL A   1      40.819 -16.216 -34.682  0.00  0.00    +0.246 C 
ATOM     11  O   UNL A   1      40.740 -16.231 -35.909  0.00  0.00    -0.270 OA
ATOM     12  N   UNL A   1      41.998 -15.853 -34.077  0.00  0.00    -0.311 N 
ATOM     13  H   UNL A   1      42.602 -15.284 -34.605  0.00  0.00    +0.000 HD
BRANCH  10  19
ATOM     14  C   UNL A   1      39.330 -18.013 -33.782  0.00  0.00    +0.044 A 
ATOM     15  C   UNL A   1      38.271 -18.376 -32.934  0.00  0.00    -0.040 A 
ATOM     16  C   UNL A   1      37.492 -17.408 -32.293  0.00  0.00    -0.060 A 
ATOM     17  C   UNL A   1      37.769 -16.056 -32.471  0.00  0.00    -0.061 A 
ATOM     18  C   UNL A   1      38.851 -15.670 -33.260  0.00  0.00    -0.048 A 
ATOM     19  C   UNL A   1      39.656 -16.642 -33.872  0.00  0.00    +0.058 A 
BRANCH  14  20
ATOM     20  N   UNL A   1      40.143 -19.006 -34.401  0.00  0.00    -0.314 N 
ATOM     21  H   UNL A   1      40.655 -18.724 -35.193  0.00  0.00    +0.000 HD
BRANCH  20  27
ATOM     22  C   UNL A   1      38.624 -23.767 -34.604  0.00  0.00    -0.039 C 
ATOM     23  C   UNL A   1      39.499 -22.675 -34.050  0.00  0.00    -0.046 A 
ATOM     24  C   UNL A   1      40.377 -22.984 -33.000  0.00  0.00    -0.058 A 
ATOM     25  C   UNL A   1      41.180 -22.001 -32.433  0.00  0.00    -0.060 A 
ATOM     26  C   UNL A   1      41.123 -20.696 -32.913  0.00  0.00    -0.040 A 
ATOM     27  C   UNL A   1      40.294 -20.362 -33.995  0.00  0.00    +0.035 A 
ATOM     28  C   UNL A   1      39.463 -21.356 -34.564  0.00  0.00    -0.026 A 
ATOM     29  C   UNL A   1      38.506 -20.989 -35.672  0.00  0.00    -0.038 C 
ENDBRANCH  20  27
ENDBRANCH  14  20
ENDBRANCH  10  19
ENDBRANCH   9  12
ENDBRANCH   8   9
ENDBRANCH   7   8
ENDBRANCH   6   7
ENDBRANCH   5   6
ENDBRANCH   1   5
BRANCH   3  30
ATOM     30  C   UNL A   1      47.300 -18.241 -37.196  0.00  0.00    +0.012 C 
BRANCH  30  31
ATOM     31  C   UNL A   1      47.216 -16.714 -37.134  0.00  0.00    -0.037 C 
BRANCH  31  32
ATOM     32  C   UNL A   1      45.777 -16.195 -37.075  0.00  0.00    -0.052 C 
BRANCH  32  33
ATOM     33  C   UNL A   1      45.689 -14.725 -37.495  0.00  0.00    -0.053 C 
BRANCH  33  34
ATOM     34  C   UNL A   1      44.730 -14.551 -38.675  0.00  0.00    -0.053 C 
BRANCH  34  35
ATOM     35  C   UNL A   1      45.346 -15.056 -39.981  0.00  0.00    -0.052 C 
BRANCH  35  36
ATOM     36  C   UNL A   1      44.287 -15.703 -40.875  0.00  0.00    -0.037 C 
BRANCH  36  37
ATOM     37  C   UNL A   1      44.698 -17.111 -41.306  0.00  0.00    +0.009 C 
BRANCH  37  38
ATOM     38  N   UNL A   1      45.421 -17.751 -40.197  0.00  0.00    -0.343 N 
ATOM     39  H   UNL A   1      46.101 -17.296 -39.651  0.00  0.00    +0.000 HD
BRANCH  38  40
ATOM     40  C   UNL A   1      45.021 -19.107 -40.006  0.00  0.00    +0.041 A 
ATOM     41  C   UNL A   1      43.821 -19.416 -39.335  0.00  0.00    -0.005 A 
ATOM     42  C   UNL A   1      43.468 -20.765 -39.232  0.00  0.00    +0.047 A 
ATOM     43  N   UNL A   1      44.192 -21.767 -39.787  0.00  0.00    -0.251 NA
ATOM     44  C   UNL A   1      45.326 -21.472 -40.434  0.00  0.00    +0.074 A 
ATOM     45  C   UNL A   1      46.057 -22.517 -40.981  0.00  0.00    -0.017 A 
ATOM     46  C   UNL A   1      47.254 -22.289 -41.653  0.00  0.00    +0.043 A 
ATOM     47 CL   UNL A   1      48.131 -23.613 -42.314  0.00  0.00    -0.083 Cl
ATOM     48  C   UNL A   1      47.748 -21.001 -41.788  0.00  0.00    -0.043 A 
ATOM     49  C   UNL A   1      47.025 -19.939 -41.247  0.00  0.00    -0.049 A 
ATOM     50  C   UNL A   1      45.798 -20.153 -40.575  0.00  0.00    +0.022 A 
ATOM     51  C   UNL A   1      42.206 -21.207 -38.538  0.00  0.00    -0.010 C 
ATOM     52  C   UNL A   1      41.656 -20.166 -37.569  0.00  0.00    -0.047 C 
ATOM     53  C   UNL A   1      41.584 -18.813 -38.259  0.00  0.00    -0.049 C 
ATOM     54  C   UNL A   1      42.979 -18.349 -38.675  0.00  0.00    -0.024 C 
ENDBRANCH  38  40
ENDBRANCH  37  38
ENDBRANCH  36  37
ENDBRANCH  35  36
ENDBRANCH  34  35
ENDBRANCH  33  34
ENDBRANCH  32  33
ENDBRANCH  31  32
ENDBRANCH  30  31
ENDBRANCH   3  30
TORSDOF 19
ENDMDL
MODEL 10
REMARK VINA RESULT:    -5.789      2.192      4.729
REMARK INTER + INTRA:         -18.992
REMARK INTER:                 -13.107
REMARK INTRA:                  -5.885
REMARK UNBOUND:                -6.772
REMARK  Name = cpd54.pdb
REMARK  21 active torsions:
REMARK  status: ('A' for Active; 'I' for Inactive)
REMARK    1  A    between atoms: C_1  and  C_2
REMARK    2  A    between atoms: C_6  and  N_7
REMARK    3  A    between atoms: N_7  and  C_8
REMARK    4  A    between atoms: C_13  and  C_14
REMARK    5  A    between atoms: N_16  and  C_17
REMARK    6  A    between atoms: C_17  and  C_18
REMARK    7  A    between atoms: C_18  and  C_19
REMARK    8  A    between atoms: C_19  and  C_20
REMARK    9  A    between atoms: C_20  and  C_21
REMARK   10  A    between atoms: C_21  and  C_22
REMARK   11  A    between atoms: N_24  and  C_25
REMARK   12  A    between atoms: C_25  and  C_26
REMARK   13  A    between atoms: C_26  and  C_27
REMARK   14  A    between atoms: C_27  and  C_28
REMARK   15  A    between atoms: C_28  and  C_29
REMARK   16  A    between atoms: C_29  and  C_30
REMARK   17  A    between atoms: C_30  and  C_31
REMARK   18  A    between atoms: C_31  and  C_32
REMARK   19  A    between atoms: C_32  and  N_33
REMARK   20  A    between atoms: N_33  and  C_34
REMARK   21  A    between atoms: C_49  and  C_50
REMARK                            x       y       z     vdW  Elec       q    Type
REMARK                         _______ _______ _______ _____ _____    ______ ____
ROOT
ATOM      1  C   UNL A   1      40.547 -21.958 -37.416  0.00  0.00    +0.213 C 
ATOM      2  O   UNL A   1      41.243 -22.968 -37.439  0.00  0.00    -0.276 OA
ATOM      3  N   UNL A   1      40.631 -20.948 -38.347  0.00  0.00    -0.315 N 
ATOM      4  H   UNL A   1      39.996 -20.198 -38.293  0.00  0.00    +0.000 HD
ENDROOT
BRANCH   1   5
ATOM      5  C   UNL A   1      39.510 -21.728 -36.337  0.00  0.00    +0.024 C 
BRANCH   5   6
ATOM      6  C   UNL A   1      39.342 -22.946 -35.434  0.00  0.00    -0.045 C 
BRANCH   6   7
ATOM      7  C   UNL A   1      38.840 -22.621 -34.023  0.00  0.00    -0.051 C 
BRANCH   7   8
ATOM      8  C   UNL A   1      37.575 -21.759 -33.972  0.00  0.00    -0.037 C 
BRANCH   8   9
ATOM      9  C   UNL A   1      37.353 -21.107 -32.605  0.00  0.00    +0.012 C 
BRANCH   9  12
ATOM     10  C   UNL A   1      37.855 -18.633 -32.851  0.00  0.00    +0.246 C 
ATOM     11  O   UNL A   1      37.483 -17.511 -32.513  0.00  0.00    -0.270 OA
ATOM     12  N   UNL A   1      37.000 -19.702 -32.733  0.00  0.00    -0.311 N 
ATOM     13  H   UNL A   1      36.038 -19.492 -32.735  0.00  0.00    +0.000 HD
BRANCH  10  19
ATOM     14  C   UNL A   1      39.608 -18.380 -34.617  0.00  0.00    +0.044 A 
ATOM     15  C   UNL A   1      40.955 -18.511 -34.993  0.00  0.00    -0.040 A 
ATOM     16  C   UNL A   1      41.876 -19.166 -34.170  0.00  0.00    -0.060 A 
ATOM     17  C   UNL A   1      41.474 -19.687 -32.945  0.00  0.00    -0.061 A 
ATOM     18  C   UNL A   1      40.157 -19.520 -32.522  0.00  0.00    -0.048 A 
ATOM     19  C   UNL A   1      39.242 -18.828 -33.329  0.00  0.00    +0.058 A 
BRANCH  14  20
ATOM     20  N   UNL A   1      38.684 -17.677 -35.442  0.00  0.00    -0.314 N 
ATOM     21  H   UNL A   1      37.914 -17.265 -34.988  0.00  0.00    +0.000 HD
BRANCH  20  27
ATOM     22  C   UNL A   1      39.424 -14.708 -39.400  0.00  0.00    -0.039 C 
ATOM     23  C   UNL A   1      39.052 -16.030 -38.781  0.00  0.00    -0.046 A 
ATOM     24  C   UNL A   1      38.622 -17.068 -39.622  0.00  0.00    -0.058 A 
ATOM     25  C   UNL A   1      38.236 -18.295 -39.094  0.00  0.00    -0.060 A 
ATOM     26  C   UNL A   1      38.283 -18.504 -37.719  0.00  0.00    -0.040 A 
ATOM     27  C   UNL A   1      38.756 -17.507 -36.854  0.00  0.00    +0.035 A 
ATOM     28  C   UNL A   1      39.134 -16.250 -37.385  0.00  0.00    -0.026 A 
ATOM     29  C   UNL A   1      39.565 -15.141 -36.456  0.00  0.00    -0.038 C 
ENDBRANCH  20  27
ENDBRANCH  14  20
ENDBRANCH  10  19
ENDBRANCH   9  12
ENDBRANCH   8   9
ENDBRANCH   7   8
ENDBRANCH   6   7
ENDBRANCH   5   6
ENDBRANCH   1   5
BRANCH   3  30
ATOM     30  C   UNL A   1      41.624 -20.951 -39.403  0.00  0.00    +0.012 C 
BRANCH  30  31
ATOM     31  C   UNL A   1      42.379 -19.623 -39.497  0.00  0.00    -0.037 C 
BRANCH  31  32
ATOM     32  C   UNL A   1      41.932 -18.604 -38.445  0.00  0.00    -0.052 C 
BRANCH  32  33
ATOM     33  C   UNL A   1      42.755 -17.316 -38.521  0.00  0.00    -0.053 C 
BRANCH  33  34
ATOM     34  C   UNL A   1      42.443 -16.542 -39.805  0.00  0.00    -0.053 C 
BRANCH  34  35
ATOM     35  C   UNL A   1      43.720 -16.105 -40.523  0.00  0.00    -0.052 C 
BRANCH  35  36
ATOM     36  C   UNL A   1      44.863 -17.086 -40.260  0.00  0.00    -0.037 C 
BRANCH  36  37
ATOM     37  C   UNL A   1      46.228 -16.403 -40.364  0.00  0.00    +0.009 C 
BRANCH  37  38
ATOM     38  N   UNL A   1      47.173 -17.101 -39.483  0.00  0.00    -0.343 N 
ATOM     39  H   UNL A   1      48.054 -16.743 -39.229  0.00  0.00    +0.000 HD
BRANCH  38  40
ATOM     40  C   UNL A   1      46.666 -18.358 -39.038  0.00  0.00    +0.041 A 
ATOM     41  C   UNL A   1      46.088 -18.490 -37.760  0.00  0.00    -0.005 A 
ATOM     42  C   UNL A   1      45.565 -19.740 -37.414  0.00  0.00    +0.047 A 
ATOM     43  N   UNL A   1      45.544 -20.797 -38.262  0.00  0.00    -0.251 NA
ATOM     44  C   UNL A   1      46.082 -20.667 -39.480  0.00  0.00    +0.074 A 
ATOM     45  C   UNL A   1      46.060 -21.769 -40.324  0.00  0.00    -0.017 A 
ATOM     46  C   UNL A   1      46.615 -21.715 -41.599  0.00  0.00    +0.043 A 
ATOM     47 CL   UNL A   1      46.569 -23.104 -42.613  0.00  0.00    -0.083 Cl
ATOM     48  C   UNL A   1      47.212 -20.549 -42.054  0.00  0.00    -0.043 A 
ATOM     49  C   UNL A   1      47.241 -19.433 -41.221  0.00  0.00    -0.049 A 
ATOM     50  C   UNL A   1      46.665 -19.467 -39.928  0.00  0.00    +0.022 A 
ATOM     51  C   UNL A   1      44.923 -19.991 -36.074  0.00  0.00    -0.010 C 
ATOM     52  C   UNL A   1      45.337 -18.982 -35.009  0.00  0.00    -0.047 C 
ATOM     53  C   UNL A   1      45.183 -17.571 -35.555  0.00  0.00    -0.049 C 
ATOM     54  C   UNL A   1      46.101 -17.359 -36.759  0.00  0.00    -0.024 C 
ENDBRANCH  38  40
ENDBRANCH  37  38
ENDBRANCH  36  37
ENDBRANCH  35  36
ENDBRANCH  34  35
ENDBRANCH  33  34
ENDBRANCH  32  33
ENDBRANCH  31  32
ENDBRANCH  30  31
ENDBRANCH   3  30
TORSDOF 19
ENDMDL
MODEL 11
REMARK VINA RESULT:    -5.783      3.371      9.218
REMARK INTER + INTRA:         -18.978
REMARK INTER:                 -12.398
REMARK INTRA:                  -6.580
REMARK UNBOUND:                -6.772
REMARK  Name = cpd54.pdb
REMARK  21 active torsions:
REMARK  status: ('A' for Active; 'I' for Inactive)
REMARK    1  A    between atoms: C_1  and  C_2
REMARK    2  A    between atoms: C_6  and  N_7
REMARK    3  A    between atoms: N_7  and  C_8
REMARK    4  A    between atoms: C_13  and  C_14
REMARK    5  A    between atoms: N_16  and  C_17
REMARK    6  A    between atoms: C_17  and  C_18
REMARK    7  A    between atoms: C_18  and  C_19
REMARK    8  A    between atoms: C_19  and  C_20
REMARK    9  A    between atoms: C_20  and  C_21
REMARK   10  A    between atoms: C_21  and  C_22
REMARK   11  A    between atoms: N_24  and  C_25
REMARK   12  A    between atoms: C_25  and  C_26
REMARK   13  A    between atoms: C_26  and  C_27
REMARK   14  A    between atoms: C_27  and  C_28
REMARK   15  A    between atoms: C_28  and  C_29
REMARK   16  A    between atoms: C_29  and  C_30
REMARK   17  A    between atoms: C_30  and  C_31
REMARK   18  A    between atoms: C_31  and  C_32
REMARK   19  A    between atoms: C_32  and  N_33
REMARK   20  A    between atoms: N_33  and  C_34
REMARK   21  A    between atoms: C_49  and  C_50
REMARK                            x       y       z     vdW  Elec       q    Type
REMARK                         _______ _______ _______ _____ _____    ______ ____
ROOT
ATOM      1  C   UNL A   1      39.299 -18.425 -37.007  0.00  0.00    +0.213 C 
ATOM      2  O   UNL A   1      38.573 -17.583 -36.487  0.00  0.00    -0.276 OA
ATOM      3  N   UNL A   1      40.115 -18.173 -38.085  0.00  0.00    -0.315 N 
ATOM      4  H   UNL A   1      40.713 -18.887 -38.406  0.00  0.00    +0.000 HD
ENDROOT
BRANCH   1   5
ATOM      5  C   UNL A   1      39.362 -19.849 -36.495  0.00  0.00    +0.024 C 
BRANCH   5   6
ATOM      6  C   UNL A   1      39.472 -20.863 -37.629  0.00  0.00    -0.045 C 
BRANCH   6   7
ATOM      7  C   UNL A   1      40.767 -21.683 -37.619  0.00  0.00    -0.051 C 
BRANCH   7   8
ATOM      8  C   UNL A   1      41.243 -22.151 -38.998  0.00  0.00    -0.037 C 
BRANCH   8   9
ATOM      9  C   UNL A   1      42.218 -21.171 -39.655  0.00  0.00    +0.012 C 
BRANCH   9  12
ATOM     10  C   UNL A   1      44.712 -21.051 -40.100  0.00  0.00    +0.246 C 
ATOM     11  O   UNL A   1      45.699 -21.727 -40.385  0.00  0.00    -0.270 OA
ATOM     12  N   UNL A   1      43.587 -21.660 -39.599  0.00  0.00    -0.311 N 
ATOM     13  H   UNL A   1      43.723 -22.527 -39.152  0.00  0.00    +0.000 HD
BRANCH  10  19
ATOM     14  C   UNL A   1      45.271 -18.721 -39.384  0.00  0.00    +0.044 A 
ATOM     15  C   UNL A   1      45.343 -17.355 -39.705  0.00  0.00    -0.040 A 
ATOM     16  C   UNL A   1      44.793 -16.860 -40.891  0.00  0.00    -0.060 A 
ATOM     17  C   UNL A   1      44.177 -17.724 -41.791  0.00  0.00    -0.061 A 
ATOM     18  C   UNL A   1      44.144 -19.091 -41.524  0.00  0.00    -0.048 A 
ATOM     19  C   UNL A   1      44.730 -19.593 -40.353  0.00  0.00    +0.058 A 
BRANCH  14  20
ATOM     20  N   UNL A   1      45.868 -19.223 -38.192  0.00  0.00    -0.314 N 
ATOM     21  H   UNL A   1      46.763 -19.623 -38.283  0.00  0.00    +0.000 HD
BRANCH  20  27
ATOM     22  C   UNL A   1      45.833 -17.402 -33.533  0.00  0.00    -0.039 C 
ATOM     23  C   UNL A   1      45.346 -18.359 -34.589  0.00  0.00    -0.046 A 
ATOM     24  C   UNL A   1      44.428 -19.355 -34.223  0.00  0.00    -0.058 A 
ATOM     25  C   UNL A   1      43.978 -20.283 -35.155  0.00  0.00    -0.060 A 
ATOM     26  C   UNL A   1      44.431 -20.221 -36.469  0.00  0.00    -0.040 A 
ATOM     27  C   UNL A   1      45.308 -19.208 -36.883  0.00  0.00    +0.035 A 
ATOM     28  C   UNL A   1      45.783 -18.272 -35.933  0.00  0.00    -0.026 A 
ATOM     29  C   UNL A   1      46.793 -17.230 -36.348  0.00  0.00    -0.038 C 
ENDBRANCH  20  27
ENDBRANCH  14  20
ENDBRANCH  10  19
ENDBRANCH   9  12
ENDBRANCH   8   9
ENDBRANCH   7   8
ENDBRANCH   6   7
ENDBRANCH   5   6
ENDBRANCH   1   5
BRANCH   3  30
ATOM     30  C   UNL A   1      40.125 -16.892 -38.764  0.00  0.00    +0.012 C 
BRANCH  30  31
ATOM     31  C   UNL A   1      41.521 -16.509 -39.263  0.00  0.00    -0.037 C 
BRANCH  31  32
ATOM     32  C   UNL A   1      42.223 -15.494 -38.358  0.00  0.00    -0.052 C 
BRANCH  32  33
ATOM     33  C   UNL A   1      43.080 -16.184 -37.293  0.00  0.00    -0.053 C 
BRANCH  33  34
ATOM     34  C   UNL A   1      42.585 -15.841 -35.886  0.00  0.00    -0.053 C 
BRANCH  34  35
ATOM     35  C   UNL A   1      41.970 -17.059 -35.194  0.00  0.00    -0.052 C 
BRANCH  35  36
ATOM     36  C   UNL A   1      41.672 -16.763 -33.723  0.00  0.00    -0.037 C 
BRANCH  36  37
ATOM     37  C   UNL A   1      40.167 -16.723 -33.451  0.00  0.00    +0.009 C 
BRANCH  37  38
ATOM     38  N   UNL A   1      39.880 -17.550 -32.272  0.00  0.00    -0.343 N 
ATOM     39  H   UNL A   1      40.246 -17.375 -31.375  0.00  0.00    +0.000 HD
BRANCH  38  40
ATOM     40  C   UNL A   1      39.007 -18.637 -32.577  0.00  0.00    +0.041 A 
ATOM     41  C   UNL A   1      39.517 -19.935 -32.776  0.00  0.00    -0.005 A 
ATOM     42  C   UNL A   1      38.597 -20.960 -33.019  0.00  0.00    +0.047 A 
ATOM     43  N   UNL A   1      37.256 -20.769 -33.019  0.00  0.00    -0.251 NA
ATOM     44  C   UNL A   1      36.772 -19.537 -32.817  0.00  0.00    +0.074 A 
ATOM     45  C   UNL A   1      35.395 -19.367 -32.836  0.00  0.00    -0.017 A 
ATOM     46  C   UNL A   1      34.819 -18.113 -32.652  0.00  0.00    +0.043 A 
ATOM     47 CL   UNL A   1      33.107 -17.943 -32.685  0.00  0.00    -0.083 Cl
ATOM     48  C   UNL A   1      35.617 -16.998 -32.449  0.00  0.00    -0.043 A 
ATOM     49  C   UNL A   1      37.002 -17.152 -32.424  0.00  0.00    -0.049 A 
ATOM     50  C   UNL A   1      37.602 -18.423 -32.594  0.00  0.00    +0.022 A 
ATOM     51  C   UNL A   1      39.034 -22.385 -33.243  0.00  0.00    -0.010 C 
ATOM     52  C   UNL A   1      40.490 -22.508 -33.674  0.00  0.00    -0.047 C 
ATOM     53  C   UNL A   1      41.370 -21.693 -32.739  0.00  0.00    -0.049 C 
ATOM     54  C   UNL A   1      41.002 -20.212 -32.811  0.00  0.00    -0.024 C 
ENDBRANCH  38  40
ENDBRANCH  37  38
ENDBRANCH  36  37
ENDBRANCH  35  36
ENDBRANCH  34  35
ENDBRANCH  33  34
ENDBRANCH  32  33
ENDBRANCH  31  32
ENDBRANCH  30  31
ENDBRANCH   3  30
TORSDOF 19
ENDMDL
MODEL 12
REMARK VINA RESULT:    -5.778      2.936      8.517
REMARK INTER + INTRA:         -18.969
REMARK INTER:                 -12.795
REMARK INTRA:                  -6.173
REMARK UNBOUND:                -6.772
REMARK  Name = cpd54.pdb
REMARK  21 active torsions:
REMARK  status: ('A' for Active; 'I' for Inactive)
REMARK    1  A    between atoms: C_1  and  C_2
REMARK    2  A    between atoms: C_6  and  N_7
REMARK    3  A    between atoms: N_7  and  C_8
REMARK    4  A    between atoms: C_13  and  C_14
REMARK    5  A    between atoms: N_16  and  C_17
REMARK    6  A    between atoms: C_17  and  C_18
REMARK    7  A    between atoms: C_18  and  C_19
REMARK    8  A    between atoms: C_19  and  C_20
REMARK    9  A    between atoms: C_20  and  C_21
REMARK   10  A    between atoms: C_21  and  C_22
REMARK   11  A    between atoms: N_24  and  C_25
REMARK   12  A    between atoms: C_25  and  C_26
REMARK   13  A    between atoms: C_26  and  C_27
REMARK   14  A    between atoms: C_27  and  C_28
REMARK   15  A    between atoms: C_28  and  C_29
REMARK   16  A    between atoms: C_29  and  C_30
REMARK   17  A    between atoms: C_30  and  C_31
REMARK   18  A    between atoms: C_31  and  C_32
REMARK   19  A    between atoms: C_32  and  N_33
REMARK   20  A    between atoms: N_33  and  C_34
REMARK   21  A    between atoms: C_49  and  C_50
REMARK                            x       y       z     vdW  Elec       q    Type
REMARK                         _______ _______ _______ _____ _____    ______ ____
ROOT
ATOM      1  C   UNL A   1      38.665 -18.171 -39.280  0.00  0.00    +0.213 C 
ATOM      2  O   UNL A   1      39.205 -17.156 -38.853  0.00  0.00    -0.276 OA
ATOM      3  N   UNL A   1      37.489 -18.171 -39.994  0.00  0.00    -0.315 N 
ATOM      4  H   UNL A   1      37.151 -19.023 -40.354  0.00  0.00    +0.000 HD
ENDROOT
BRANCH   1   5
ATOM      5  C   UNL A   1      39.260 -19.546 -39.056  0.00  0.00    +0.024 C 
BRANCH   5   6
ATOM      6  C   UNL A   1      39.737 -19.737 -37.620  0.00  0.00    -0.045 C 
BRANCH   6   7
ATOM      7  C   UNL A   1      39.636 -21.179 -37.108  0.00  0.00    -0.051 C 
BRANCH   7   8
ATOM      8  C   UNL A   1      40.969 -21.932 -37.043  0.00  0.00    -0.037 C 
BRANCH   8   9
ATOM      9  C   UNL A   1      42.129 -21.144 -37.658  0.00  0.00    +0.012 C 
BRANCH   9  12
ATOM     10  C   UNL A   1      43.989 -19.806 -36.571  0.00  0.00    +0.246 C 
ATOM     11  O   UNL A   1      45.098 -19.899 -36.048  0.00  0.00    -0.270 OA
ATOM     12  N   UNL A   1      43.195 -20.920 -36.694  0.00  0.00    -0.311 N 
ATOM     13  H   UNL A   1      43.367 -21.650 -36.056  0.00  0.00    +0.000 HD
BRANCH  10  19
ATOM     14  C   UNL A   1      44.206 -17.948 -38.230  0.00  0.00    +0.044 A 
ATOM     15  C   UNL A   1      43.695 -16.750 -38.759  0.00  0.00    -0.040 A 
ATOM     16  C   UNL A   1      42.646 -16.071 -38.133  0.00  0.00    -0.060 A 
ATOM     17  C   UNL A   1      42.071 -16.585 -36.975  0.00  0.00    -0.061 A 
ATOM     18  C   UNL A   1      42.520 -17.800 -36.462  0.00  0.00    -0.048 A 
ATOM     19  C   UNL A   1      43.546 -18.502 -37.112  0.00  0.00    +0.058 A 
BRANCH  14  20
ATOM     20  N   UNL A   1      45.248 -18.654 -38.896  0.00  0.00    -0.314 N 
ATOM     21  H   UNL A   1      46.154 -18.556 -38.522  0.00  0.00    +0.000 HD
BRANCH  20  27
ATOM     22  C   UNL A   1      46.530 -22.800 -41.384  0.00  0.00    -0.039 C 
ATOM     23  C   UNL A   1      45.808 -21.483 -41.279  0.00  0.00    -0.046 A 
ATOM     24  C   UNL A   1      45.117 -21.004 -42.403  0.00  0.00    -0.058 A 
ATOM     25  C   UNL A   1      44.465 -19.777 -42.366  0.00  0.00    -0.060 A 
ATOM     26  C   UNL A   1      44.485 -19.016 -41.201  0.00  0.00    -0.040 A 
ATOM     27  C   UNL A   1      45.121 -19.487 -40.043  0.00  0.00    +0.035 A 
ATOM     28  C   UNL A   1      45.801 -20.728 -40.082  0.00  0.00    -0.026 A 
ATOM     29  C   UNL A   1      46.560 -21.205 -38.868  0.00  0.00    -0.038 C 
ENDBRANCH  20  27
ENDBRANCH  14  20
ENDBRANCH  10  19
ENDBRANCH   9  12
ENDBRANCH   8   9
ENDBRANCH   7   8
ENDBRANCH   6   7
ENDBRANCH   5   6
ENDBRANCH   1   5
BRANCH   3  30
ATOM     30  C   UNL A   1      36.730 -16.959 -40.233  0.00  0.00    +0.012 C 
BRANCH  30  31
ATOM     31  C   UNL A   1      35.406 -16.939 -39.465  0.00  0.00    -0.037 C 
BRANCH  31  32
ATOM     32  C   UNL A   1      35.595 -16.828 -37.949  0.00  0.00    -0.052 C 
BRANCH  32  33
ATOM     33  C   UNL A   1      35.049 -18.059 -37.221  0.00  0.00    -0.053 C 
BRANCH  33  34
ATOM     34  C   UNL A   1      36.189 -18.905 -36.649  0.00  0.00    -0.053 C 
BRANCH  34  35
ATOM     35  C   UNL A   1      36.193 -18.887 -35.120  0.00  0.00    -0.052 C 
BRANCH  35  36
ATOM     36  C   UNL A   1      36.921 -17.653 -34.586  0.00  0.00    -0.037 C 
BRANCH  36  37
ATOM     37  C   UNL A   1      38.430 -17.888 -34.488  0.00  0.00    +0.009 C 
BRANCH  37  38
ATOM     38  N   UNL A   1      38.737 -18.426 -33.156  0.00  0.00    -0.343 N 
ATOM     39  H   UNL A   1      38.224 -18.210 -32.345  0.00  0.00    +0.000 HD
BRANCH  38  40
ATOM     40  C   UNL A   1      39.866 -19.297 -33.176  0.00  0.00    +0.041 A 
ATOM     41  C   UNL A   1      39.703 -20.684 -33.366  0.00  0.00    -0.005 A 
ATOM     42  C   UNL A   1      40.859 -21.468 -33.426  0.00  0.00    +0.047 A 
ATOM     43  N   UNL A   1      42.110 -20.953 -33.363  0.00  0.00    -0.251 NA
ATOM     44  C   UNL A   1      42.265 -19.634 -33.194  0.00  0.00    +0.074 A 
ATOM     45  C   UNL A   1      43.557 -19.133 -33.118  0.00  0.00    -0.017 A 
ATOM     46  C   UNL A   1      43.797 -17.775 -32.926  0.00  0.00    +0.043 A 
ATOM     47 CL   UNL A   1      45.414 -17.195 -32.835  0.00  0.00    -0.083 Cl
ATOM     48  C   UNL A   1      42.739 -16.888 -32.801  0.00  0.00    -0.043 A 
ATOM     49  C   UNL A   1      41.436 -17.374 -32.877  0.00  0.00    -0.049 A 
ATOM     50  C   UNL A   1      41.176 -18.749 -33.089  0.00  0.00    +0.022 A 
ATOM     51  C   UNL A   1      40.799 -22.960 -33.629  0.00  0.00    -0.010 C 
ATOM     52  C   UNL A   1      39.449 -23.564 -33.262  0.00  0.00    -0.047 C 
ATOM     53  C   UNL A   1      38.335 -22.768 -33.924  0.00  0.00    -0.049 C 
ATOM     54  C   UNL A   1      38.336 -21.325 -33.422  0.00  0.00    -0.024 C 
ENDBRANCH  38  40
ENDBRANCH  37  38
ENDBRANCH  36  37
ENDBRANCH  35  36
ENDBRANCH  34  35
ENDBRANCH  33  34
ENDBRANCH  32  33
ENDBRANCH  31  32
ENDBRANCH  30  31
ENDBRANCH   3  30
TORSDOF 19
ENDMDL
MODEL 13
REMARK VINA RESULT:    -5.724      2.544      5.336
REMARK INTER + INTRA:         -18.854
REMARK INTER:                 -12.893
REMARK INTRA:                  -5.960
REMARK UNBOUND:                -6.772
REMARK  Name = cpd54.pdb
REMARK  21 active torsions:
REMARK  status: ('A' for Active; 'I' for Inactive)
REMARK    1  A    between atoms: C_1  and  C_2
REMARK    2  A    between atoms: C_6  and  N_7
REMARK    3  A    between atoms: N_7  and  C_8
REMARK    4  A    between atoms: C_13  and  C_14
REMARK    5  A    between atoms: N_16  and  C_17
REMARK    6  A    between atoms: C_17  and  C_18
REMARK    7  A    between atoms: C_18  and  C_19
REMARK    8  A    between atoms: C_19  and  C_20
REMARK    9  A    between atoms: C_20  and  C_21
REMARK   10  A    between atoms: C_21  and  C_22
REMARK   11  A    between atoms: N_24  and  C_25
REMARK   12  A    between atoms: C_25  and  C_26
REMARK   13  A    between atoms: C_26  and  C_27
REMARK   14  A    between atoms: C_27  and  C_28
REMARK   15  A    between atoms: C_28  and  C_29
REMARK   16  A    between atoms: C_29  and  C_30
REMARK   17  A    between atoms: C_30  and  C_31
REMARK   18  A    between atoms: C_31  and  C_32
REMARK   19  A    between atoms: C_32  and  N_33
REMARK   20  A    between atoms: N_33  and  C_34
REMARK   21  A    between atoms: C_49  and  C_50
REMARK                            x       y       z     vdW  Elec       q    Type
REMARK                         _______ _______ _______ _____ _____    ______ ____
ROOT
ATOM      1  C   UNL A   1      40.671 -21.920 -37.376  0.00  0.00    +0.213 C 
ATOM      2  O   UNL A   1      41.197 -23.023 -37.484  0.00  0.00    -0.276 OA
ATOM      3  N   UNL A   1      40.986 -20.841 -38.170  0.00  0.00    -0.315 N 
ATOM      4  H   UNL A   1      40.476 -20.005 -38.061  0.00  0.00    +0.000 HD
ENDROOT
BRANCH   1   5
ATOM      5  C   UNL A   1      39.606 -21.642 -36.337  0.00  0.00    +0.024 C 
BRANCH   5   6
ATOM      6  C   UNL A   1      39.226 -22.895 -35.555  0.00  0.00    -0.045 C 
BRANCH   6   7
ATOM      7  C   UNL A   1      38.750 -22.626 -34.123  0.00  0.00    -0.051 C 
BRANCH   7   8
ATOM      8  C   UNL A   1      37.571 -21.654 -34.010  0.00  0.00    -0.037 C 
BRANCH   8   9
ATOM      9  C   UNL A   1      37.447 -21.027 -32.619  0.00  0.00    +0.012 C 
BRANCH   9  12
ATOM     10  C   UNL A   1      38.118 -18.589 -32.818  0.00  0.00    +0.246 C 
ATOM     11  O   UNL A   1      37.841 -17.453 -32.439  0.00  0.00    -0.270 OA
ATOM     12  N   UNL A   1      37.193 -19.597 -32.697  0.00  0.00    -0.311 N 
ATOM     13  H   UNL A   1      36.249 -19.319 -32.659  0.00  0.00    +0.000 HD
BRANCH  10  19
ATOM     14  C   UNL A   1      39.821 -18.417 -34.642  0.00  0.00    +0.044 A 
ATOM     15  C   UNL A   1      41.141 -18.633 -35.071  0.00  0.00    -0.040 A 
ATOM     16  C   UNL A   1      42.043 -19.369 -34.297  0.00  0.00    -0.060 A 
ATOM     17  C   UNL A   1      41.649 -19.889 -33.068  0.00  0.00    -0.061 A 
ATOM     18  C   UNL A   1      40.362 -19.641 -32.593  0.00  0.00    -0.048 A 
ATOM     19  C   UNL A   1      39.470 -18.869 -33.352  0.00  0.00    +0.058 A 
BRANCH  14  20
ATOM     20  N   UNL A   1      38.921 -17.633 -35.419  0.00  0.00    -0.314 N 
ATOM     21  H   UNL A   1      38.205 -17.169 -34.927  0.00  0.00    +0.000 HD
BRANCH  20  27
ATOM     22  C   UNL A   1      39.509 -14.618 -39.367  0.00  0.00    -0.039 C 
ATOM     23  C   UNL A   1      39.168 -15.949 -38.751  0.00  0.00    -0.046 A 
ATOM     24  C   UNL A   1      38.718 -16.982 -39.587  0.00  0.00    -0.058 A 
ATOM     25  C   UNL A   1      38.358 -18.217 -39.061  0.00  0.00    -0.060 A 
ATOM     26  C   UNL A   1      38.451 -18.440 -37.690  0.00  0.00    -0.040 A 
ATOM     27  C   UNL A   1      38.945 -17.448 -36.830  0.00  0.00    +0.035 A 
ATOM     28  C   UNL A   1      39.297 -16.183 -37.360  0.00  0.00    -0.026 A 
ATOM     29  C   UNL A   1      39.749 -15.081 -36.433  0.00  0.00    -0.038 C 
ENDBRANCH  20  27
ENDBRANCH  14  20
ENDBRANCH  10  19
ENDBRANCH   9  12
ENDBRANCH   8   9
ENDBRANCH   7   8
ENDBRANCH   6   7
ENDBRANCH   5   6
ENDBRANCH   1   5
BRANCH   3  30
ATOM     30  C   UNL A   1      42.041 -20.892 -39.163  0.00  0.00    +0.012 C 
BRANCH  30  31
ATOM     31  C   UNL A   1      42.663 -19.518 -39.423  0.00  0.00    -0.037 C 
BRANCH  31  32
ATOM     32  C   UNL A   1      42.060 -18.413 -38.552  0.00  0.00    -0.052 C 
BRANCH  32  33
ATOM     33  C   UNL A   1      42.748 -17.066 -38.791  0.00  0.00    -0.053 C 
BRANCH  33  34
ATOM     34  C   UNL A   1      42.467 -16.552 -40.205  0.00  0.00    -0.053 C 
BRANCH  34  35
ATOM     35  C   UNL A   1      43.755 -16.145 -40.923  0.00  0.00    -0.052 C 
BRANCH  35  36
ATOM     36  C   UNL A   1      44.868 -17.165 -40.676  0.00  0.00    -0.037 C 
BRANCH  36  37
ATOM     37  C   UNL A   1      46.244 -16.587 -41.010  0.00  0.00    +0.009 C 
BRANCH  37  38
ATOM     38  N   UNL A   1      47.251 -17.260 -40.178  0.00  0.00    -0.343 N 
ATOM     39  H   UNL A   1      48.195 -16.985 -40.129  0.00  0.00    +0.000 HD
BRANCH  38  40
ATOM     40  C   UNL A   1      46.702 -18.356 -39.449  0.00  0.00    +0.041 A 
ATOM     41  C   UNL A   1      46.613 -19.636 -40.033  0.00  0.00    -0.005 A 
ATOM     42  C   UNL A   1      46.113 -20.673 -39.240  0.00  0.00    +0.047 A 
ATOM     43  N   UNL A   1      45.766 -20.514 -37.940  0.00  0.00    -0.251 NA
ATOM     44  C   UNL A   1      45.862 -19.301 -37.383  0.00  0.00    +0.074 A 
ATOM     45  C   UNL A   1      45.487 -19.161 -36.054  0.00  0.00    -0.017 A 
ATOM     46  C   UNL A   1      45.543 -17.927 -35.412  0.00  0.00    +0.043 A 
ATOM     47 CL   UNL A   1      45.067 -17.796 -33.764  0.00  0.00    -0.083 Cl
ATOM     48  C   UNL A   1      45.975 -16.801 -36.095  0.00  0.00    -0.043 A 
ATOM     49  C   UNL A   1      46.359 -16.924 -37.429  0.00  0.00    -0.049 A 
ATOM     50  C   UNL A   1      46.322 -18.175 -38.091  0.00  0.00    +0.022 A 
ATOM     51  C   UNL A   1      45.977 -22.080 -39.763  0.00  0.00    -0.010 C 
ATOM     52  C   UNL A   1      45.941 -22.156 -41.285  0.00  0.00    -0.047 C 
ATOM     53  C   UNL A   1      47.093 -21.351 -41.864  0.00  0.00    -0.049 C 
ATOM     54  C   UNL A   1      46.962 -19.877 -41.483  0.00  0.00    -0.024 C 
ENDBRANCH  38  40
ENDBRANCH  37  38
ENDBRANCH  36  37
ENDBRANCH  35  36
ENDBRANCH  34  35
ENDBRANCH  33  34
ENDBRANCH  32  33
ENDBRANCH  31  32
ENDBRANCH  30  31
ENDBRANCH   3  30
TORSDOF 19
ENDMDL
MODEL 14
REMARK VINA RESULT:    -5.683      2.964      9.026
REMARK INTER + INTRA:         -18.767
REMARK INTER:                 -12.448
REMARK INTRA:                  -6.319
REMARK UNBOUND:                -6.772
REMARK  Name = cpd54.pdb
REMARK  21 active torsions:
REMARK  status: ('A' for Active; 'I' for Inactive)
REMARK    1  A    between atoms: C_1  and  C_2
REMARK    2  A    between atoms: C_6  and  N_7
REMARK    3  A    between atoms: N_7  and  C_8
REMARK    4  A    between atoms: C_13  and  C_14
REMARK    5  A    between atoms: N_16  and  C_17
REMARK    6  A    between atoms: C_17  and  C_18
REMARK    7  A    between atoms: C_18  and  C_19
REMARK    8  A    between atoms: C_19  and  C_20
REMARK    9  A    between atoms: C_20  and  C_21
REMARK   10  A    between atoms: C_21  and  C_22
REMARK   11  A    between atoms: N_24  and  C_25
REMARK   12  A    between atoms: C_25  and  C_26
REMARK   13  A    between atoms: C_26  and  C_27
REMARK   14  A    between atoms: C_27  and  C_28
REMARK   15  A    between atoms: C_28  and  C_29
REMARK   16  A    between atoms: C_29  and  C_30
REMARK   17  A    between atoms: C_30  and  C_31
REMARK   18  A    between atoms: C_31  and  C_32
REMARK   19  A    between atoms: C_32  and  N_33
REMARK   20  A    between atoms: N_33  and  C_34
REMARK   21  A    between atoms: C_49  and  C_50
REMARK                            x       y       z     vdW  Elec       q    Type
REMARK                         _______ _______ _______ _____ _____    ______ ____
ROOT
ATOM      1  C   UNL A   1      38.815 -18.502 -37.212  0.00  0.00    +0.213 C 
ATOM      2  O   UNL A   1      37.976 -17.655 -36.924  0.00  0.00    -0.276 OA
ATOM      3  N   UNL A   1      39.754 -18.343 -38.205  0.00  0.00    -0.315 N 
ATOM      4  H   UNL A   1      40.433 -19.045 -38.334  0.00  0.00    +0.000 HD
ENDROOT
BRANCH   1   5
ATOM      5  C   UNL A   1      38.896 -19.826 -36.481  0.00  0.00    +0.024 C 
BRANCH   5   6
ATOM      6  C   UNL A   1      39.099 -20.997 -37.437  0.00  0.00    -0.045 C 
BRANCH   6   7
ATOM      7  C   UNL A   1      40.492 -21.634 -37.369  0.00  0.00    -0.051 C 
BRANCH   7   8
ATOM      8  C   UNL A   1      41.038 -22.132 -38.711  0.00  0.00    -0.037 C 
BRANCH   8   9
ATOM      9  C   UNL A   1      42.075 -21.185 -39.320  0.00  0.00    +0.012 C 
BRANCH   9  12
ATOM     10  C   UNL A   1      44.550 -21.255 -39.867  0.00  0.00    +0.246 C 
ATOM     11  O   UNL A   1      45.475 -22.007 -40.170  0.00  0.00    -0.270 OA
ATOM     12  N   UNL A   1      43.408 -21.768 -39.304  0.00  0.00    -0.311 N 
ATOM     13  H   UNL A   1      43.501 -22.629 -38.836  0.00  0.00    +0.000 HD
BRANCH  10  19
ATOM     14  C   UNL A   1      45.200 -18.934 -39.198  0.00  0.00    +0.044 A 
ATOM     15  C   UNL A   1      45.362 -17.586 -39.558  0.00  0.00    -0.040 A 
ATOM     16  C   UNL A   1      44.898 -17.104 -40.786  0.00  0.00    -0.060 A 
ATOM     17  C   UNL A   1      44.280 -17.965 -41.688  0.00  0.00    -0.061 A 
ATOM     18  C   UNL A   1      44.159 -19.318 -41.379  0.00  0.00    -0.048 A 
ATOM     19  C   UNL A   1      44.660 -19.809 -40.165  0.00  0.00    +0.058 A 
BRANCH  14  20
ATOM     20  N   UNL A   1      45.710 -19.426 -37.962  0.00  0.00    -0.314 N 
ATOM     21  H   UNL A   1      46.574 -19.896 -37.999  0.00  0.00    +0.000 HD
BRANCH  20  27
ATOM     22  C   UNL A   1      45.598 -17.347 -33.413  0.00  0.00    -0.039 C 
ATOM     23  C   UNL A   1      45.101 -18.335 -34.435  0.00  0.00    -0.046 A 
ATOM     24  C   UNL A   1      44.118 -19.261 -34.053  0.00  0.00    -0.058 A 
ATOM     25  C   UNL A   1      43.654 -20.216 -34.950  0.00  0.00    -0.060 A 
ATOM     26  C   UNL A   1      44.158 -20.251 -36.247  0.00  0.00    -0.040 A 
ATOM     27  C   UNL A   1      45.103 -19.309 -36.679  0.00  0.00    +0.035 A 
ATOM     28  C   UNL A   1      45.592 -18.347 -35.763  0.00  0.00    -0.026 A 
ATOM     29  C   UNL A   1      46.670 -17.382 -36.192  0.00  0.00    -0.038 C 
ENDBRANCH  20  27
ENDBRANCH  14  20
ENDBRANCH  10  19
ENDBRANCH   9  12
ENDBRANCH   8   9
ENDBRANCH   7   8
ENDBRANCH   6   7
ENDBRANCH   5   6
ENDBRANCH   1   5
BRANCH   3  30
ATOM     30  C   UNL A   1      39.778 -17.178 -39.068  0.00  0.00    +0.012 C 
BRANCH  30  31
ATOM     31  C   UNL A   1      41.189 -16.844 -39.556  0.00  0.00    -0.037 C 
BRANCH  31  32
ATOM     32  C   UNL A   1      41.920 -15.854 -38.645  0.00  0.00    -0.052 C 
BRANCH  32  33
ATOM     33  C   UNL A   1      42.734 -16.573 -37.566  0.00  0.00    -0.053 C 
BRANCH  33  34
ATOM     34  C   UNL A   1      42.390 -16.038 -36.174  0.00  0.00    -0.053 C 
BRANCH  34  35
ATOM     35  C   UNL A   1      41.682 -17.094 -35.324  0.00  0.00    -0.052 C 
BRANCH  35  36
ATOM     36  C   UNL A   1      41.174 -16.493 -34.012  0.00  0.00    -0.037 C 
BRANCH  36  37
ATOM     37  C   UNL A   1      39.650 -16.576 -33.909  0.00  0.00    +0.009 C 
BRANCH  37  38
ATOM     38  N   UNL A   1      39.293 -17.038 -32.560  0.00  0.00    -0.343 N 
ATOM     39  H   UNL A   1      39.639 -16.633 -31.732  0.00  0.00    +0.000 HD
BRANCH  38  40
ATOM     40  C   UNL A   1      38.388 -18.140 -32.591  0.00  0.00    +0.041 A 
ATOM     41  C   UNL A   1      36.996 -17.928 -32.631  0.00  0.00    -0.005 A 
ATOM     42  C   UNL A   1      36.173 -19.055 -32.713  0.00  0.00    +0.047 A 
ATOM     43  N   UNL A   1      36.652 -20.319 -32.807  0.00  0.00    -0.251 NA
ATOM     44  C   UNL A   1      37.976 -20.520 -32.781  0.00  0.00    +0.074 A 
ATOM     45  C   UNL A   1      38.440 -21.825 -32.864  0.00  0.00    -0.017 A 
ATOM     46  C   UNL A   1      39.801 -22.112 -32.825  0.00  0.00    +0.043 A 
ATOM     47 CL   UNL A   1      40.336 -23.744 -32.929  0.00  0.00    -0.083 Cl
ATOM     48  C   UNL A   1      40.730 -21.090 -32.697  0.00  0.00    -0.043 A 
ATOM     49  C   UNL A   1      40.280 -19.774 -32.615  0.00  0.00    -0.049 A 
ATOM     50  C   UNL A   1      38.900 -19.464 -32.669  0.00  0.00    +0.022 A 
ATOM     51  C   UNL A   1      34.671 -18.943 -32.765  0.00  0.00    -0.010 C 
ATOM     52  C   UNL A   1      34.148 -17.616 -32.227  0.00  0.00    -0.047 C 
ATOM     53  C   UNL A   1      34.913 -16.468 -32.866  0.00  0.00    -0.049 C 
ATOM     54  C   UNL A   1      36.396 -16.547 -32.508  0.00  0.00    -0.024 C 
ENDBRANCH  38  40
ENDBRANCH  37  38
ENDBRANCH  36  37
ENDBRANCH  35  36
ENDBRANCH  34  35
ENDBRANCH  33  34
ENDBRANCH  32  33
ENDBRANCH  31  32
ENDBRANCH  30  31
ENDBRANCH   3  30
TORSDOF 19
ENDMDL
MODEL 15
REMARK VINA RESULT:    -5.606      2.734      8.969
REMARK INTER + INTRA:         -18.606
REMARK INTER:                 -12.069
REMARK INTRA:                  -6.537
REMARK UNBOUND:                -6.772
REMARK  Name = cpd54.pdb
REMARK  21 active torsions:
REMARK  status: ('A' for Active; 'I' for Inactive)
REMARK    1  A    between atoms: C_1  and  C_2
REMARK    2  A    between atoms: C_6  and  N_7
REMARK    3  A    between atoms: N_7  and  C_8
REMARK    4  A    between atoms: C_13  and  C_14
REMARK    5  A    between atoms: N_16  and  C_17
REMARK    6  A    between atoms: C_17  and  C_18
REMARK    7  A    between atoms: C_18  and  C_19
REMARK    8  A    between atoms: C_19  and  C_20
REMARK    9  A    between atoms: C_20  and  C_21
REMARK   10  A    between atoms: C_21  and  C_22
REMARK   11  A    between atoms: N_24  and  C_25
REMARK   12  A    between atoms: C_25  and  C_26
REMARK   13  A    between atoms: C_26  and  C_27
REMARK   14  A    between atoms: C_27  and  C_28
REMARK   15  A    between atoms: C_28  and  C_29
REMARK   16  A    between atoms: C_29  and  C_30
REMARK   17  A    between atoms: C_30  and  C_31
REMARK   18  A    between atoms: C_31  and  C_32
REMARK   19  A    between atoms: C_32  and  N_33
REMARK   20  A    between atoms: N_33  and  C_34
REMARK   21  A    between atoms: C_49  and  C_50
REMARK                            x       y       z     vdW  Elec       q    Type
REMARK                         _______ _______ _______ _____ _____    ______ ____
ROOT
ATOM      1  C   UNL A   1      42.671 -20.736 -39.582  0.00  0.00    +0.213 C 
ATOM      2  O   UNL A   1      43.368 -20.004 -38.886  0.00  0.00    -0.276 OA
ATOM      3  N   UNL A   1      41.296 -20.746 -39.545  0.00  0.00    -0.315 N 
ATOM      4  H   UNL A   1      40.807 -21.320 -40.179  0.00  0.00    +0.000 HD
ENDROOT
BRANCH   1   5
ATOM      5  C   UNL A   1      43.277 -21.715 -40.566  0.00  0.00    +0.024 C 
BRANCH   5   6
ATOM      6  C   UNL A   1      43.674 -21.041 -41.875  0.00  0.00    -0.045 C 
BRANCH   6   7
ATOM      7  C   UNL A   1      44.994 -21.545 -42.470  0.00  0.00    -0.051 C 
BRANCH   7   8
ATOM      8  C   UNL A   1      46.243 -21.180 -41.663  0.00  0.00    -0.037 C 
BRANCH   8   9
ATOM      9  C   UNL A   1      46.271 -19.709 -41.241  0.00  0.00    +0.012 C 
BRANCH   9  12
ATOM     10  C   UNL A   1      46.483 -18.412 -39.072  0.00  0.00    +0.246 C 
ATOM     11  O   UNL A   1      46.927 -18.466 -37.926  0.00  0.00    -0.270 OA
ATOM     12  N   UNL A   1      46.307 -19.567 -39.793  0.00  0.00    -0.311 N 
ATOM     13  H   UNL A   1      46.192 -20.394 -39.271  0.00  0.00    +0.000 HD
BRANCH  10  19
ATOM     14  C   UNL A   1      44.887 -16.566 -39.620  0.00  0.00    +0.044 A 
ATOM     15  C   UNL A   1      44.682 -15.275 -40.135  0.00  0.00    -0.040 A 
ATOM     16  C   UNL A   1      45.708 -14.584 -40.787  0.00  0.00    -0.060 A 
ATOM     17  C   UNL A   1      46.967 -15.162 -40.920  0.00  0.00    -0.061 A 
ATOM     18  C   UNL A   1      47.213 -16.417 -40.367  0.00  0.00    -0.048 A 
ATOM     19  C   UNL A   1      46.195 -17.093 -39.679  0.00  0.00    +0.058 A 
BRANCH  14  20
ATOM     20  N   UNL A   1      43.849 -17.247 -38.923  0.00  0.00    -0.314 N 
ATOM     21  H   UNL A   1      43.703 -18.190 -39.163  0.00  0.00    +0.000 HD
BRANCH  20  27
ATOM     22  C   UNL A   1      39.509 -15.131 -37.613  0.00  0.00    -0.039 C 
ATOM     23  C   UNL A   1      40.901 -15.612 -37.299  0.00  0.00    -0.046 A 
ATOM     24  C   UNL A   1      41.418 -15.383 -36.015  0.00  0.00    -0.058 A 
ATOM     25  C   UNL A   1      42.710 -15.777 -35.688  0.00  0.00    -0.060 A 
ATOM     26  C   UNL A   1      43.501 -16.417 -36.638  0.00  0.00    -0.040 A 
ATOM     27  C   UNL A   1      42.999 -16.709 -37.915  0.00  0.00    +0.035 A 
ATOM     28  C   UNL A   1      41.690 -16.293 -38.257  0.00  0.00    -0.026 A 
ATOM     29  C   UNL A   1      41.170 -16.526 -39.655  0.00  0.00    -0.038 C 
ENDBRANCH  20  27
ENDBRANCH  14  20
ENDBRANCH  10  19
ENDBRANCH   9  12
ENDBRANCH   8   9
ENDBRANCH   7   8
ENDBRANCH   6   7
ENDBRANCH   5   6
ENDBRANCH   1   5
BRANCH   3  30
ATOM     30  C   UNL A   1      40.542 -19.939 -38.606  0.00  0.00    +0.012 C 
BRANCH  30  31
ATOM     31  C   UNL A   1      40.254 -20.683 -37.300  0.00  0.00    -0.037 C 
BRANCH  31  32
ATOM     32  C   UNL A   1      39.016 -20.155 -36.569  0.00  0.00    -0.052 C 
BRANCH  32  33
ATOM     33  C   UNL A   1      39.246 -18.749 -36.010  0.00  0.00    -0.053 C 
BRANCH  33  34
ATOM     34  C   UNL A   1      37.977 -18.210 -35.346  0.00  0.00    -0.053 C 
BRANCH  34  35
ATOM     35  C   UNL A   1      38.248 -16.911 -34.586  0.00  0.00    -0.052 C 
BRANCH  35  36
ATOM     36  C   UNL A   1      38.393 -17.172 -33.086  0.00  0.00    -0.037 C 
BRANCH  36  37
ATOM     37  C   UNL A   1      39.853 -17.085 -32.638  0.00  0.00    +0.009 C 
BRANCH  37  38
ATOM     38  N   UNL A   1      40.176 -18.279 -31.847  0.00  0.00    -0.343 N 
ATOM     39  H   UNL A   1      39.966 -18.377 -30.890  0.00  0.00    +0.000 HD
BRANCH  38  40
ATOM     40  C   UNL A   1      40.829 -19.281 -32.625  0.00  0.00    +0.041 A 
ATOM     41  C   UNL A   1      42.186 -19.147 -32.979  0.00  0.00    -0.005 A 
ATOM     42  C   UNL A   1      42.772 -20.193 -33.698  0.00  0.00    +0.047 A 
ATOM     43  N   UNL A   1      42.115 -21.334 -34.018  0.00  0.00    -0.251 NA
ATOM     44  C   UNL A   1      40.828 -21.465 -33.672  0.00  0.00    +0.074 A 
ATOM     45  C   UNL A   1      40.174 -22.637 -34.025  0.00  0.00    -0.017 A 
ATOM     46  C   UNL A   1      38.832 -22.838 -33.715  0.00  0.00    +0.043 A 
ATOM     47 CL   UNL A   1      38.057 -24.304 -34.172  0.00  0.00    -0.083 Cl
ATOM     48  C   UNL A   1      38.114 -21.860 -33.044  0.00  0.00    -0.043 A 
ATOM     49  C   UNL A   1      38.757 -20.678 -32.680  0.00  0.00    -0.049 A 
ATOM     50  C   UNL A   1      40.125 -20.466 -32.974  0.00  0.00    +0.022 A 
ATOM     51  C   UNL A   1      44.217 -20.155 -34.124  0.00  0.00    -0.010 C 
ATOM     52  C   UNL A   1      44.798 -18.746 -34.157  0.00  0.00    -0.047 C 
ATOM     53  C   UNL A   1      44.481 -18.032 -32.853  0.00  0.00    -0.049 C 
ATOM     54  C   UNL A   1      42.970 -17.892 -32.672  0.00  0.00    -0.024 C 
ENDBRANCH  38  40
ENDBRANCH  37  38
ENDBRANCH  36  37
ENDBRANCH  35  36
ENDBRANCH  34  35
ENDBRANCH  33  34
ENDBRANCH  32  33
ENDBRANCH  31  32
ENDBRANCH  30  31
ENDBRANCH   3  30
TORSDOF 19
ENDMDL
MODEL 16
REMARK VINA RESULT:    -5.588      2.399      4.729
REMARK INTER + INTRA:         -18.566
REMARK INTER:                 -10.480
REMARK INTRA:                  -8.086
REMARK UNBOUND:                -6.772
REMARK  Name = cpd54.pdb
REMARK  21 active torsions:
REMARK  status: ('A' for Active; 'I' for Inactive)
REMARK    1  A    between atoms: C_1  and  C_2
REMARK    2  A    between atoms: C_6  and  N_7
REMARK    3  A    between atoms: N_7  and  C_8
REMARK    4  A    between atoms: C_13  and  C_14
REMARK    5  A    between atoms: N_16  and  C_17
REMARK    6  A    between atoms: C_17  and  C_18
REMARK    7  A    between atoms: C_18  and  C_19
REMARK    8  A    between atoms: C_19  and  C_20
REMARK    9  A    between atoms: C_20  and  C_21
REMARK   10  A    between atoms: C_21  and  C_22
REMARK   11  A    between atoms: N_24  and  C_25
REMARK   12  A    between atoms: C_25  and  C_26
REMARK   13  A    between atoms: C_26  and  C_27
REMARK   14  A    between atoms: C_27  and  C_28
REMARK   15  A    between atoms: C_28  and  C_29
REMARK   16  A    between atoms: C_29  and  C_30
REMARK   17  A    between atoms: C_30  and  C_31
REMARK   18  A    between atoms: C_31  and  C_32
REMARK   19  A    between atoms: C_32  and  N_33
REMARK   20  A    between atoms: N_33  and  C_34
REMARK   21  A    between atoms: C_49  and  C_50
REMARK                            x       y       z     vdW  Elec       q    Type
REMARK                         _______ _______ _______ _____ _____    ______ ____
ROOT
ATOM      1  C   UNL A   1      43.882 -14.697 -35.793  0.00  0.00    +0.213 C 
ATOM      2  O   UNL A   1      44.246 -14.161 -34.751  0.00  0.00    -0.276 OA
ATOM      3  N   UNL A   1      44.740 -15.073 -36.801  0.00  0.00    -0.315 N 
ATOM      4  H   UNL A   1      44.376 -15.552 -37.581  0.00  0.00    +0.000 HD
ENDROOT
BRANCH   1   5
ATOM      5  C   UNL A   1      42.424 -15.000 -36.067  0.00  0.00    +0.024 C 
BRANCH   5   6
ATOM      6  C   UNL A   1      41.904 -16.144 -35.202  0.00  0.00    -0.045 C 
BRANCH   6   7
ATOM      7  C   UNL A   1      42.451 -17.524 -35.584  0.00  0.00    -0.051 C 
BRANCH   7   8
ATOM      8  C   UNL A   1      42.616 -18.498 -34.413  0.00  0.00    -0.037 C 
BRANCH   8   9
ATOM      9  C   UNL A   1      43.166 -19.860 -34.844  0.00  0.00    +0.012 C 
BRANCH   9  12
ATOM     10  C   UNL A   1      41.245 -21.484 -34.522  0.00  0.00    +0.246 C 
ATOM     11  O   UNL A   1      40.576 -22.068 -33.672  0.00  0.00    -0.270 OA
ATOM     12  N   UNL A   1      42.466 -20.952 -34.186  0.00  0.00    -0.311 N 
ATOM     13  H   UNL A   1      42.919 -21.357 -33.411  0.00  0.00    +0.000 HD
BRANCH  10  19
ATOM     14  C   UNL A   1      39.513 -20.571 -36.079  0.00  0.00    +0.044 A 
ATOM     15  C   UNL A   1      39.081 -20.365 -37.400  0.00  0.00    -0.040 A 
ATOM     16  C   UNL A   1      39.734 -20.970 -38.478  0.00  0.00    -0.060 A 
ATOM     17  C   UNL A   1      40.846 -21.778 -38.260  0.00  0.00    -0.061 A 
ATOM     18  C   UNL A   1      41.330 -21.952 -36.964  0.00  0.00    -0.048 A 
ATOM     19  C   UNL A   1      40.699 -21.313 -35.887  0.00  0.00    +0.058 A 
BRANCH  14  20
ATOM     20  N   UNL A   1      38.867 -19.920 -34.990  0.00  0.00    -0.314 N 
ATOM     21  H   UNL A   1      38.393 -20.499 -34.350  0.00  0.00    +0.000 HD
BRANCH  20  27
ATOM     22  C   UNL A   1      39.225 -16.127 -31.748  0.00  0.00    -0.039 C 
ATOM     23  C   UNL A   1      38.943 -16.680 -33.120  0.00  0.00    -0.046 A 
ATOM     24  C   UNL A   1      38.489 -15.804 -34.117  0.00  0.00    -0.058 A 
ATOM     25  C   UNL A   1      38.181 -16.274 -35.389  0.00  0.00    -0.060 A 
ATOM     26  C   UNL A   1      38.333 -17.626 -35.684  0.00  0.00    -0.040 A 
ATOM     27  C   UNL A   1      38.833 -18.521 -34.727  0.00  0.00    +0.035 A 
ATOM     28  C   UNL A   1      39.131 -18.050 -33.426  0.00  0.00    -0.026 A 
ATOM     29  C   UNL A   1      39.589 -19.019 -32.363  0.00  0.00    -0.038 C 
ENDBRANCH  20  27
ENDBRANCH  14  20
ENDBRANCH  10  19
ENDBRANCH   9  12
ENDBRANCH   8   9
ENDBRANCH   7   8
ENDBRANCH   6   7
ENDBRANCH   5   6
ENDBRANCH   1   5
BRANCH   3  30
ATOM     30  C   UNL A   1      46.160 -14.786 -36.755  0.00  0.00    +0.012 C 
BRANCH  30  31
ATOM     31  C   UNL A   1      47.014 -16.043 -36.944  0.00  0.00    -0.037 C 
BRANCH  31  32
ATOM     32  C   UNL A   1      46.221 -17.340 -36.758  0.00  0.00    -0.052 C 
BRANCH  32  33
ATOM     33  C   UNL A   1      47.112 -18.574 -36.917  0.00  0.00    -0.053 C 
BRANCH  33  34
ATOM     34  C   UNL A   1      46.282 -19.859 -36.850  0.00  0.00    -0.053 C 
BRANCH  34  35
ATOM     35  C   UNL A   1      46.243 -20.575 -38.201  0.00  0.00    -0.052 C 
BRANCH  35  36
ATOM     36  C   UNL A   1      44.807 -20.913 -38.603  0.00  0.00    -0.037 C 
BRANCH  36  37
ATOM     37  C   UNL A   1      43.882 -19.703 -38.456  0.00  0.00    +0.009 C 
BRANCH  37  38
ATOM     38  N   UNL A   1      43.509 -19.229 -39.796  0.00  0.00    -0.343 N 
ATOM     39  H   UNL A   1      43.265 -19.825 -40.540  0.00  0.00    +0.000 HD
BRANCH  38  40
ATOM     40  C   UNL A   1      43.541 -17.806 -39.891  0.00  0.00    +0.041 A 
ATOM     41  C   UNL A   1      42.389 -17.040 -39.621  0.00  0.00    -0.005 A 
ATOM     42  C   UNL A   1      42.510 -15.649 -39.684  0.00  0.00    +0.047 A 
ATOM     43  N   UNL A   1      43.681 -15.015 -39.937  0.00  0.00    -0.251 NA
ATOM     44  C   UNL A   1      44.777 -15.743 -40.182  0.00  0.00    +0.074 A 
ATOM     45  C   UNL A   1      45.960 -15.070 -40.453  0.00  0.00    -0.017 A 
ATOM     46  C   UNL A   1      47.137 -15.760 -40.734  0.00  0.00    +0.043 A 
ATOM     47 CL   UNL A   1      48.582 -14.888 -41.067  0.00  0.00    -0.083 Cl
ATOM     48  C   UNL A   1      47.149 -17.146 -40.754  0.00  0.00    -0.043 A 
ATOM     49  C   UNL A   1      45.970 -17.837 -40.481  0.00  0.00    -0.049 A 
ATOM     50  C   UNL A   1      44.770 -17.151 -40.177  0.00  0.00    +0.022 A 
ATOM     51  C   UNL A   1      41.343 -14.735 -39.411  0.00  0.00    -0.010 C 
ATOM     52  C   UNL A   1      39.992 -15.422 -39.566  0.00  0.00    -0.047 C 
ATOM     53  C   UNL A   1      39.992 -16.732 -38.794  0.00  0.00    -0.049 C 
ATOM     54  C   UNL A   1      41.049 -17.684 -39.354  0.00  0.00    -0.024 C 
ENDBRANCH  38  40
ENDBRANCH  37  38
ENDBRANCH  36  37
ENDBRANCH  35  36
ENDBRANCH  34  35
ENDBRANCH  33  34
ENDBRANCH  32  33
ENDBRANCH  31  32
ENDBRANCH  30  31
ENDBRANCH   3  30
TORSDOF 19
ENDMDL
MODEL 17
REMARK VINA RESULT:    -5.564      2.715      7.696
REMARK INTER + INTRA:         -18.517
REMARK INTER:                 -11.981
REMARK INTRA:                  -6.536
REMARK UNBOUND:                -6.772
REMARK  Name = cpd54.pdb
REMARK  21 active torsions:
REMARK  status: ('A' for Active; 'I' for Inactive)
REMARK    1  A    between atoms: C_1  and  C_2
REMARK    2  A    between atoms: C_6  and  N_7
REMARK    3  A    between atoms: N_7  and  C_8
REMARK    4  A    between atoms: C_13  and  C_14
REMARK    5  A    between atoms: N_16  and  C_17
REMARK    6  A    between atoms: C_17  and  C_18
REMARK    7  A    between atoms: C_18  and  C_19
REMARK    8  A    between atoms: C_19  and  C_20
REMARK    9  A    between atoms: C_20  and  C_21
REMARK   10  A    between atoms: C_21  and  C_22
REMARK   11  A    between atoms: N_24  and  C_25
REMARK   12  A    between atoms: C_25  and  C_26
REMARK   13  A    between atoms: C_26  and  C_27
REMARK   14  A    between atoms: C_27  and  C_28
REMARK   15  A    between atoms: C_28  and  C_29
REMARK   16  A    between atoms: C_29  and  C_30
REMARK   17  A    between atoms: C_30  and  C_31
REMARK   18  A    between atoms: C_31  and  C_32
REMARK   19  A    between atoms: C_32  and  N_33
REMARK   20  A    between atoms: N_33  and  C_34
REMARK   21  A    between atoms: C_49  and  C_50
REMARK                            x       y       z     vdW  Elec       q    Type
REMARK                         _______ _______ _______ _____ _____    ______ ____
ROOT
ATOM      1  C   UNL A   1      44.579 -16.342 -35.121  0.00  0.00    +0.213 C 
ATOM      2  O   UNL A   1      45.458 -16.985 -35.685  0.00  0.00    -0.276 OA
ATOM      3  N   UNL A   1      43.981 -16.731 -33.944  0.00  0.00    -0.315 N 
ATOM      4  H   UNL A   1      43.325 -16.129 -33.523  0.00  0.00    +0.000 HD
ENDROOT
BRANCH   1   5
ATOM      5  C   UNL A   1      44.062 -15.035 -35.682  0.00  0.00    +0.024 C 
BRANCH   5   6
ATOM      6  C   UNL A   1      45.192 -14.133 -36.170  0.00  0.00    -0.045 C 
BRANCH   6   7
ATOM      7  C   UNL A   1      44.734 -12.974 -37.062  0.00  0.00    -0.051 C 
BRANCH   7   8
ATOM      8  C   UNL A   1      45.385 -12.934 -38.449  0.00  0.00    -0.037 C 
BRANCH   8   9
ATOM      9  C   UNL A   1      45.673 -14.328 -39.011  0.00  0.00    +0.012 C 
BRANCH   9  12
ATOM     10  C   UNL A   1      44.220 -15.614 -40.645  0.00  0.00    +0.246 C 
ATOM     11  O   UNL A   1      44.079 -15.896 -41.833  0.00  0.00    -0.270 OA
ATOM     12  N   UNL A   1      44.999 -14.542 -40.283  0.00  0.00    -0.311 N 
ATOM     13  H   UNL A   1      45.114 -13.838 -40.962  0.00  0.00    +0.000 HD
BRANCH  10  19
ATOM     14  C   UNL A   1      44.177 -17.707 -39.276  0.00  0.00    +0.044 A 
ATOM     15  C   UNL A   1      43.590 -18.443 -38.233  0.00  0.00    -0.040 A 
ATOM     16  C   UNL A   1      42.400 -18.023 -37.631  0.00  0.00    -0.060 A 
ATOM     17  C   UNL A   1      41.782 -16.847 -38.046  0.00  0.00    -0.061 A 
ATOM     18  C   UNL A   1      42.375 -16.068 -39.038  0.00  0.00    -0.048 A 
ATOM     19  C   UNL A   1      43.589 -16.469 -39.614  0.00  0.00    +0.058 A 
BRANCH  14  20
ATOM     20  N   UNL A   1      45.409 -18.121 -39.857  0.00  0.00    -0.314 N 
ATOM     21  H   UNL A   1      46.054 -17.409 -40.075  0.00  0.00    +0.000 HD
BRANCH  20  27
ATOM     22  C   UNL A   1      44.995 -22.216 -42.700  0.00  0.00    -0.039 C 
ATOM     23  C   UNL A   1      45.548 -21.474 -41.512  0.00  0.00    -0.046 A 
ATOM     24  C   UNL A   1      46.356 -22.170 -40.601  0.00  0.00    -0.058 A 
ATOM     25  C   UNL A   1      46.860 -21.536 -39.470  0.00  0.00    -0.060 A 
ATOM     26  C   UNL A   1      46.571 -20.194 -39.240  0.00  0.00    -0.040 A 
ATOM     27  C   UNL A   1      45.809 -19.454 -40.157  0.00  0.00    +0.035 A 
ATOM     28  C   UNL A   1      45.280 -20.099 -41.300  0.00  0.00    -0.026 A 
ATOM     29  C   UNL A   1      44.389 -19.334 -42.248  0.00  0.00    -0.038 C 
ENDBRANCH  20  27
ENDBRANCH  14  20
ENDBRANCH  10  19
ENDBRANCH   9  12
ENDBRANCH   8   9
ENDBRANCH   7   8
ENDBRANCH   6   7
ENDBRANCH   5   6
ENDBRANCH   1   5
BRANCH   3  30
ATOM     30  C   UNL A   1      44.285 -17.995 -33.303  0.00  0.00    +0.012 C 
BRANCH  30  31
ATOM     31  C   UNL A   1      43.297 -19.097 -33.692  0.00  0.00    -0.037 C 
BRANCH  31  32
ATOM     32  C   UNL A   1      42.160 -19.268 -32.681  0.00  0.00    -0.052 C 
BRANCH  32  33
ATOM     33  C   UNL A   1      40.926 -18.453 -33.075  0.00  0.00    -0.053 C 
BRANCH  33  34
ATOM     34  C   UNL A   1      40.857 -18.264 -34.593  0.00  0.00    -0.053 C 
BRANCH  34  35
ATOM     35  C   UNL A   1      39.801 -17.230 -34.985  0.00  0.00    -0.052 C 
BRANCH  35  36
ATOM     36  C   UNL A   1      38.803 -17.815 -35.985  0.00  0.00    -0.037 C 
BRANCH  36  37
ATOM     37  C   UNL A   1      37.924 -18.889 -35.340  0.00  0.00    +0.009 C 
BRANCH  37  38
ATOM     38  N   UNL A   1      37.859 -20.048 -36.241  0.00  0.00    -0.343 N 
ATOM     39  H   UNL A   1      37.073 -20.273 -36.789  0.00  0.00    +0.000 HD
BRANCH  38  40
ATOM     40  C   UNL A   1      39.066 -20.807 -36.229  0.00  0.00    +0.041 A 
ATOM     41  C   UNL A   1      39.866 -20.907 -37.385  0.00  0.00    -0.005 A 
ATOM     42  C   UNL A   1      41.061 -21.625 -37.283  0.00  0.00    +0.047 A 
ATOM     43  N   UNL A   1      41.502 -22.174 -36.126  0.00  0.00    -0.251 NA
ATOM     44  C   UNL A   1      40.748 -22.068 -35.025  0.00  0.00    +0.074 A 
ATOM     45  C   UNL A   1      41.215 -22.652 -33.856  0.00  0.00    -0.017 A 
ATOM     46  C   UNL A   1      40.478 -22.598 -32.676  0.00  0.00    +0.043 A 
ATOM     47 CL   UNL A   1      41.091 -23.337 -31.248  0.00  0.00    -0.083 Cl
ATOM     48  C   UNL A   1      39.248 -21.959 -32.646  0.00  0.00    -0.043 A 
ATOM     49  C   UNL A   1      38.766 -21.365 -33.811  0.00  0.00    -0.049 A 
ATOM     50  C   UNL A   1      39.511 -21.397 -35.014  0.00  0.00    +0.022 A 
ATOM     51  C   UNL A   1      41.992 -21.792 -38.457  0.00  0.00    -0.010 C 
ATOM     52  C   UNL A   1      41.310 -21.573 -39.802  0.00  0.00    -0.047 C 
ATOM     53  C   UNL A   1      40.523 -20.273 -39.771  0.00  0.00    -0.049 C 
ATOM     54  C   UNL A   1      39.422 -20.338 -38.713  0.00  0.00    -0.024 C 
ENDBRANCH  38  40
ENDBRANCH  37  38
ENDBRANCH  36  37
ENDBRANCH  35  36
ENDBRANCH  34  35
ENDBRANCH  33  34
ENDBRANCH  32  33
ENDBRANCH  31  32
ENDBRANCH  30  31
ENDBRANCH   3  30
TORSDOF 19
ENDMDL
MODEL 18
REMARK VINA RESULT:    -5.540      2.491      5.727
REMARK INTER + INTRA:         -18.466
REMARK INTER:                 -11.739
REMARK INTRA:                  -6.727
REMARK UNBOUND:                -6.772
REMARK  Name = cpd54.pdb
REMARK  21 active torsions:
REMARK  status: ('A' for Active; 'I' for Inactive)
REMARK    1  A    between atoms: C_1  and  C_2
REMARK    2  A    between atoms: C_6  and  N_7
REMARK    3  A    between atoms: N_7  and  C_8
REMARK    4  A    between atoms: C_13  and  C_14
REMARK    5  A    between atoms: N_16  and  C_17
REMARK    6  A    between atoms: C_17  and  C_18
REMARK    7  A    between atoms: C_18  and  C_19
REMARK    8  A    between atoms: C_19  and  C_20
REMARK    9  A    between atoms: C_20  and  C_21
REMARK   10  A    between atoms: C_21  and  C_22
REMARK   11  A    between atoms: N_24  and  C_25
REMARK   12  A    between atoms: C_25  and  C_26
REMARK   13  A    between atoms: C_26  and  C_27
REMARK   14  A    between atoms: C_27  and  C_28
REMARK   15  A    between atoms: C_28  and  C_29
REMARK   16  A    between atoms: C_29  and  C_30
REMARK   17  A    between atoms: C_30  and  C_31
REMARK   18  A    between atoms: C_31  and  C_32
REMARK   19  A    between atoms: C_32  and  N_33
REMARK   20  A    between atoms: N_33  and  C_34
REMARK   21  A    between atoms: C_49  and  C_50
REMARK                            x       y       z     vdW  Elec       q    Type
REMARK                         _______ _______ _______ _____ _____    ______ ____
ROOT
ATOM      1  C   UNL A   1      40.480 -21.785 -37.947  0.00  0.00    +0.213 C 
ATOM      2  O   UNL A   1      39.412 -21.516 -38.488  0.00  0.00    -0.276 OA
ATOM      3  N   UNL A   1      41.665 -21.148 -38.231  0.00  0.00    -0.315 N 
ATOM      4  H   UNL A   1      42.467 -21.382 -37.709  0.00  0.00    +0.000 HD
ENDROOT
BRANCH   1   5
ATOM      5  C   UNL A   1      40.589 -22.868 -36.894  0.00  0.00    +0.024 C 
BRANCH   5   6
ATOM      6  C   UNL A   1      39.470 -22.778 -35.861  0.00  0.00    -0.045 C 
BRANCH   6   7
ATOM      7  C   UNL A   1      39.925 -23.007 -34.415  0.00  0.00    -0.051 C 
BRANCH   7   8
ATOM      8  C   UNL A   1      39.132 -22.229 -33.360  0.00  0.00    -0.037 C 
BRANCH   8   9
ATOM      9  C   UNL A   1      39.949 -21.113 -32.704  0.00  0.00    +0.012 C 
BRANCH   9  12
ATOM     10  C   UNL A   1      41.287 -20.013 -34.556  0.00  0.00    +0.246 C 
ATOM     11  O   UNL A   1      42.215 -20.188 -35.343  0.00  0.00    -0.270 OA
ATOM     12  N   UNL A   1      41.161 -20.824 -33.455  0.00  0.00    -0.311 N 
ATOM     13  H   UNL A   1      41.985 -21.259 -33.138  0.00  0.00    +0.000 HD
BRANCH  10  19
ATOM     14  C   UNL A   1      40.517 -17.638 -34.413  0.00  0.00    +0.044 A 
ATOM     15  C   UNL A   1      39.575 -16.661 -34.776  0.00  0.00    -0.040 A 
ATOM     16  C   UNL A   1      38.390 -17.007 -35.433  0.00  0.00    -0.060 A 
ATOM     17  C   UNL A   1      38.132 -18.335 -35.758  0.00  0.00    -0.061 A 
ATOM     18  C   UNL A   1      39.076 -19.315 -35.461  0.00  0.00    -0.048 A 
ATOM     19  C   UNL A   1      40.282 -18.963 -34.837  0.00  0.00    +0.058 A 
BRANCH  14  20
ATOM     20  N   UNL A   1      41.739 -17.273 -33.778  0.00  0.00    -0.314 N 
ATOM     21  H   UNL A   1      42.160 -17.957 -33.210  0.00  0.00    +0.000 HD
BRANCH  20  27
ATOM     22  C   UNL A   1      45.181 -14.396 -35.993  0.00  0.00    -0.039 C 
ATOM     23  C   UNL A   1      44.149 -14.651 -34.926  0.00  0.00    -0.046 A 
ATOM     24  C   UNL A   1      43.968 -13.687 -33.922  0.00  0.00    -0.058 A 
ATOM     25  C   UNL A   1      43.052 -13.894 -32.896  0.00  0.00    -0.060 A 
ATOM     26  C   UNL A   1      42.298 -15.063 -32.865  0.00  0.00    -0.040 A 
ATOM     27  C   UNL A   1      42.416 -16.025 -33.880  0.00  0.00    +0.035 A 
ATOM     28  C   UNL A   1      43.359 -15.826 -34.916  0.00  0.00    -0.026 A 
ATOM     29  C   UNL A   1      43.555 -16.893 -35.966  0.00  0.00    -0.038 C 
ENDBRANCH  20  27
ENDBRANCH  14  20
ENDBRANCH  10  19
ENDBRANCH   9  12
ENDBRANCH   8   9
ENDBRANCH   7   8
ENDBRANCH   6   7
ENDBRANCH   5   6
ENDBRANCH   1   5
BRANCH   3  30
ATOM     30  C   UNL A   1      41.774 -20.144 -39.271  0.00  0.00    +0.012 C 
BRANCH  30  31
ATOM     31  C   UNL A   1      41.922 -18.730 -38.703  0.00  0.00    -0.037 C 
BRANCH  31  32
ATOM     32  C   UNL A   1      40.580 -18.015 -38.521  0.00  0.00    -0.052 C 
BRANCH  32  33
ATOM     33  C   UNL A   1      40.765 -16.505 -38.343  0.00  0.00    -0.053 C 
BRANCH  33  34
ATOM     34  C   UNL A   1      41.733 -15.946 -39.388  0.00  0.00    -0.053 C 
BRANCH  34  35
ATOM     35  C   UNL A   1      42.706 -14.938 -38.773  0.00  0.00    -0.052 C 
BRANCH  35  36
ATOM     36  C   UNL A   1      44.079 -15.022 -39.441  0.00  0.00    -0.037 C 
BRANCH  36  37
ATOM     37  C   UNL A   1      44.118 -16.111 -40.515  0.00  0.00    +0.009 C 
BRANCH  37  38
ATOM     38  N   UNL A   1      45.492 -16.621 -40.619  0.00  0.00    -0.343 N 
ATOM     39  H   UNL A   1      46.238 -16.110 -41.007  0.00  0.00    +0.000 HD
BRANCH  38  40
ATOM     40  C   UNL A   1      45.617 -17.941 -40.094  0.00  0.00    +0.041 A 
ATOM     41  C   UNL A   1      45.174 -19.056 -40.833  0.00  0.00    -0.005 A 
ATOM     42  C   UNL A   1      45.378 -20.322 -40.276  0.00  0.00    +0.047 A 
ATOM     43  N   UNL A   1      46.021 -20.522 -39.100  0.00  0.00    -0.251 NA
ATOM     44  C   UNL A   1      46.452 -19.463 -38.404  0.00  0.00    +0.074 A 
ATOM     45  C   UNL A   1      47.093 -19.694 -37.195  0.00  0.00    -0.017 A 
ATOM     46  C   UNL A   1      47.554 -18.642 -36.408  0.00  0.00    +0.043 A 
ATOM     47 CL   UNL A   1      48.343 -18.971 -34.915  0.00  0.00    -0.083 Cl
ATOM     48  C   UNL A   1      47.374 -17.330 -36.817  0.00  0.00    -0.043 A 
ATOM     49  C   UNL A   1      46.734 -17.080 -38.029  0.00  0.00    -0.049 A 
ATOM     50  C   UNL A   1      46.275 -18.139 -38.849  0.00  0.00    +0.022 A 
ATOM     51  C   UNL A   1      44.946 -21.581 -40.983  0.00  0.00    -0.010 C 
ATOM     52  C   UNL A   1      43.872 -21.341 -42.037  0.00  0.00    -0.047 C 
ATOM     53  C   UNL A   1      44.292 -20.194 -42.943  0.00  0.00    -0.049 C 
ATOM     54  C   UNL A   1      44.432 -18.901 -42.140  0.00  0.00    -0.024 C 
ENDBRANCH  38  40
ENDBRANCH  37  38
ENDBRANCH  36  37
ENDBRANCH  35  36
ENDBRANCH  34  35
ENDBRANCH  33  34
ENDBRANCH  32  33
ENDBRANCH  31  32
ENDBRANCH  30  31
ENDBRANCH   3  30
TORSDOF 19
ENDMDL
MODEL 19
REMARK VINA RESULT:    -5.295      3.387      8.184
REMARK INTER + INTRA:         -17.949
REMARK INTER:                 -12.044
REMARK INTRA:                  -5.905
REMARK UNBOUND:                -6.772
REMARK  Name = cpd54.pdb
REMARK  21 active torsions:
REMARK  status: ('A' for Active; 'I' for Inactive)
REMARK    1  A    between atoms: C_1  and  C_2
REMARK    2  A    between atoms: C_6  and  N_7
REMARK    3  A    between atoms: N_7  and  C_8
REMARK    4  A    between atoms: C_13  and  C_14
REMARK    5  A    between atoms: N_16  and  C_17
REMARK    6  A    between atoms: C_17  and  C_18
REMARK    7  A    between atoms: C_18  and  C_19
REMARK    8  A    between atoms: C_19  and  C_20
REMARK    9  A    between atoms: C_20  and  C_21
REMARK   10  A    between atoms: C_21  and  C_22
REMARK   11  A    between atoms: N_24  and  C_25
REMARK   12  A    between atoms: C_25  and  C_26
REMARK   13  A    between atoms: C_26  and  C_27
REMARK   14  A    between atoms: C_27  and  C_28
REMARK   15  A    between atoms: C_28  and  C_29
REMARK   16  A    between atoms: C_29  and  C_30
REMARK   17  A    between atoms: C_30  and  C_31
REMARK   18  A    between atoms: C_31  and  C_32
REMARK   19  A    between atoms: C_32  and  N_33
REMARK   20  A    between atoms: N_33  and  C_34
REMARK   21  A    between atoms: C_49  and  C_50
REMARK                            x       y       z     vdW  Elec       q    Type
REMARK                         _______ _______ _______ _____ _____    ______ ____
ROOT
ATOM      1  C   UNL A   1      44.603 -13.575 -36.757  0.00  0.00    +0.213 C 
ATOM      2  O   UNL A   1      45.639 -12.963 -36.999  0.00  0.00    -0.276 OA
ATOM      3  N   UNL A   1      43.654 -13.879 -37.706  0.00  0.00    -0.315 N 
ATOM      4  H   UNL A   1      42.878 -14.426 -37.444  0.00  0.00    +0.000 HD
ENDROOT
BRANCH   1   5
ATOM      5  C   UNL A   1      44.270 -14.061 -35.363  0.00  0.00    +0.024 C 
BRANCH   5   6
ATOM      6  C   UNL A   1      43.193 -15.141 -35.373  0.00  0.00    -0.045 C 
BRANCH   6   7
ATOM      7  C   UNL A   1      43.695 -16.531 -35.781  0.00  0.00    -0.051 C 
BRANCH   7   8
ATOM      8  C   UNL A   1      43.621 -17.590 -34.676  0.00  0.00    -0.037 C 
BRANCH   8   9
ATOM      9  C   UNL A   1      44.030 -18.984 -35.161  0.00  0.00    +0.012 C 
BRANCH   9  12
ATOM     10  C   UNL A   1      46.540 -19.342 -35.099  0.00  0.00    +0.246 C 
ATOM     11  O   UNL A   1      47.420 -20.109 -34.712  0.00  0.00    -0.270 OA
ATOM     12  N   UNL A   1      45.280 -19.416 -34.555  0.00  0.00    -0.311 N 
ATOM     13  H   UNL A   1      45.217 -19.805 -33.654  0.00  0.00    +0.000 HD
BRANCH  10  19
ATOM     14  C   UNL A   1      46.846 -18.829 -37.528  0.00  0.00    +0.044 A 
ATOM     15  C   UNL A   1      47.048 -17.866 -38.531  0.00  0.00    -0.040 A 
ATOM     16  C   UNL A   1      47.344 -16.538 -38.211  0.00  0.00    -0.060 A 
ATOM     17  C   UNL A   1      47.425 -16.139 -36.880  0.00  0.00    -0.061 A 
ATOM     18  C   UNL A   1      47.172 -17.061 -35.867  0.00  0.00    -0.048 A 
ATOM     19  C   UNL A   1      46.836 -18.385 -36.188  0.00  0.00    +0.058 A 
BRANCH  14  20
ATOM     20  N   UNL A   1      46.506 -20.171 -37.861  0.00  0.00    -0.314 N 
ATOM     21  H   UNL A   1      47.002 -20.880 -37.392  0.00  0.00    +0.000 HD
BRANCH  20  27
ATOM     22  C   UNL A   1      45.364 -22.098 -42.334  0.00  0.00    -0.039 C 
ATOM     23  C   UNL A   1      44.979 -21.476 -41.018  0.00  0.00    -0.046 A 
ATOM     24  C   UNL A   1      43.629 -21.175 -40.786  0.00  0.00    -0.058 A 
ATOM     25  C   UNL A   1      43.229 -20.568 -39.601  0.00  0.00    -0.060 A 
ATOM     26  C   UNL A   1      44.175 -20.263 -38.626  0.00  0.00    -0.040 A 
ATOM     27  C   UNL A   1      45.526 -20.597 -38.802  0.00  0.00    +0.035 A 
ATOM     28  C   UNL A   1      45.939 -21.199 -40.014  0.00  0.00    -0.026 A 
ATOM     29  C   UNL A   1      47.402 -21.485 -40.249  0.00  0.00    -0.038 C 
ENDBRANCH  20  27
ENDBRANCH  14  20
ENDBRANCH  10  19
ENDBRANCH   9  12
ENDBRANCH   8   9
ENDBRANCH   7   8
ENDBRANCH   6   7
ENDBRANCH   5   6
ENDBRANCH   1   5
BRANCH   3  30
ATOM     30  C   UNL A   1      43.758 -13.422 -39.078  0.00  0.00    +0.012 C 
BRANCH  30  31
ATOM     31  C   UNL A   1      44.376 -14.479 -39.998  0.00  0.00    -0.037 C 
BRANCH  31  32
ATOM     32  C   UNL A   1      44.055 -15.912 -39.565  0.00  0.00    -0.052 C 
BRANCH  32  33
ATOM     33  C   UNL A   1      43.000 -16.553 -40.470  0.00  0.00    -0.053 C 
BRANCH  33  34
ATOM     34  C   UNL A   1      41.827 -17.089 -39.647  0.00  0.00    -0.053 C 
BRANCH  34  35
ATOM     35  C   UNL A   1      40.726 -16.039 -39.483  0.00  0.00    -0.052 C 
BRANCH  35  36
ATOM     36  C   UNL A   1      40.273 -15.941 -38.026  0.00  0.00    -0.037 C 
BRANCH  36  37
ATOM     37  C   UNL A   1      39.720 -17.274 -37.517  0.00  0.00    +0.009 C 
BRANCH  37  38
ATOM     38  N   UNL A   1      40.423 -17.634 -36.279  0.00  0.00    -0.343 N 
ATOM     39  H   UNL A   1      41.310 -17.286 -36.030  0.00  0.00    +0.000 HD
BRANCH  38  40
ATOM     40  C   UNL A   1      39.672 -18.546 -35.480  0.00  0.00    +0.041 A 
ATOM     41  C   UNL A   1      39.905 -19.934 -35.558  0.00  0.00    -0.005 A 
ATOM     42  C   UNL A   1      39.168 -20.762 -34.707  0.00  0.00    +0.047 A 
ATOM     43  N   UNL A   1      38.292 -20.290 -33.787  0.00  0.00    -0.251 NA
ATOM     44  C   UNL A   1      38.079 -18.971 -33.704  0.00  0.00    +0.074 A 
ATOM     45  C   UNL A   1      37.166 -18.515 -32.764  0.00  0.00    -0.017 A 
ATOM     46  C   UNL A   1      36.881 -17.159 -32.632  0.00  0.00    +0.043 A 
ATOM     47 CL   UNL A   1      35.740 -16.634 -31.455  0.00  0.00    -0.083 Cl
ATOM     48  C   UNL A   1      37.505 -16.228 -33.448  0.00  0.00    -0.043 A 
ATOM     49  C   UNL A   1      38.427 -16.669 -34.395  0.00  0.00    -0.049 A 
ATOM     50  C   UNL A   1      38.740 -18.043 -34.531  0.00  0.00    +0.022 A 
ATOM     51  C   UNL A   1      39.340 -22.259 -34.707  0.00  0.00    -0.010 C 
ATOM     52  C   UNL A   1      39.961 -22.794 -35.992  0.00  0.00    -0.047 C 
ATOM     53  C   UNL A   1      41.207 -21.992 -36.330  0.00  0.00    -0.049 C 
ATOM     54  C   UNL A   1      40.852 -20.526 -36.577  0.00  0.00    -0.024 C 
ENDBRANCH  38  40
ENDBRANCH  37  38
ENDBRANCH  36  37
ENDBRANCH  35  36
ENDBRANCH  34  35
ENDBRANCH  33  34
ENDBRANCH  32  33
ENDBRANCH  31  32
ENDBRANCH  30  31
ENDBRANCH   3  30
TORSDOF 19
ENDMDL
MODEL 20
REMARK VINA RESULT:    -5.198      2.678      6.255
REMARK INTER + INTRA:         -17.743
REMARK INTER:                 -11.506
REMARK INTRA:                  -6.237
REMARK UNBOUND:                -6.772
REMARK  Name = cpd54.pdb
REMARK  21 active torsions:
REMARK  status: ('A' for Active; 'I' for Inactive)
REMARK    1  A    between atoms: C_1  and  C_2
REMARK    2  A    between atoms: C_6  and  N_7
REMARK    3  A    between atoms: N_7  and  C_8
REMARK    4  A    between atoms: C_13  and  C_14
REMARK    5  A    between atoms: N_16  and  C_17
REMARK    6  A    between atoms: C_17  and  C_18
REMARK    7  A    between atoms: C_18  and  C_19
REMARK    8  A    between atoms: C_19  and  C_20
REMARK    9  A    between atoms: C_20  and  C_21
REMARK   10  A    between atoms: C_21  and  C_22
REMARK   11  A    between atoms: N_24  and  C_25
REMARK   12  A    between atoms: C_25  and  C_26
REMARK   13  A    between atoms: C_26  and  C_27
REMARK   14  A    between atoms: C_27  and  C_28
REMARK   15  A    between atoms: C_28  and  C_29
REMARK   16  A    between atoms: C_29  and  C_30
REMARK   17  A    between atoms: C_30  and  C_31
REMARK   18  A    between atoms: C_31  and  C_32
REMARK   19  A    between atoms: C_32  and  N_33
REMARK   20  A    between atoms: N_33  and  C_34
REMARK   21  A    between atoms: C_49  and  C_50
REMARK                            x       y       z     vdW  Elec       q    Type
REMARK                         _______ _______ _______ _____ _____    ______ ____
ROOT
ATOM      1  C   UNL A   1      41.174 -15.262 -39.861  0.00  0.00    +0.213 C 
ATOM      2  O   UNL A   1      40.900 -14.076 -39.701  0.00  0.00    -0.276 OA
ATOM      3  N   UNL A   1      40.260 -16.282 -39.734  0.00  0.00    -0.315 N 
ATOM      4  H   UNL A   1      40.545 -17.203 -39.937  0.00  0.00    +0.000 HD
ENDROOT
BRANCH   1   5
ATOM      5  C   UNL A   1      42.572 -15.716 -40.221  0.00  0.00    +0.024 C 
BRANCH   5   6
ATOM      6  C   UNL A   1      43.526 -15.634 -39.033  0.00  0.00    -0.045 C 
BRANCH   6   7
ATOM      7  C   UNL A   1      43.395 -16.793 -38.038  0.00  0.00    -0.051 C 
BRANCH   7   8
ATOM      8  C   UNL A   1      43.103 -16.370 -36.595  0.00  0.00    -0.037 C 
BRANCH   8   9
ATOM      9  C   UNL A   1      42.110 -17.300 -35.892  0.00  0.00    +0.012 C 
BRANCH   9  12
ATOM     10  C   UNL A   1      41.209 -16.536 -33.648  0.00  0.00    +0.246 C 
ATOM     11  O   UNL A   1      41.536 -16.071 -32.558  0.00  0.00    -0.270 OA
ATOM     12  N   UNL A   1      42.152 -17.135 -34.447  0.00  0.00    -0.311 N 
ATOM     13  H   UNL A   1      42.948 -17.492 -33.990  0.00  0.00    +0.000 HD
BRANCH  10  19
ATOM     14  C   UNL A   1      38.826 -17.295 -33.645  0.00  0.00    +0.044 A 
ATOM     15  C   UNL A   1      37.498 -17.070 -34.046  0.00  0.00    -0.040 A 
ATOM     16  C   UNL A   1      37.178 -16.064 -34.962  0.00  0.00    -0.060 A 
ATOM     17  C   UNL A   1      38.178 -15.248 -35.483  0.00  0.00    -0.061 A 
ATOM     18  C   UNL A   1      39.495 -15.413 -35.059  0.00  0.00    -0.048 A 
ATOM     19  C   UNL A   1      39.810 -16.396 -34.110  0.00  0.00    +0.058 A 
BRANCH  14  20
ATOM     20  N   UNL A   1      39.138 -18.296 -32.682  0.00  0.00    -0.314 N 
ATOM     21  H   UNL A   1      39.007 -18.053 -31.737  0.00  0.00    +0.000 HD
BRANCH  20  27
ATOM     22  C   UNL A   1      38.217 -23.133 -33.565  0.00  0.00    -0.039 C 
ATOM     23  C   UNL A   1      39.156 -21.986 -33.303  0.00  0.00    -0.046 A 
ATOM     24  C   UNL A   1      40.525 -22.258 -33.161  0.00  0.00    -0.058 A 
ATOM     25  C   UNL A   1      41.427 -21.236 -32.883  0.00  0.00    -0.060 A 
ATOM     26  C   UNL A   1      40.973 -19.927 -32.754  0.00  0.00    -0.040 A 
ATOM     27  C   UNL A   1      39.619 -19.612 -32.940  0.00  0.00    +0.035 A 
ATOM     28  C   UNL A   1      38.695 -20.651 -33.205  0.00  0.00    -0.026 A 
ATOM     29  C   UNL A   1      37.224 -20.335 -33.324  0.00  0.00    -0.038 C 
ENDBRANCH  20  27
ENDBRANCH  14  20
ENDBRANCH  10  19
ENDBRANCH   9  12
ENDBRANCH   8   9
ENDBRANCH   7   8
ENDBRANCH   6   7
ENDBRANCH   5   6
ENDBRANCH   1   5
BRANCH   3  30
ATOM     30  C   UNL A   1      38.893 -16.049 -39.311  0.00  0.00    +0.012 C 
BRANCH  30  31
ATOM     31  C   UNL A   1      38.262 -17.288 -38.672  0.00  0.00    -0.037 C 
BRANCH  31  32
ATOM     32  C   UNL A   1      39.296 -18.252 -38.084  0.00  0.00    -0.052 C 
BRANCH  32  33
ATOM     33  C   UNL A   1      38.761 -18.963 -36.838  0.00  0.00    -0.053 C 
BRANCH  33  34
ATOM     34  C   UNL A   1      39.180 -20.435 -36.827  0.00  0.00    -0.053 C 
BRANCH  34  35
ATOM     35  C   UNL A   1      40.656 -20.599 -36.460  0.00  0.00    -0.052 C 
BRANCH  35  36
ATOM     36  C   UNL A   1      41.165 -21.991 -36.835  0.00  0.00    -0.037 C 
BRANCH  36  37
ATOM     37  C   UNL A   1      42.019 -21.955 -38.103  0.00  0.00    +0.009 C 
BRANCH  37  38
ATOM     38  N   UNL A   1      42.451 -20.571 -38.342  0.00  0.00    -0.343 N 
ATOM     39  H   UNL A   1      41.857 -19.790 -38.265  0.00  0.00    +0.000 HD
BRANCH  38  40
ATOM     40  C   UNL A   1      43.830 -20.492 -38.698  0.00  0.00    +0.041 A 
ATOM     41  C   UNL A   1      44.237 -20.629 -40.040  0.00  0.00    -0.005 A 
ATOM     42  C   UNL A   1      45.599 -20.487 -40.319  0.00  0.00    +0.047 A 
ATOM     43  N   UNL A   1      46.522 -20.175 -39.378  0.00  0.00    -0.251 NA
ATOM     44  C   UNL A   1      46.133 -20.032 -38.105  0.00  0.00    +0.074 A 
ATOM     45  C   UNL A   1      47.100 -19.726 -37.158  0.00  0.00    -0.017 A 
ATOM     46  C   UNL A   1      46.774 -19.580 -35.812  0.00  0.00    +0.043 A 
ATOM     47 CL   UNL A   1      48.003 -19.203 -34.669  0.00  0.00    -0.083 Cl
ATOM     48  C   UNL A   1      45.465 -19.743 -35.387  0.00  0.00    -0.043 A 
ATOM     49  C   UNL A   1      44.481 -20.047 -36.325  0.00  0.00    -0.049 A 
ATOM     50  C   UNL A   1      44.794 -20.183 -37.699  0.00  0.00    +0.022 A 
ATOM     51  C   UNL A   1      46.141 -20.612 -41.720  0.00  0.00    -0.010 C 
ATOM     52  C   UNL A   1      45.215 -21.375 -42.658  0.00  0.00    -0.047 C 
ATOM     53  C   UNL A   1      43.805 -20.816 -42.551  0.00  0.00    -0.049 C 
ATOM     54  C   UNL A   1      43.262 -20.999 -41.134  0.00  0.00    -0.024 C 
ENDBRANCH  38  40
ENDBRANCH  37  38
ENDBRANCH  36  37
ENDBRANCH  35  36
ENDBRANCH  34  35
ENDBRANCH  33  34
ENDBRANCH  32  33
ENDBRANCH  31  32
ENDBRANCH  30  31
ENDBRANCH   3  30
TORSDOF 19
ENDMDL
