MODEL 1
REMARK VINA RESULT:    -7.057      0.000      0.000
REMARK INTER + INTRA:         -14.624
REMARK INTER:                 -11.389
REMARK INTRA:                  -3.235
REMARK UNBOUND:                -3.235
REMARK  Name = cpd342.pdb
REMARK  12 active torsions:
REMARK  status: ('A' for Active; 'I' for Inactive)
REMARK    1  A    between atoms: C_1  and  C_2
REMARK    2  A    between atoms: C_2  and  C_4
REMARK    3  A    between atoms: C_4  and  C_5
REMARK    4  A    between atoms: C_4  and  C_13
REMARK    5  A    between atoms: C_5  and  C_6
REMARK    6  A    between atoms: C_9  and  O_10
REMARK    7  A    between atoms: N_15  and  C_16
REMARK    8  A    between atoms: C_16  and  C_17
REMARK    9  A    between atoms: C_17  and  C_18
REMARK   10  A    between atoms: C_18  and  C_19
REMARK   11  A    between atoms: C_19  and  N_20
REMARK   12  A    between atoms: N_20  and  C_21
REMARK                            x       y       z     vdW  Elec       q    Type
REMARK                         _______ _______ _______ _____ _____    ______ ____
ROOT
ATOM      1  C   UNL A   1      32.660 -35.494 -33.270  0.00  0.00    -0.036 C 
ENDROOT
BRANCH   1   2
ATOM      2  C   UNL A   1      32.276 -36.886 -33.762  0.00  0.00    +0.012 C 
BRANCH   2   5
ATOM      3  C   UNL A   1      32.348 -38.992 -32.469  0.00  0.00    +0.224 C 
ATOM      4  O   UNL A   1      31.126 -39.115 -32.473  0.00  0.00    -0.275 OA
ATOM      5  N   UNL A   1      32.997 -37.928 -33.060  0.00  0.00    -0.315 N 
ATOM      6  H   UNL A   1      33.978 -37.875 -33.003  0.00  0.00    +0.000 HD
BRANCH   3   7
ATOM      7  C   UNL A   1      33.249 -40.040 -31.843  0.00  0.00    +0.097 C 
BRANCH   7   9
ATOM      8  C   UNL A   1      33.103 -42.461 -32.715  0.00  0.00    -0.005 C 
ATOM      9  C   UNL A   1      33.637 -41.064 -32.891  0.00  0.00    +0.142 C 
ATOM     10  O   UNL A   1      34.300 -40.752 -33.882  0.00  0.00    -0.297 OA
ENDBRANCH   7   9
BRANCH   7  11
ATOM     11  C   UNL A   1      34.507 -39.451 -31.193  0.00  0.00    -0.010 C 
BRANCH  11  12
ATOM     12  C   UNL A   1      34.997 -40.267 -30.019  0.00  0.00    -0.046 A 
ATOM     13  C   UNL A   1      34.132 -40.589 -28.963  0.00  0.00    -0.055 A 
ATOM     14  C   UNL A   1      34.581 -41.357 -27.887  0.00  0.00    -0.020 A 
ATOM     15  C   UNL A   1      35.897 -41.804 -27.867  0.00  0.00    +0.117 A 
ATOM     16  C   UNL A   1      36.768 -41.497 -28.905  0.00  0.00    -0.020 A 
ATOM     17  C   UNL A   1      36.319 -40.731 -29.983  0.00  0.00    -0.055 A 
BRANCH  15  18
ATOM     18  O   UNL A   1      36.378 -42.556 -26.836  0.00  0.00    -0.507 OA
ATOM     19  H   UNL A   1      37.182 -42.318 -26.418  0.00  0.00    +0.000 HD
ENDBRANCH  15  18
ENDBRANCH  11  12
ENDBRANCH   7  11
ENDBRANCH   3   7
ENDBRANCH   2   5
ENDBRANCH   1   2
BRANCH   1  20
ATOM     20  C   UNL A   1      33.889 -35.545 -32.363  0.00  0.00    -0.036 C 
BRANCH  20  21
ATOM     21  C   UNL A   1      33.489 -35.534 -30.887  0.00  0.00    +0.009 C 
BRANCH  21  22
ATOM     22  N   UNL A   1      34.558 -34.892 -30.110  0.00  0.00    -0.343 N 
ATOM     23  H   UNL A   1      34.784 -33.936 -30.165  0.00  0.00    +0.000 HD
BRANCH  22  24
ATOM     24  C   UNL A   1      35.229 -35.828 -29.263  0.00  0.00    +0.041 A 
ATOM     25  C   UNL A   1      34.580 -36.363 -28.131  0.00  0.00    -0.005 A 
ATOM     26  C   UNL A   1      35.273 -37.317 -27.380  0.00  0.00    +0.047 A 
ATOM     27  N   UNL A   1      36.499 -37.783 -27.719  0.00  0.00    -0.251 NA
ATOM     28  C   UNL A   1      37.108 -37.283 -28.803  0.00  0.00    +0.073 A 
ATOM     29  C   UNL A   1      38.371 -37.764 -29.127  0.00  0.00    -0.036 A 
ATOM     30  C   UNL A   1      39.085 -37.288 -30.228  0.00  0.00    -0.060 A 
ATOM     31  C   UNL A   1      38.531 -36.299 -31.027  0.00  0.00    -0.061 A 
ATOM     32  C   UNL A   1      37.264 -35.804 -30.721  0.00  0.00    -0.051 A 
ATOM     33  C   UNL A   1      36.525 -36.295 -29.617  0.00  0.00    +0.021 A 
ATOM     34  C   UNL A   1      34.673 -37.951 -26.151  0.00  0.00    -0.010 C 
ATOM     35  C   UNL A   1      33.540 -37.135 -25.545  0.00  0.00    -0.047 C 
ATOM     36  C   UNL A   1      32.548 -36.752 -26.632  0.00  0.00    -0.049 C 
ATOM     37  C   UNL A   1      33.220 -35.876 -27.688  0.00  0.00    -0.024 C 
ENDBRANCH  22  24
ENDBRANCH  21  22
ENDBRANCH  20  21
ENDBRANCH   1  20
TORSDOF 11
ENDMDL
MODEL 2
REMARK VINA RESULT:    -6.961     19.216     22.400
REMARK INTER + INTRA:         -14.469
REMARK INTER:                 -11.552
REMARK INTRA:                  -2.917
REMARK UNBOUND:                -3.235
REMARK  Name = cpd342.pdb
REMARK  12 active torsions:
REMARK  status: ('A' for Active; 'I' for Inactive)
REMARK    1  A    between atoms: C_1  and  C_2
REMARK    2  A    between atoms: C_2  and  C_4
REMARK    3  A    between atoms: C_4  and  C_5
REMARK    4  A    between atoms: C_4  and  C_13
REMARK    5  A    between atoms: C_5  and  C_6
REMARK    6  A    between atoms: C_9  and  O_10
REMARK    7  A    between atoms: N_15  and  C_16
REMARK    8  A    between atoms: C_16  and  C_17
REMARK    9  A    between atoms: C_17  and  C_18
REMARK   10  A    between atoms: C_18  and  C_19
REMARK   11  A    between atoms: C_19  and  N_20
REMARK   12  A    between atoms: N_20  and  C_21
REMARK                            x       y       z     vdW  Elec       q    Type
REMARK                         _______ _______ _______ _____ _____    ______ ____
ROOT
ATOM      1  C   UNL A   1      45.360 -17.882 -34.725  0.00  0.00    -0.036 C 
ENDROOT
BRANCH   1   2
ATOM      2  C   UNL A   1      45.847 -16.979 -35.855  0.00  0.00    +0.012 C 
BRANCH   2   5
ATOM      3  C   UNL A   1      46.132 -17.372 -38.279  0.00  0.00    +0.224 C 
ATOM      4  O   UNL A   1      47.286 -16.954 -38.280  0.00  0.00    -0.275 OA
ATOM      5  N   UNL A   1      45.347 -17.407 -37.146  0.00  0.00    -0.315 N 
ATOM      6  H   UNL A   1      44.421 -17.732 -37.215  0.00  0.00    +0.000 HD
BRANCH   3   7
ATOM      7  C   UNL A   1      45.489 -17.929 -39.536  0.00  0.00    +0.097 C 
BRANCH   7   9
ATOM      8  C   UNL A   1      43.912 -17.222 -41.447  0.00  0.00    -0.005 C 
ATOM      9  C   UNL A   1      44.539 -16.902 -40.116  0.00  0.00    +0.142 C 
ATOM     10  O   UNL A   1      44.236 -15.881 -39.494  0.00  0.00    -0.297 OA
ENDBRANCH   7   9
BRANCH   7  11
ATOM     11  C   UNL A   1      46.507 -18.363 -40.598  0.00  0.00    -0.010 C 
BRANCH  11  12
ATOM     12  C   UNL A   1      46.573 -19.863 -40.769  0.00  0.00    -0.046 A 
ATOM     13  C   UNL A   1      47.129 -20.671 -39.767  0.00  0.00    -0.055 A 
ATOM     14  C   UNL A   1      47.175 -22.059 -39.918  0.00  0.00    -0.020 A 
ATOM     15  C   UNL A   1      46.664 -22.638 -41.074  0.00  0.00    +0.117 A 
ATOM     16  C   UNL A   1      46.107 -21.853 -42.077  0.00  0.00    -0.020 A 
ATOM     17  C   UNL A   1      46.059 -20.466 -41.925  0.00  0.00    -0.055 A 
BRANCH  15  18
ATOM     18  O   UNL A   1      46.688 -23.988 -41.264  0.00  0.00    -0.507 OA
ATOM     19  H   UNL A   1      46.100 -24.386 -41.874  0.00  0.00    +0.000 HD
ENDBRANCH  15  18
ENDBRANCH  11  12
ENDBRANCH   7  11
ENDBRANCH   3   7
ENDBRANCH   2   5
ENDBRANCH   1   2
BRANCH   1  20
ATOM     20  C   UNL A   1      45.437 -19.356 -35.120  0.00  0.00    -0.036 C 
BRANCH  20  21
ATOM     21  C   UNL A   1      44.255 -20.144 -34.556  0.00  0.00    +0.009 C 
BRANCH  21  22
ATOM     22  N   UNL A   1      43.019 -19.668 -35.196  0.00  0.00    -0.343 N 
ATOM     23  H   UNL A   1      42.760 -18.721 -35.260  0.00  0.00    +0.000 HD
BRANCH  22  24
ATOM     24  C   UNL A   1      42.242 -20.751 -35.711  0.00  0.00    +0.041 A 
ATOM     25  C   UNL A   1      41.311 -21.419 -34.888  0.00  0.00    -0.005 A 
ATOM     26  C   UNL A   1      40.542 -22.430 -35.472  0.00  0.00    +0.047 A 
ATOM     27  N   UNL A   1      40.611 -22.752 -36.786  0.00  0.00    -0.251 NA
ATOM     28  C   UNL A   1      41.487 -22.106 -37.569  0.00  0.00    +0.073 A 
ATOM     29  C   UNL A   1      41.553 -22.461 -38.911  0.00  0.00    -0.036 A 
ATOM     30  C   UNL A   1      42.447 -21.852 -39.794  0.00  0.00    -0.060 A 
ATOM     31  C   UNL A   1      43.306 -20.868 -39.329  0.00  0.00    -0.061 A 
ATOM     32  C   UNL A   1      43.254 -20.496 -37.986  0.00  0.00    -0.051 A 
ATOM     33  C   UNL A   1      42.337 -21.095 -37.087  0.00  0.00    +0.021 A 
ATOM     34  C   UNL A   1      39.520 -23.208 -34.683  0.00  0.00    -0.010 C 
ATOM     35  C   UNL A   1      39.755 -23.158 -33.180  0.00  0.00    -0.047 C 
ATOM     36  C   UNL A   1      39.956 -21.716 -32.742  0.00  0.00    -0.049 C 
ATOM     37  C   UNL A   1      41.194 -21.120 -33.412  0.00  0.00    -0.024 C 
ENDBRANCH  22  24
ENDBRANCH  21  22
ENDBRANCH  20  21
ENDBRANCH   1  20
TORSDOF 11
ENDMDL
MODEL 3
REMARK VINA RESULT:    -6.685     20.020     23.508
REMARK INTER + INTRA:         -14.023
REMARK INTER:                 -10.501
REMARK INTRA:                  -3.523
REMARK UNBOUND:                -3.235
REMARK  Name = cpd342.pdb
REMARK  12 active torsions:
REMARK  status: ('A' for Active; 'I' for Inactive)
REMARK    1  A    between atoms: C_1  and  C_2
REMARK    2  A    between atoms: C_2  and  C_4
REMARK    3  A    between atoms: C_4  and  C_5
REMARK    4  A    between atoms: C_4  and  C_13
REMARK    5  A    between atoms: C_5  and  C_6
REMARK    6  A    between atoms: C_9  and  O_10
REMARK    7  A    between atoms: N_15  and  C_16
REMARK    8  A    between atoms: C_16  and  C_17
REMARK    9  A    between atoms: C_17  and  C_18
REMARK   10  A    between atoms: C_18  and  C_19
REMARK   11  A    between atoms: C_19  and  N_20
REMARK   12  A    between atoms: N_20  and  C_21
REMARK                            x       y       z     vdW  Elec       q    Type
REMARK                         _______ _______ _______ _____ _____    ______ ____
ROOT
ATOM      1  C   UNL A   1      47.908 -18.224 -35.453  0.00  0.00    -0.036 C 
ENDROOT
BRANCH   1   2
ATOM      2  C   UNL A   1      46.948 -18.020 -34.284  0.00  0.00    +0.012 C 
BRANCH   2   5
ATOM      3  C   UNL A   1      45.067 -19.618 -34.422  0.00  0.00    +0.224 C 
ATOM      4  O   UNL A   1      45.727 -20.539 -33.949  0.00  0.00    -0.275 OA
ATOM      5  N   UNL A   1      45.584 -18.358 -34.637  0.00  0.00    -0.315 N 
ATOM      6  H   UNL A   1      45.010 -17.668 -35.041  0.00  0.00    +0.000 HD
BRANCH   3   7
ATOM      7  C   UNL A   1      43.600 -19.790 -34.770  0.00  0.00    +0.097 C 
BRANCH   7   9
ATOM      8  C   UNL A   1      41.902 -20.802 -33.116  0.00  0.00    -0.005 C 
ATOM      9  C   UNL A   1      42.763 -19.632 -33.518  0.00  0.00    +0.142 C 
ATOM     10  O   UNL A   1      42.835 -18.620 -32.818  0.00  0.00    -0.297 OA
ENDBRANCH   7   9
BRANCH   7  11
ATOM     11  C   UNL A   1      43.114 -18.820 -35.854  0.00  0.00    -0.010 C 
BRANCH  11  12
ATOM     12  C   UNL A   1      42.597 -19.527 -37.085  0.00  0.00    -0.046 A 
ATOM     13  C   UNL A   1      43.009 -20.834 -37.383  0.00  0.00    -0.055 A 
ATOM     14  C   UNL A   1      42.518 -21.493 -38.512  0.00  0.00    -0.020 A 
ATOM     15  C   UNL A   1      41.614 -20.844 -39.344  0.00  0.00    +0.117 A 
ATOM     16  C   UNL A   1      41.193 -19.549 -39.064  0.00  0.00    -0.020 A 
ATOM     17  C   UNL A   1      41.682 -18.891 -37.934  0.00  0.00    -0.055 A 
BRANCH  15  18
ATOM     18  O   UNL A   1      41.110 -21.449 -40.457  0.00  0.00    -0.507 OA
ATOM     19  H   UNL A   1      41.313 -21.111 -41.306  0.00  0.00    +0.000 HD
ENDBRANCH  15  18
ENDBRANCH  11  12
ENDBRANCH   7  11
ENDBRANCH   3   7
ENDBRANCH   2   5
ENDBRANCH   1   2
BRANCH   1  20
ATOM     20  C   UNL A   1      47.267 -17.811 -36.777  0.00  0.00    -0.036 C 
BRANCH  20  21
ATOM     21  C   UNL A   1      47.408 -18.911 -37.829  0.00  0.00    +0.009 C 
BRANCH  21  22
ATOM     22  N   UNL A   1      46.110 -19.581 -37.993  0.00  0.00    -0.343 N 
ATOM     23  H   UNL A   1      45.608 -20.001 -37.258  0.00  0.00    +0.000 HD
BRANCH  22  24
ATOM     24  C   UNL A   1      45.667 -19.546 -39.351  0.00  0.00    +0.041 A 
ATOM     25  C   UNL A   1      45.901 -20.642 -40.209  0.00  0.00    -0.005 A 
ATOM     26  C   UNL A   1      45.390 -20.566 -41.508  0.00  0.00    +0.047 A 
ATOM     27  N   UNL A   1      44.643 -19.528 -41.953  0.00  0.00    -0.251 NA
ATOM     28  C   UNL A   1      44.409 -18.494 -41.132  0.00  0.00    +0.073 A 
ATOM     29  C   UNL A   1      43.654 -17.432 -41.613  0.00  0.00    -0.036 A 
ATOM     30  C   UNL A   1      43.377 -16.308 -40.832  0.00  0.00    -0.060 A 
ATOM     31  C   UNL A   1      43.872 -16.233 -39.539  0.00  0.00    -0.061 A 
ATOM     32  C   UNL A   1      44.631 -17.289 -39.037  0.00  0.00    -0.051 A 
ATOM     33  C   UNL A   1      44.901 -18.442 -39.815  0.00  0.00    +0.021 A 
ATOM     34  C   UNL A   1      45.584 -21.680 -42.505  0.00  0.00    -0.010 C 
ATOM     35  C   UNL A   1      46.751 -22.596 -42.164  0.00  0.00    -0.047 C 
ATOM     36  C   UNL A   1      46.650 -23.032 -40.711  0.00  0.00    -0.049 C 
ATOM     37  C   UNL A   1      46.739 -21.824 -39.781  0.00  0.00    -0.024 C 
ENDBRANCH  22  24
ENDBRANCH  21  22
ENDBRANCH  20  21
ENDBRANCH   1  20
TORSDOF 11
ENDMDL
MODEL 4
REMARK VINA RESULT:    -6.615     18.502     21.729
REMARK INTER + INTRA:         -13.910
REMARK INTER:                 -11.821
REMARK INTRA:                  -2.088
REMARK UNBOUND:                -3.235
REMARK  Name = cpd342.pdb
REMARK  12 active torsions:
REMARK  status: ('A' for Active; 'I' for Inactive)
REMARK    1  A    between atoms: C_1  and  C_2
REMARK    2  A    between atoms: C_2  and  C_4
REMARK    3  A    between atoms: C_4  and  C_5
REMARK    4  A    between atoms: C_4  and  C_13
REMARK    5  A    between atoms: C_5  and  C_6
REMARK    6  A    between atoms: C_9  and  O_10
REMARK    7  A    between atoms: N_15  and  C_16
REMARK    8  A    between atoms: C_16  and  C_17
REMARK    9  A    between atoms: C_17  and  C_18
REMARK   10  A    between atoms: C_18  and  C_19
REMARK   11  A    between atoms: C_19  and  N_20
REMARK   12  A    between atoms: N_20  and  C_21
REMARK                            x       y       z     vdW  Elec       q    Type
REMARK                         _______ _______ _______ _____ _____    ______ ____
ROOT
ATOM      1  C   UNL A   1      46.550 -18.580 -35.632  0.00  0.00    -0.036 C 
ENDROOT
BRANCH   1   2
ATOM      2  C   UNL A   1      45.451 -17.607 -35.215  0.00  0.00    +0.012 C 
BRANCH   2   5
ATOM      3  C   UNL A   1      43.851 -18.800 -33.756  0.00  0.00    +0.224 C 
ATOM      4  O   UNL A   1      44.600 -18.754 -32.784  0.00  0.00    -0.275 OA
ATOM      5  N   UNL A   1      44.188 -18.279 -34.988  0.00  0.00    -0.315 N 
ATOM      6  H   UNL A   1      43.553 -18.368 -35.735  0.00  0.00    +0.000 HD
BRANCH   3   7
ATOM      7  C   UNL A   1      42.461 -19.401 -33.660  0.00  0.00    +0.097 C 
BRANCH   7   9
ATOM      8  C   UNL A   1      40.673 -17.951 -32.501  0.00  0.00    -0.005 C 
ATOM      9  C   UNL A   1      41.426 -18.299 -33.759  0.00  0.00    +0.142 C 
ATOM     10  O   UNL A   1      41.257 -17.665 -34.802  0.00  0.00    -0.297 OA
ENDBRANCH   7   9
BRANCH   7  11
ATOM     11  C   UNL A   1      42.188 -20.475 -34.720  0.00  0.00    -0.010 C 
BRANCH  11  12
ATOM     12  C   UNL A   1      41.221 -21.535 -34.245  0.00  0.00    -0.046 A 
ATOM     13  C   UNL A   1      40.306 -22.117 -35.135  0.00  0.00    -0.055 A 
ATOM     14  C   UNL A   1      39.425 -23.108 -34.699  0.00  0.00    -0.020 A 
ATOM     15  C   UNL A   1      39.459 -23.518 -33.371  0.00  0.00    +0.117 A 
ATOM     16  C   UNL A   1      40.360 -22.955 -32.475  0.00  0.00    -0.020 A 
ATOM     17  C   UNL A   1      41.243 -21.965 -32.912  0.00  0.00    -0.055 A 
BRANCH  15  18
ATOM     18  O   UNL A   1      38.616 -24.482 -32.902  0.00  0.00    -0.507 OA
ATOM     19  H   UNL A   1      38.644 -24.729 -31.999  0.00  0.00    +0.000 HD
ENDBRANCH  15  18
ENDBRANCH  11  12
ENDBRANCH   7  11
ENDBRANCH   3   7
ENDBRANCH   2   5
ENDBRANCH   1   2
BRANCH   1  20
ATOM     20  C   UNL A   1      47.330 -18.054 -36.837  0.00  0.00    -0.036 C 
BRANCH  20  21
ATOM     21  C   UNL A   1      46.962 -18.816 -38.110  0.00  0.00    +0.009 C 
BRANCH  21  22
ATOM     22  N   UNL A   1      46.848 -20.246 -37.792  0.00  0.00    -0.343 N 
ATOM     23  H   UNL A   1      47.197 -20.659 -36.969  0.00  0.00    +0.000 HD
BRANCH  22  24
ATOM     24  C   UNL A   1      46.167 -20.963 -38.824  0.00  0.00    +0.041 A 
ATOM     25  C   UNL A   1      44.772 -20.833 -38.986  0.00  0.00    -0.005 A 
ATOM     26  C   UNL A   1      44.179 -21.517 -40.051  0.00  0.00    +0.047 A 
ATOM     27  N   UNL A   1      44.883 -22.241 -40.953  0.00  0.00    -0.251 NA
ATOM     28  C   UNL A   1      46.210 -22.353 -40.806  0.00  0.00    +0.073 A 
ATOM     29  C   UNL A   1      46.912 -23.113 -41.733  0.00  0.00    -0.036 A 
ATOM     30  C   UNL A   1      48.294 -23.296 -41.645  0.00  0.00    -0.060 A 
ATOM     31  C   UNL A   1      48.997 -22.714 -40.602  0.00  0.00    -0.061 A 
ATOM     32  C   UNL A   1      48.312 -21.946 -39.662  0.00  0.00    -0.051 A 
ATOM     33  C   UNL A   1      46.913 -21.739 -39.753  0.00  0.00    +0.021 A 
ATOM     34  C   UNL A   1      42.696 -21.447 -40.314  0.00  0.00    -0.010 C 
ATOM     35  C   UNL A   1      41.888 -21.023 -39.095  0.00  0.00    -0.047 C 
ATOM     36  C   UNL A   1      42.502 -19.773 -38.485  0.00  0.00    -0.049 C 
ATOM     37  C   UNL A   1      43.926 -20.052 -38.007  0.00  0.00    -0.024 C 
ENDBRANCH  22  24
ENDBRANCH  21  22
ENDBRANCH  20  21
ENDBRANCH   1  20
TORSDOF 11
ENDMDL
MODEL 5
REMARK VINA RESULT:    -6.594     18.802     22.281
REMARK INTER + INTRA:         -13.876
REMARK INTER:                 -11.020
REMARK INTRA:                  -2.857
REMARK UNBOUND:                -3.235
REMARK  Name = cpd342.pdb
REMARK  12 active torsions:
REMARK  status: ('A' for Active; 'I' for Inactive)
REMARK    1  A    between atoms: C_1  and  C_2
REMARK    2  A    between atoms: C_2  and  C_4
REMARK    3  A    between atoms: C_4  and  C_5
REMARK    4  A    between atoms: C_4  and  C_13
REMARK    5  A    between atoms: C_5  and  C_6
REMARK    6  A    between atoms: C_9  and  O_10
REMARK    7  A    between atoms: N_15  and  C_16
REMARK    8  A    between atoms: C_16  and  C_17
REMARK    9  A    between atoms: C_17  and  C_18
REMARK   10  A    between atoms: C_18  and  C_19
REMARK   11  A    between atoms: C_19  and  N_20
REMARK   12  A    between atoms: N_20  and  C_21
REMARK                            x       y       z     vdW  Elec       q    Type
REMARK                         _______ _______ _______ _____ _____    ______ ____
ROOT
ATOM      1  C   UNL A   1      44.078 -18.530 -33.530  0.00  0.00    -0.036 C 
ENDROOT
BRANCH   1   2
ATOM      2  C   UNL A   1      45.491 -18.073 -33.883  0.00  0.00    +0.012 C 
BRANCH   2   5
ATOM      3  C   UNL A   1      45.780 -18.912 -36.191  0.00  0.00    +0.224 C 
ATOM      4  O   UNL A   1      45.795 -20.087 -35.834  0.00  0.00    -0.275 OA
ATOM      5  N   UNL A   1      45.652 -17.861 -35.307  0.00  0.00    -0.315 N 
ATOM      6  H   UNL A   1      45.671 -16.940 -35.653  0.00  0.00    +0.000 HD
BRANCH   3   7
ATOM      7  C   UNL A   1      45.860 -18.527 -37.656  0.00  0.00    +0.097 C 
BRANCH   7   9
ATOM      8  C   UNL A   1      47.128 -16.373 -38.287  0.00  0.00    -0.005 C 
ATOM      9  C   UNL A   1      45.863 -17.017 -37.782  0.00  0.00    +0.142 C 
ATOM     10  O   UNL A   1      44.853 -16.349 -37.551  0.00  0.00    -0.297 OA
ENDBRANCH   7   9
BRANCH   7  11
ATOM     11  C   UNL A   1      47.080 -19.116 -38.375  0.00  0.00    -0.010 C 
BRANCH  11  12
ATOM     12  C   UNL A   1      46.702 -20.069 -39.485  0.00  0.00    -0.046 A 
ATOM     13  C   UNL A   1      46.402 -19.587 -40.767  0.00  0.00    -0.055 A 
ATOM     14  C   UNL A   1      46.069 -20.470 -41.798  0.00  0.00    -0.020 A 
ATOM     15  C   UNL A   1      46.037 -21.836 -41.544  0.00  0.00    +0.117 A 
ATOM     16  C   UNL A   1      46.333 -22.332 -40.280  0.00  0.00    -0.020 A 
ATOM     17  C   UNL A   1      46.669 -21.450 -39.251  0.00  0.00    -0.055 A 
BRANCH  15  18
ATOM     18  O   UNL A   1      45.717 -22.733 -42.520  0.00  0.00    -0.507 OA
ATOM     19  H   UNL A   1      46.296 -22.864 -43.244  0.00  0.00    +0.000 HD
ENDBRANCH  15  18
ENDBRANCH  11  12
ENDBRANCH   7  11
ENDBRANCH   3   7
ENDBRANCH   2   5
ENDBRANCH   1   2
BRANCH   1  20
ATOM     20  C   UNL A   1      43.027 -17.707 -34.274  0.00  0.00    -0.036 C 
BRANCH  20  21
ATOM     21  C   UNL A   1      42.125 -18.600 -35.126  0.00  0.00    +0.009 C 
BRANCH  21  22
ATOM     22  N   UNL A   1      42.688 -19.958 -35.151  0.00  0.00    -0.343 N 
ATOM     23  H   UNL A   1      43.569 -20.197 -34.783  0.00  0.00    +0.000 HD
BRANCH  22  24
ATOM     24  C   UNL A   1      41.799 -20.886 -35.774  0.00  0.00    +0.041 A 
ATOM     25  C   UNL A   1      41.929 -21.192 -37.145  0.00  0.00    -0.005 A 
ATOM     26  C   UNL A   1      41.063 -22.152 -37.677  0.00  0.00    +0.047 A 
ATOM     27  N   UNL A   1      40.158 -22.832 -36.933  0.00  0.00    -0.251 NA
ATOM     28  C   UNL A   1      40.046 -22.550 -35.627  0.00  0.00    +0.073 A 
ATOM     29  C   UNL A   1      39.102 -23.247 -34.884  0.00  0.00    -0.036 A 
ATOM     30  C   UNL A   1      38.906 -23.005 -33.522  0.00  0.00    -0.060 A 
ATOM     31  C   UNL A   1      39.665 -22.036 -32.883  0.00  0.00    -0.061 A 
ATOM     32  C   UNL A   1      40.620 -21.327 -33.610  0.00  0.00    -0.051 A 
ATOM     33  C   UNL A   1      40.838 -21.579 -34.987  0.00  0.00    +0.021 A 
ATOM     34  C   UNL A   1      41.116 -22.552 -39.130  0.00  0.00    -0.010 C 
ATOM     35  C   UNL A   1      41.790 -21.514 -40.016  0.00  0.00    -0.047 C 
ATOM     36  C   UNL A   1      43.121 -21.107 -39.403  0.00  0.00    -0.049 C 
ATOM     37  C   UNL A   1      42.906 -20.461 -38.036  0.00  0.00    -0.024 C 
ENDBRANCH  22  24
ENDBRANCH  21  22
ENDBRANCH  20  21
ENDBRANCH   1  20
TORSDOF 11
ENDMDL
MODEL 6
REMARK VINA RESULT:    -6.568     19.220     22.622
REMARK INTER + INTRA:         -13.834
REMARK INTER:                 -11.070
REMARK INTRA:                  -2.765
REMARK UNBOUND:                -3.235
REMARK  Name = cpd342.pdb
REMARK  12 active torsions:
REMARK  status: ('A' for Active; 'I' for Inactive)
REMARK    1  A    between atoms: C_1  and  C_2
REMARK    2  A    between atoms: C_2  and  C_4
REMARK    3  A    between atoms: C_4  and  C_5
REMARK    4  A    between atoms: C_4  and  C_13
REMARK    5  A    between atoms: C_5  and  C_6
REMARK    6  A    between atoms: C_9  and  O_10
REMARK    7  A    between atoms: N_15  and  C_16
REMARK    8  A    between atoms: C_16  and  C_17
REMARK    9  A    between atoms: C_17  and  C_18
REMARK   10  A    between atoms: C_18  and  C_19
REMARK   11  A    between atoms: C_19  and  N_20
REMARK   12  A    between atoms: N_20  and  C_21
REMARK                            x       y       z     vdW  Elec       q    Type
REMARK                         _______ _______ _______ _____ _____    ______ ____
ROOT
ATOM      1  C   UNL A   1      45.393 -18.356 -34.606  0.00  0.00    -0.036 C 
ENDROOT
BRANCH   1   2
ATOM      2  C   UNL A   1      46.043 -17.561 -35.735  0.00  0.00    +0.012 C 
BRANCH   2   5
ATOM      3  C   UNL A   1      45.994 -17.556 -38.206  0.00  0.00    +0.224 C 
ATOM      4  O   UNL A   1      47.160 -17.183 -38.296  0.00  0.00    -0.275 OA
ATOM      5  N   UNL A   1      45.360 -17.752 -36.997  0.00  0.00    -0.315 N 
ATOM      6  H   UNL A   1      44.415 -18.030 -36.992  0.00  0.00    +0.000 HD
BRANCH   3   7
ATOM      7  C   UNL A   1      45.166 -17.876 -39.437  0.00  0.00    +0.097 C 
BRANCH   7   9
ATOM      8  C   UNL A   1      43.324 -16.845 -40.916  0.00  0.00    -0.005 C 
ATOM      9  C   UNL A   1      44.128 -16.791 -39.643  0.00  0.00    +0.142 C 
ATOM     10  O   UNL A   1      43.900 -15.945 -38.777  0.00  0.00    -0.297 OA
ENDBRANCH   7   9
BRANCH   7  11
ATOM     11  C   UNL A   1      46.007 -18.046 -40.709  0.00  0.00    -0.010 C 
BRANCH  11  12
ATOM     12  C   UNL A   1      46.106 -19.485 -41.158  0.00  0.00    -0.046 A 
ATOM     13  C   UNL A   1      47.002 -20.367 -40.536  0.00  0.00    -0.055 A 
ATOM     14  C   UNL A   1      47.081 -21.701 -40.940  0.00  0.00    -0.020 A 
ATOM     15  C   UNL A   1      46.263 -22.153 -41.969  0.00  0.00    +0.117 A 
ATOM     16  C   UNL A   1      45.368 -21.295 -42.596  0.00  0.00    -0.020 A 
ATOM     17  C   UNL A   1      45.287 -19.962 -42.190  0.00  0.00    -0.055 A 
BRANCH  15  18
ATOM     18  O   UNL A   1      46.307 -23.448 -42.397  0.00  0.00    -0.507 OA
ATOM     19  H   UNL A   1      45.721 -24.081 -42.032  0.00  0.00    +0.000 HD
ENDBRANCH  15  18
ENDBRANCH  11  12
ENDBRANCH   7  11
ENDBRANCH   3   7
ENDBRANCH   2   5
ENDBRANCH   1   2
BRANCH   1  20
ATOM     20  C   UNL A   1      45.090 -19.790 -35.040  0.00  0.00    -0.036 C 
BRANCH  20  21
ATOM     21  C   UNL A   1      43.804 -20.305 -34.393  0.00  0.00    +0.009 C 
BRANCH  21  22
ATOM     22  N   UNL A   1      42.653 -19.694 -35.073  0.00  0.00    -0.343 N 
ATOM     23  H   UNL A   1      42.473 -18.727 -35.093  0.00  0.00    +0.000 HD
BRANCH  22  24
ATOM     24  C   UNL A   1      41.828 -20.677 -35.700  0.00  0.00    +0.041 A 
ATOM     25  C   UNL A   1      42.069 -21.070 -37.033  0.00  0.00    -0.005 A 
ATOM     26  C   UNL A   1      41.260 -22.079 -37.566  0.00  0.00    +0.047 A 
ATOM     27  N   UNL A   1      40.308 -22.724 -36.850  0.00  0.00    -0.251 NA
ATOM     28  C   UNL A   1      40.090 -22.359 -35.579  0.00  0.00    +0.073 A 
ATOM     29  C   UNL A   1      39.099 -23.023 -34.867  0.00  0.00    -0.036 A 
ATOM     30  C   UNL A   1      38.793 -22.696 -33.544  0.00  0.00    -0.060 A 
ATOM     31  C   UNL A   1      39.486 -21.673 -32.914  0.00  0.00    -0.061 A 
ATOM     32  C   UNL A   1      40.486 -20.996 -33.610  0.00  0.00    -0.051 A 
ATOM     33  C   UNL A   1      40.816 -21.334 -34.946  0.00  0.00    +0.021 A 
ATOM     34  C   UNL A   1      41.433 -22.572 -38.979  0.00  0.00    -0.010 C 
ATOM     35  C   UNL A   1      42.161 -21.583 -39.878  0.00  0.00    -0.047 C 
ATOM     36  C   UNL A   1      43.434 -21.112 -39.192  0.00  0.00    -0.049 C 
ATOM     37  C   UNL A   1      43.104 -20.382 -37.891  0.00  0.00    -0.024 C 
ENDBRANCH  22  24
ENDBRANCH  21  22
ENDBRANCH  20  21
ENDBRANCH   1  20
TORSDOF 11
ENDMDL
MODEL 7
REMARK VINA RESULT:    -6.483     18.449     21.688
REMARK INTER + INTRA:         -13.697
REMARK INTER:                 -10.923
REMARK INTRA:                  -2.775
REMARK UNBOUND:                -3.235
REMARK  Name = cpd342.pdb
REMARK  12 active torsions:
REMARK  status: ('A' for Active; 'I' for Inactive)
REMARK    1  A    between atoms: C_1  and  C_2
REMARK    2  A    between atoms: C_2  and  C_4
REMARK    3  A    between atoms: C_4  and  C_5
REMARK    4  A    between atoms: C_4  and  C_13
REMARK    5  A    between atoms: C_5  and  C_6
REMARK    6  A    between atoms: C_9  and  O_10
REMARK    7  A    between atoms: N_15  and  C_16
REMARK    8  A    between atoms: C_16  and  C_17
REMARK    9  A    between atoms: C_17  and  C_18
REMARK   10  A    between atoms: C_18  and  C_19
REMARK   11  A    between atoms: C_19  and  N_20
REMARK   12  A    between atoms: N_20  and  C_21
REMARK                            x       y       z     vdW  Elec       q    Type
REMARK                         _______ _______ _______ _____ _____    ______ ____
ROOT
ATOM      1  C   UNL A   1      43.356 -18.060 -33.037  0.00  0.00    -0.036 C 
ENDROOT
BRANCH   1   2
ATOM      2  C   UNL A   1      44.396 -18.978 -33.675  0.00  0.00    +0.012 C 
BRANCH   2   5
ATOM      3  C   UNL A   1      45.631 -19.266 -35.797  0.00  0.00    +0.224 C 
ATOM      4  O   UNL A   1      46.250 -20.242 -35.382  0.00  0.00    -0.275 OA
ATOM      5  N   UNL A   1      44.717 -18.575 -35.029  0.00  0.00    -0.315 N 
ATOM      6  H   UNL A   1      44.270 -17.786 -35.411  0.00  0.00    +0.000 HD
BRANCH   3   7
ATOM      7  C   UNL A   1      45.796 -18.768 -37.220  0.00  0.00    +0.097 C 
BRANCH   7   9
ATOM      8  C   UNL A   1      45.187 -16.444 -38.153  0.00  0.00    -0.005 C 
ATOM      9  C   UNL A   1      46.020 -17.269 -37.208  0.00  0.00    +0.142 C 
ATOM     10  O   UNL A   1      46.797 -16.740 -36.410  0.00  0.00    -0.297 OA
ENDBRANCH   7   9
BRANCH   7  11
ATOM     11  C   UNL A   1      46.934 -19.463 -37.980  0.00  0.00    -0.010 C 
BRANCH  11  12
ATOM     12  C   UNL A   1      46.446 -20.246 -39.177  0.00  0.00    -0.046 A 
ATOM     13  C   UNL A   1      45.879 -19.587 -40.277  0.00  0.00    -0.055 A 
ATOM     14  C   UNL A   1      45.445 -20.310 -41.391  0.00  0.00    -0.020 A 
ATOM     15  C   UNL A   1      45.577 -21.693 -41.402  0.00  0.00    +0.117 A 
ATOM     16  C   UNL A   1      46.138 -22.364 -40.321  0.00  0.00    -0.020 A 
ATOM     17  C   UNL A   1      46.575 -21.641 -39.209  0.00  0.00    -0.055 A 
BRANCH  15  18
ATOM     18  O   UNL A   1      45.165 -22.439 -42.467  0.00  0.00    -0.507 OA
ATOM     19  H   UNL A   1      45.167 -23.374 -42.412  0.00  0.00    +0.000 HD
ENDBRANCH  15  18
ENDBRANCH  11  12
ENDBRANCH   7  11
ENDBRANCH   3   7
ENDBRANCH   2   5
ENDBRANCH   1   2
BRANCH   1  20
ATOM     20  C   UNL A   1      42.062 -18.038 -33.850  0.00  0.00    -0.036 C 
BRANCH  20  21
ATOM     21  C   UNL A   1      41.367 -19.399 -33.824  0.00  0.00    +0.009 C 
BRANCH  21  22
ATOM     22  N   UNL A   1      40.348 -19.432 -34.883  0.00  0.00    -0.343 N 
ATOM     23  H   UNL A   1      39.766 -18.673 -35.114  0.00  0.00    +0.000 HD
BRANCH  22  24
ATOM     24  C   UNL A   1      40.307 -20.702 -35.535  0.00  0.00    +0.041 A 
ATOM     25  C   UNL A   1      39.466 -21.728 -35.054  0.00  0.00    -0.005 A 
ATOM     26  C   UNL A   1      39.431 -22.926 -35.774  0.00  0.00    +0.047 A 
ATOM     27  N   UNL A   1      40.115 -23.121 -36.926  0.00  0.00    -0.251 NA
ATOM     28  C   UNL A   1      40.903 -22.140 -37.390  0.00  0.00    +0.073 A 
ATOM     29  C   UNL A   1      41.607 -22.365 -38.565  0.00  0.00    -0.036 A 
ATOM     30  C   UNL A   1      42.464 -21.406 -39.110  0.00  0.00    -0.060 A 
ATOM     31  C   UNL A   1      42.631 -20.191 -38.463  0.00  0.00    -0.061 A 
ATOM     32  C   UNL A   1      41.931 -19.944 -37.283  0.00  0.00    -0.051 A 
ATOM     33  C   UNL A   1      41.045 -20.904 -36.733  0.00  0.00    +0.021 A 
ATOM     34  C   UNL A   1      38.568 -24.085 -35.346  0.00  0.00    -0.010 C 
ATOM     35  C   UNL A   1      38.171 -24.031 -33.877  0.00  0.00    -0.047 C 
ATOM     36  C   UNL A   1      37.620 -22.652 -33.548  0.00  0.00    -0.049 C 
ATOM     37  C   UNL A   1      38.688 -21.582 -33.767  0.00  0.00    -0.024 C 
ENDBRANCH  22  24
ENDBRANCH  21  22
ENDBRANCH  20  21
ENDBRANCH   1  20
TORSDOF 11
ENDMDL
MODEL 8
REMARK VINA RESULT:    -6.477      0.456      3.260
REMARK INTER + INTRA:         -13.688
REMARK INTER:                 -10.597
REMARK INTRA:                  -3.091
REMARK UNBOUND:                -3.235
REMARK  Name = cpd342.pdb
REMARK  12 active torsions:
REMARK  status: ('A' for Active; 'I' for Inactive)
REMARK    1  A    between atoms: C_1  and  C_2
REMARK    2  A    between atoms: C_2  and  C_4
REMARK    3  A    between atoms: C_4  and  C_5
REMARK    4  A    between atoms: C_4  and  C_13
REMARK    5  A    between atoms: C_5  and  C_6
REMARK    6  A    between atoms: C_9  and  O_10
REMARK    7  A    between atoms: N_15  and  C_16
REMARK    8  A    between atoms: C_16  and  C_17
REMARK    9  A    between atoms: C_17  and  C_18
REMARK   10  A    between atoms: C_18  and  C_19
REMARK   11  A    between atoms: C_19  and  N_20
REMARK   12  A    between atoms: N_20  and  C_21
REMARK                            x       y       z     vdW  Elec       q    Type
REMARK                         _______ _______ _______ _____ _____    ______ ____
ROOT
ATOM      1  C   UNL A   1      32.112 -35.903 -33.280  0.00  0.00    -0.036 C 
ENDROOT
BRANCH   1   2
ATOM      2  C   UNL A   1      32.219 -37.180 -34.110  0.00  0.00    +0.012 C 
BRANCH   2   5
ATOM      3  C   UNL A   1      32.296 -39.198 -32.684  0.00  0.00    +0.224 C 
ATOM      4  O   UNL A   1      31.075 -39.236 -32.555  0.00  0.00    -0.275 OA
ATOM      5  N   UNL A   1      32.943 -38.222 -33.412  0.00  0.00    -0.315 N 
ATOM      6  H   UNL A   1      33.926 -38.234 -33.458  0.00  0.00    +0.000 HD
BRANCH   3   7
ATOM      7  C   UNL A   1      33.190 -40.264 -32.080  0.00  0.00    +0.097 C 
BRANCH   7   9
ATOM      8  C   UNL A   1      33.220 -42.709 -32.892  0.00  0.00    -0.005 C 
ATOM      9  C   UNL A   1      33.573 -41.267 -33.148  0.00  0.00    +0.142 C 
ATOM     10  O   UNL A   1      34.085 -40.913 -34.211  0.00  0.00    -0.297 OA
ENDBRANCH   7   9
BRANCH   7  11
ATOM     11  C   UNL A   1      34.451 -39.695 -31.416  0.00  0.00    -0.010 C 
BRANCH  11  12
ATOM     12  C   UNL A   1      34.876 -40.480 -30.197  0.00  0.00    -0.046 A 
ATOM     13  C   UNL A   1      36.234 -40.708 -29.933  0.00  0.00    -0.055 A 
ATOM     14  C   UNL A   1      36.627 -41.419 -28.797  0.00  0.00    -0.020 A 
ATOM     15  C   UNL A   1      35.659 -41.901 -27.924  0.00  0.00    +0.117 A 
ATOM     16  C   UNL A   1      34.308 -41.683 -28.167  0.00  0.00    -0.020 A 
ATOM     17  C   UNL A   1      33.916 -40.970 -29.302  0.00  0.00    -0.055 A 
BRANCH  15  18
ATOM     18  O   UNL A   1      35.997 -42.601 -26.803  0.00  0.00    -0.507 OA
ATOM     19  H   UNL A   1      35.327 -42.951 -26.249  0.00  0.00    +0.000 HD
ENDBRANCH  15  18
ENDBRANCH  11  12
ENDBRANCH   7  11
ENDBRANCH   3   7
ENDBRANCH   2   5
ENDBRANCH   1   2
BRANCH   1  20
ATOM     20  C   UNL A   1      33.345 -35.709 -32.398  0.00  0.00    -0.036 C 
BRANCH  20  21
ATOM     21  C   UNL A   1      32.995 -35.851 -30.917  0.00  0.00    +0.009 C 
BRANCH  21  22
ATOM     22  N   UNL A   1      33.999 -35.130 -30.121  0.00  0.00    -0.343 N 
ATOM     23  H   UNL A   1      34.087 -34.151 -30.100  0.00  0.00    +0.000 HD
BRANCH  22  24
ATOM     24  C   UNL A   1      34.829 -36.027 -29.381  0.00  0.00    +0.041 A 
ATOM     25  C   UNL A   1      36.176 -36.226 -29.750  0.00  0.00    -0.005 A 
ATOM     26  C   UNL A   1      36.947 -37.073 -28.949  0.00  0.00    +0.047 A 
ATOM     27  N   UNL A   1      36.480 -37.656 -27.819  0.00  0.00    -0.251 NA
ATOM     28  C   UNL A   1      35.204 -37.454 -27.461  0.00  0.00    +0.073 A 
ATOM     29  C   UNL A   1      34.740 -38.073 -26.307  0.00  0.00    -0.036 A 
ATOM     30  C   UNL A   1      33.421 -37.932 -25.871  0.00  0.00    -0.060 A 
ATOM     31  C   UNL A   1      32.535 -37.160 -26.608  0.00  0.00    -0.061 A 
ATOM     32  C   UNL A   1      32.981 -36.529 -27.768  0.00  0.00    -0.051 A 
ATOM     33  C   UNL A   1      34.323 -36.651 -28.208  0.00  0.00    +0.021 A 
ATOM     34  C   UNL A   1      38.396 -37.355 -29.254  0.00  0.00    -0.010 C 
ATOM     35  C   UNL A   1      38.771 -37.075 -30.703  0.00  0.00    -0.047 C 
ATOM     36  C   UNL A   1      38.278 -35.693 -31.100  0.00  0.00    -0.049 C 
ATOM     37  C   UNL A   1      36.755 -35.619 -31.006  0.00  0.00    -0.024 C 
ENDBRANCH  22  24
ENDBRANCH  21  22
ENDBRANCH  20  21
ENDBRANCH   1  20
TORSDOF 11
ENDMDL
MODEL 9
REMARK VINA RESULT:    -6.450     19.624     22.981
REMARK INTER + INTRA:         -13.644
REMARK INTER:                 -10.935
REMARK INTRA:                  -2.709
REMARK UNBOUND:                -3.235
REMARK  Name = cpd342.pdb
REMARK  12 active torsions:
REMARK  status: ('A' for Active; 'I' for Inactive)
REMARK    1  A    between atoms: C_1  and  C_2
REMARK    2  A    between atoms: C_2  and  C_4
REMARK    3  A    between atoms: C_4  and  C_5
REMARK    4  A    between atoms: C_4  and  C_13
REMARK    5  A    between atoms: C_5  and  C_6
REMARK    6  A    between atoms: C_9  and  O_10
REMARK    7  A    between atoms: N_15  and  C_16
REMARK    8  A    between atoms: C_16  and  C_17
REMARK    9  A    between atoms: C_17  and  C_18
REMARK   10  A    between atoms: C_18  and  C_19
REMARK   11  A    between atoms: C_19  and  N_20
REMARK   12  A    between atoms: N_20  and  C_21
REMARK                            x       y       z     vdW  Elec       q    Type
REMARK                         _______ _______ _______ _____ _____    ______ ____
ROOT
ATOM      1  C   UNL A   1      47.152 -18.467 -35.624  0.00  0.00    -0.036 C 
ENDROOT
BRANCH   1   2
ATOM      2  C   UNL A   1      46.330 -17.889 -34.475  0.00  0.00    +0.012 C 
BRANCH   2   5
ATOM      3  C   UNL A   1      43.904 -18.216 -34.817  0.00  0.00    +0.224 C 
ATOM      4  O   UNL A   1      43.794 -17.198 -35.495  0.00  0.00    -0.275 OA
ATOM      5  N   UNL A   1      45.100 -18.624 -34.265  0.00  0.00    -0.315 N 
ATOM      6  H   UNL A   1      45.118 -19.438 -33.712  0.00  0.00    +0.000 HD
BRANCH   3   7
ATOM      7  C   UNL A   1      42.723 -19.136 -34.571  0.00  0.00    +0.097 C 
BRANCH   7   9
ATOM      8  C   UNL A   1      40.909 -19.609 -32.802  0.00  0.00    -0.005 C 
ATOM      9  C   UNL A   1      42.197 -18.917 -33.167  0.00  0.00    +0.142 C 
ATOM     10  O   UNL A   1      42.829 -18.262 -32.337  0.00  0.00    -0.297 OA
ENDBRANCH   7   9
BRANCH   7  11
ATOM     11  C   UNL A   1      41.591 -18.959 -35.591  0.00  0.00    -0.010 C 
BRANCH  11  12
ATOM     12  C   UNL A   1      41.519 -20.091 -36.589  0.00  0.00    -0.046 A 
ATOM     13  C   UNL A   1      40.970 -21.329 -36.226  0.00  0.00    -0.055 A 
ATOM     14  C   UNL A   1      40.889 -22.369 -37.155  0.00  0.00    -0.020 A 
ATOM     15  C   UNL A   1      41.358 -22.170 -38.448  0.00  0.00    +0.117 A 
ATOM     16  C   UNL A   1      41.904 -20.949 -38.827  0.00  0.00    -0.020 A 
ATOM     17  C   UNL A   1      41.983 -19.908 -37.899  0.00  0.00    -0.055 A 
BRANCH  15  18
ATOM     18  O   UNL A   1      41.299 -23.157 -39.386  0.00  0.00    -0.507 OA
ATOM     19  H   UNL A   1      42.089 -23.531 -39.723  0.00  0.00    +0.000 HD
ENDBRANCH  15  18
ENDBRANCH  11  12
ENDBRANCH   7  11
ENDBRANCH   3   7
ENDBRANCH   2   5
ENDBRANCH   1   2
BRANCH   1  20
ATOM     20  C   UNL A   1      47.074 -19.993 -35.650  0.00  0.00    -0.036 C 
BRANCH  20  21
ATOM     21  C   UNL A   1      46.442 -20.494 -36.948  0.00  0.00    +0.009 C 
BRANCH  21  22
ATOM     22  N   UNL A   1      47.228 -19.990 -38.084  0.00  0.00    -0.343 N 
ATOM     23  H   UNL A   1      48.138 -19.623 -38.007  0.00  0.00    +0.000 HD
BRANCH  22  24
ATOM     24  C   UNL A   1      46.508 -20.099 -39.313  0.00  0.00    +0.041 A 
ATOM     25  C   UNL A   1      45.620 -19.079 -39.716  0.00  0.00    -0.005 A 
ATOM     26  C   UNL A   1      44.992 -19.223 -40.957  0.00  0.00    +0.047 A 
ATOM     27  N   UNL A   1      45.239 -20.253 -41.801  0.00  0.00    -0.251 NA
ATOM     28  C   UNL A   1      46.094 -21.214 -41.422  0.00  0.00    +0.073 A 
ATOM     29  C   UNL A   1      46.323 -22.269 -42.295  0.00  0.00    -0.036 A 
ATOM     30  C   UNL A   1      47.184 -23.321 -41.975  0.00  0.00    -0.060 A 
ATOM     31  C   UNL A   1      47.830 -23.328 -40.748  0.00  0.00    -0.061 A 
ATOM     32  C   UNL A   1      47.616 -22.277 -39.858  0.00  0.00    -0.051 A 
ATOM     33  C   UNL A   1      46.759 -21.196 -40.183  0.00  0.00    +0.021 A 
ATOM     34  C   UNL A   1      44.025 -18.193 -41.482  0.00  0.00    -0.010 C 
ATOM     35  C   UNL A   1      43.434 -17.311 -40.391  0.00  0.00    -0.047 C 
ATOM     36  C   UNL A   1      44.549 -16.769 -39.512  0.00  0.00    -0.049 C 
ATOM     37  C   UNL A   1      45.288 -17.911 -38.817  0.00  0.00    -0.024 C 
ENDBRANCH  22  24
ENDBRANCH  21  22
ENDBRANCH  20  21
ENDBRANCH   1  20
TORSDOF 11
ENDMDL
MODEL 10
REMARK VINA RESULT:    -6.393     20.093     23.453
REMARK INTER + INTRA:         -13.551
REMARK INTER:                  -9.632
REMARK INTRA:                  -3.919
REMARK UNBOUND:                -3.235
REMARK  Name = cpd342.pdb
REMARK  12 active torsions:
REMARK  status: ('A' for Active; 'I' for Inactive)
REMARK    1  A    between atoms: C_1  and  C_2
REMARK    2  A    between atoms: C_2  and  C_4
REMARK    3  A    between atoms: C_4  and  C_5
REMARK    4  A    between atoms: C_4  and  C_13
REMARK    5  A    between atoms: C_5  and  C_6
REMARK    6  A    between atoms: C_9  and  O_10
REMARK    7  A    between atoms: N_15  and  C_16
REMARK    8  A    between atoms: C_16  and  C_17
REMARK    9  A    between atoms: C_17  and  C_18
REMARK   10  A    between atoms: C_18  and  C_19
REMARK   11  A    between atoms: C_19  and  N_20
REMARK   12  A    between atoms: N_20  and  C_21
REMARK                            x       y       z     vdW  Elec       q    Type
REMARK                         _______ _______ _______ _____ _____    ______ ____
ROOT
ATOM      1  C   UNL A   1      40.617 -21.121 -39.068  0.00  0.00    -0.036 C 
ENDROOT
BRANCH   1   2
ATOM      2  C   UNL A   1      40.555 -21.653 -37.638  0.00  0.00    +0.012 C 
BRANCH   2   5
ATOM      3  C   UNL A   1      42.283 -20.501 -36.297  0.00  0.00    +0.224 C 
ATOM      4  O   UNL A   1      43.188 -21.208 -36.731  0.00  0.00    -0.275 OA
ATOM      5  N   UNL A   1      40.964 -20.656 -36.671  0.00  0.00    -0.315 N 
ATOM      6  H   UNL A   1      40.282 -20.072 -36.269  0.00  0.00    +0.000 HD
BRANCH   3   7
ATOM      7  C   UNL A   1      42.560 -19.361 -35.335  0.00  0.00    +0.097 C 
BRANCH   7   9
ATOM      8  C   UNL A   1      41.899 -19.700 -32.867  0.00  0.00    -0.005 C 
ATOM      9  C   UNL A   1      41.485 -19.329 -34.267  0.00  0.00    +0.142 C 
ATOM     10  O   UNL A   1      40.340 -18.947 -34.517  0.00  0.00    -0.297 OA
ENDBRANCH   7   9
BRANCH   7  11
ATOM     11  C   UNL A   1      43.946 -19.437 -34.683  0.00  0.00    -0.010 C 
BRANCH  11  12
ATOM     12  C   UNL A   1      44.947 -18.505 -35.324  0.00  0.00    -0.046 A 
ATOM     13  C   UNL A   1      44.833 -17.116 -35.165  0.00  0.00    -0.055 A 
ATOM     14  C   UNL A   1      45.769 -16.256 -35.744  0.00  0.00    -0.020 A 
ATOM     15  C   UNL A   1      46.819 -16.786 -36.484  0.00  0.00    +0.117 A 
ATOM     16  C   UNL A   1      46.950 -18.159 -36.652  0.00  0.00    -0.020 A 
ATOM     17  C   UNL A   1      46.016 -19.020 -36.070  0.00  0.00    -0.055 A 
BRANCH  15  18
ATOM     18  O   UNL A   1      47.755 -15.983 -37.067  0.00  0.00    -0.507 OA
ATOM     19  H   UNL A   1      48.621 -16.306 -37.217  0.00  0.00    +0.000 HD
ENDBRANCH  15  18
ENDBRANCH  11  12
ENDBRANCH   7  11
ENDBRANCH   3   7
ENDBRANCH   2   5
ENDBRANCH   1   2
BRANCH   1  20
ATOM     20  C   UNL A   1      41.472 -22.023 -39.959  0.00  0.00    -0.036 C 
BRANCH  20  21
ATOM     21  C   UNL A   1      42.675 -21.266 -40.521  0.00  0.00    +0.009 C 
BRANCH  21  22
ATOM     22  N   UNL A   1      43.763 -21.302 -39.534  0.00  0.00    -0.343 N 
ATOM     23  H   UNL A   1      43.730 -21.814 -38.694  0.00  0.00    +0.000 HD
BRANCH  22  24
ATOM     24  C   UNL A   1      44.873 -20.501 -39.943  0.00  0.00    +0.041 A 
ATOM     25  C   UNL A   1      45.968 -21.084 -40.616  0.00  0.00    -0.005 A 
ATOM     26  C   UNL A   1      46.993 -20.233 -41.039  0.00  0.00    +0.047 A 
ATOM     27  N   UNL A   1      46.955 -18.888 -40.884  0.00  0.00    -0.251 NA
ATOM     28  C   UNL A   1      45.908 -18.335 -40.257  0.00  0.00    +0.073 A 
ATOM     29  C   UNL A   1      45.894 -16.955 -40.095  0.00  0.00    -0.036 A 
ATOM     30  C   UNL A   1      44.852 -16.297 -39.439  0.00  0.00    -0.060 A 
ATOM     31  C   UNL A   1      43.796 -17.032 -38.921  0.00  0.00    -0.061 A 
ATOM     32  C   UNL A   1      43.789 -18.418 -39.076  0.00  0.00    -0.051 A 
ATOM     33  C   UNL A   1      44.833 -19.092 -39.757  0.00  0.00    +0.021 A 
ATOM     34  C   UNL A   1      48.207 -20.752 -41.766  0.00  0.00    -0.010 C 
ATOM     35  C   UNL A   1      48.450 -22.239 -41.547  0.00  0.00    -0.047 C 
ATOM     36  C   UNL A   1      47.163 -23.009 -41.797  0.00  0.00    -0.049 C 
ATOM     37  C   UNL A   1      46.080 -22.578 -40.809  0.00  0.00    -0.024 C 
ENDBRANCH  22  24
ENDBRANCH  21  22
ENDBRANCH  20  21
ENDBRANCH   1  20
TORSDOF 11
ENDMDL
MODEL 11
REMARK VINA RESULT:    -6.387      3.732      6.611
REMARK INTER + INTRA:         -13.543
REMARK INTER:                 -12.144
REMARK INTRA:                  -1.398
REMARK UNBOUND:                -3.235
REMARK  Name = cpd342.pdb
REMARK  12 active torsions:
REMARK  status: ('A' for Active; 'I' for Inactive)
REMARK    1  A    between atoms: C_1  and  C_2
REMARK    2  A    between atoms: C_2  and  C_4
REMARK    3  A    between atoms: C_4  and  C_5
REMARK    4  A    between atoms: C_4  and  C_13
REMARK    5  A    between atoms: C_5  and  C_6
REMARK    6  A    between atoms: C_9  and  O_10
REMARK    7  A    between atoms: N_15  and  C_16
REMARK    8  A    between atoms: C_16  and  C_17
REMARK    9  A    between atoms: C_17  and  C_18
REMARK   10  A    between atoms: C_18  and  C_19
REMARK   11  A    between atoms: C_19  and  N_20
REMARK   12  A    between atoms: N_20  and  C_21
REMARK                            x       y       z     vdW  Elec       q    Type
REMARK                         _______ _______ _______ _____ _____    ______ ____
ROOT
ATOM      1  C   UNL A   1      33.288 -36.424 -26.565  0.00  0.00    -0.036 C 
ENDROOT
BRANCH   1   2
ATOM      2  C   UNL A   1      33.642 -37.863 -26.932  0.00  0.00    +0.012 C 
BRANCH   2   5
ATOM      3  C   UNL A   1      35.920 -37.860 -27.892  0.00  0.00    +0.224 C 
ATOM      4  O   UNL A   1      36.454 -37.713 -26.796  0.00  0.00    -0.275 OA
ATOM      5  N   UNL A   1      34.552 -37.928 -28.056  0.00  0.00    -0.315 N 
ATOM      6  H   UNL A   1      34.185 -38.023 -28.964  0.00  0.00    +0.000 HD
BRANCH   3   7
ATOM      7  C   UNL A   1      36.739 -38.023 -29.158  0.00  0.00    +0.097 C 
BRANCH   7   9
ATOM      8  C   UNL A   1      36.697 -40.595 -28.994  0.00  0.00    -0.005 C 
ATOM      9  C   UNL A   1      36.414 -39.356 -29.802  0.00  0.00    +0.142 C 
ATOM     10  O   UNL A   1      35.874 -39.422 -30.908  0.00  0.00    -0.297 OA
ENDBRANCH   7   9
BRANCH   7  11
ATOM     11  C   UNL A   1      36.532 -36.887 -30.168  0.00  0.00    -0.010 C 
BRANCH  11  12
ATOM     12  C   UNL A   1      37.827 -36.401 -30.776  0.00  0.00    -0.046 A 
ATOM     13  C   UNL A   1      39.056 -36.932 -30.358  0.00  0.00    -0.055 A 
ATOM     14  C   UNL A   1      40.251 -36.494 -30.933  0.00  0.00    -0.020 A 
ATOM     15  C   UNL A   1      40.216 -35.523 -31.927  0.00  0.00    +0.117 A 
ATOM     16  C   UNL A   1      39.008 -34.986 -32.355  0.00  0.00    -0.020 A 
ATOM     17  C   UNL A   1      37.813 -35.426 -31.782  0.00  0.00    -0.055 A 
BRANCH  15  18
ATOM     18  O   UNL A   1      41.358 -35.065 -32.515  0.00  0.00    -0.507 OA
ATOM     19  H   UNL A   1      41.468 -35.135 -33.442  0.00  0.00    +0.000 HD
ENDBRANCH  15  18
ENDBRANCH  11  12
ENDBRANCH   7  11
ENDBRANCH   3   7
ENDBRANCH   2   5
ENDBRANCH   1   2
BRANCH   1  20
ATOM     20  C   UNL A   1      31.846 -36.092 -26.948  0.00  0.00    -0.036 C 
BRANCH  20  21
ATOM     21  C   UNL A   1      31.709 -34.631 -27.377  0.00  0.00    +0.009 C 
BRANCH  21  22
ATOM     22  N   UNL A   1      30.911 -34.572 -28.610  0.00  0.00    -0.343 N 
ATOM     23  H   UNL A   1      30.232 -35.238 -28.861  0.00  0.00    +0.000 HD
BRANCH  22  24
ATOM     24  C   UNL A   1      31.243 -33.427 -29.398  0.00  0.00    +0.041 A 
ATOM     25  C   UNL A   1      30.277 -32.432 -29.659  0.00  0.00    -0.005 A 
ATOM     26  C   UNL A   1      30.685 -31.311 -30.387  0.00  0.00    +0.047 A 
ATOM     27  N   UNL A   1      31.961 -31.115 -30.797  0.00  0.00    -0.251 NA
ATOM     28  C   UNL A   1      32.881 -32.054 -30.536  0.00  0.00    +0.073 A 
ATOM     29  C   UNL A   1      34.180 -31.841 -30.978  0.00  0.00    -0.036 A 
ATOM     30  C   UNL A   1      35.197 -32.775 -30.766  0.00  0.00    -0.060 A 
ATOM     31  C   UNL A   1      34.912 -33.958 -30.101  0.00  0.00    -0.061 A 
ATOM     32  C   UNL A   1      33.614 -34.190 -29.647  0.00  0.00    -0.051 A 
ATOM     33  C   UNL A   1      32.581 -33.240 -29.842  0.00  0.00    +0.021 A 
ATOM     34  C   UNL A   1      29.734 -30.191 -30.721  0.00  0.00    -0.010 C 
ATOM     35  C   UNL A   1      28.270 -30.605 -30.656  0.00  0.00    -0.047 C 
ATOM     36  C   UNL A   1      28.000 -31.319 -29.342  0.00  0.00    -0.049 C 
ATOM     37  C   UNL A   1      28.834 -32.595 -29.243  0.00  0.00    -0.024 C 
ENDBRANCH  22  24
ENDBRANCH  21  22
ENDBRANCH  20  21
ENDBRANCH   1  20
TORSDOF 11
ENDMDL
MODEL 12
REMARK VINA RESULT:    -6.336     18.149     21.202
REMARK INTER + INTRA:         -13.461
REMARK INTER:                 -11.887
REMARK INTRA:                  -1.573
REMARK UNBOUND:                -3.235
REMARK  Name = cpd342.pdb
REMARK  12 active torsions:
REMARK  status: ('A' for Active; 'I' for Inactive)
REMARK    1  A    between atoms: C_1  and  C_2
REMARK    2  A    between atoms: C_2  and  C_4
REMARK    3  A    between atoms: C_4  and  C_5
REMARK    4  A    between atoms: C_4  and  C_13
REMARK    5  A    between atoms: C_5  and  C_6
REMARK    6  A    between atoms: C_9  and  O_10
REMARK    7  A    between atoms: N_15  and  C_16
REMARK    8  A    between atoms: C_16  and  C_17
REMARK    9  A    between atoms: C_17  and  C_18
REMARK   10  A    between atoms: C_18  and  C_19
REMARK   11  A    between atoms: C_19  and  N_20
REMARK   12  A    between atoms: N_20  and  C_21
REMARK                            x       y       z     vdW  Elec       q    Type
REMARK                         _______ _______ _______ _____ _____    ______ ____
ROOT
ATOM      1  C   UNL A   1      44.137 -18.217 -34.983  0.00  0.00    -0.036 C 
ENDROOT
BRANCH   1   2
ATOM      2  C   UNL A   1      45.224 -18.660 -35.959  0.00  0.00    +0.012 C 
BRANCH   2   5
ATOM      3  C   UNL A   1      44.423 -19.573 -38.113  0.00  0.00    +0.224 C 
ATOM      4  O   UNL A   1      44.418 -18.471 -38.655  0.00  0.00    -0.275 OA
ATOM      5  N   UNL A   1      44.787 -19.759 -36.795  0.00  0.00    -0.315 N 
ATOM      6  H   UNL A   1      44.748 -20.664 -36.412  0.00  0.00    +0.000 HD
BRANCH   3   7
ATOM      7  C   UNL A   1      44.067 -20.834 -38.876  0.00  0.00    +0.097 C 
BRANCH   7   9
ATOM      8  C   UNL A   1      41.918 -22.055 -39.607  0.00  0.00    -0.005 C 
ATOM      9  C   UNL A   1      42.632 -21.216 -38.579  0.00  0.00    +0.142 C 
ATOM     10  O   UNL A   1      42.093 -20.915 -37.512  0.00  0.00    -0.297 OA
ENDBRANCH   7   9
BRANCH   7  11
ATOM     11  C   UNL A   1      44.275 -20.708 -40.391  0.00  0.00    -0.010 C 
BRANCH  11  12
ATOM     12  C   UNL A   1      45.403 -21.573 -40.902  0.00  0.00    -0.046 A 
ATOM     13  C   UNL A   1      45.370 -22.093 -42.204  0.00  0.00    -0.055 A 
ATOM     14  C   UNL A   1      46.421 -22.879 -42.682  0.00  0.00    -0.020 A 
ATOM     15  C   UNL A   1      47.507 -23.144 -41.855  0.00  0.00    +0.117 A 
ATOM     16  C   UNL A   1      47.559 -22.636 -40.563  0.00  0.00    -0.020 A 
ATOM     17  C   UNL A   1      46.509 -21.848 -40.086  0.00  0.00    -0.055 A 
BRANCH  15  18
ATOM     18  O   UNL A   1      48.555 -23.907 -42.280  0.00  0.00    -0.507 OA
ATOM     19  H   UNL A   1      48.947 -23.740 -43.113  0.00  0.00    +0.000 HD
ENDBRANCH  15  18
ENDBRANCH  11  12
ENDBRANCH   7  11
ENDBRANCH   3   7
ENDBRANCH   2   5
ENDBRANCH   1   2
BRANCH   1  20
ATOM     20  C   UNL A   1      44.029 -19.178 -33.800  0.00  0.00    -0.036 C 
BRANCH  20  21
ATOM     21  C   UNL A   1      42.836 -20.121 -33.960  0.00  0.00    +0.009 C 
BRANCH  21  22
ATOM     22  N   UNL A   1      42.167 -20.265 -32.659  0.00  0.00    -0.343 N 
ATOM     23  H   UNL A   1      42.638 -20.417 -31.809  0.00  0.00    +0.000 HD
BRANCH  22  24
ATOM     24  C   UNL A   1      40.747 -20.159 -32.782  0.00  0.00    +0.041 A 
ATOM     25  C   UNL A   1      39.955 -21.312 -32.962  0.00  0.00    -0.005 A 
ATOM     26  C   UNL A   1      38.569 -21.142 -33.017  0.00  0.00    +0.047 A 
ATOM     27  N   UNL A   1      37.960 -19.944 -32.850  0.00  0.00    -0.251 NA
ATOM     28  C   UNL A   1      38.713 -18.851 -32.665  0.00  0.00    +0.073 A 
ATOM     29  C   UNL A   1      38.071 -17.629 -32.510  0.00  0.00    -0.036 A 
ATOM     30  C   UNL A   1      38.777 -16.438 -32.331  0.00  0.00    -0.060 A 
ATOM     31  C   UNL A   1      40.164 -16.461 -32.312  0.00  0.00    -0.061 A 
ATOM     32  C   UNL A   1      40.828 -17.677 -32.462  0.00  0.00    -0.051 A 
ATOM     33  C   UNL A   1      40.119 -18.893 -32.627  0.00  0.00    +0.021 A 
ATOM     34  C   UNL A   1      37.632 -22.307 -33.207  0.00  0.00    -0.010 C 
ATOM     35  C   UNL A   1      38.305 -23.528 -33.818  0.00  0.00    -0.047 C 
ATOM     36  C   UNL A   1      39.585 -23.839 -33.058  0.00  0.00    -0.049 C 
ATOM     37  C   UNL A   1      40.571 -22.677 -33.170  0.00  0.00    -0.024 C 
ENDBRANCH  22  24
ENDBRANCH  21  22
ENDBRANCH  20  21
ENDBRANCH   1  20
TORSDOF 11
ENDMDL
MODEL 13
REMARK VINA RESULT:    -6.297      2.632      6.104
REMARK INTER + INTRA:         -13.396
REMARK INTER:                 -11.125
REMARK INTRA:                  -2.272
REMARK UNBOUND:                -3.235
REMARK  Name = cpd342.pdb
REMARK  12 active torsions:
REMARK  status: ('A' for Active; 'I' for Inactive)
REMARK    1  A    between atoms: C_1  and  C_2
REMARK    2  A    between atoms: C_2  and  C_4
REMARK    3  A    between atoms: C_4  and  C_5
REMARK    4  A    between atoms: C_4  and  C_13
REMARK    5  A    between atoms: C_5  and  C_6
REMARK    6  A    between atoms: C_9  and  O_10
REMARK    7  A    between atoms: N_15  and  C_16
REMARK    8  A    between atoms: C_16  and  C_17
REMARK    9  A    between atoms: C_17  and  C_18
REMARK   10  A    between atoms: C_18  and  C_19
REMARK   11  A    between atoms: C_19  and  N_20
REMARK   12  A    between atoms: N_20  and  C_21
REMARK                            x       y       z     vdW  Elec       q    Type
REMARK                         _______ _______ _______ _____ _____    ______ ____
ROOT
ATOM      1  C   UNL A   1      33.276 -36.789 -26.269  0.00  0.00    -0.036 C 
ENDROOT
BRANCH   1   2
ATOM      2  C   UNL A   1      33.733 -38.184 -26.689  0.00  0.00    +0.012 C 
BRANCH   2   5
ATOM      3  C   UNL A   1      35.980 -37.885 -27.674  0.00  0.00    +0.224 C 
ATOM      4  O   UNL A   1      36.500 -37.651 -26.586  0.00  0.00    -0.275 OA
ATOM      5  N   UNL A   1      34.633 -38.141 -27.822  0.00  0.00    -0.315 N 
ATOM      6  H   UNL A   1      34.274 -38.299 -28.725  0.00  0.00    +0.000 HD
BRANCH   3   7
ATOM      7  C   UNL A   1      36.803 -37.955 -28.947  0.00  0.00    +0.097 C 
BRANCH   7   9
ATOM      8  C   UNL A   1      36.929 -40.529 -28.949  0.00  0.00    -0.005 C 
ATOM      9  C   UNL A   1      36.523 -39.263 -29.658  0.00  0.00    +0.142 C 
ATOM     10  O   UNL A   1      35.926 -39.297 -30.735  0.00  0.00    -0.297 OA
ENDBRANCH   7   9
BRANCH   7  11
ATOM     11  C   UNL A   1      36.554 -36.777 -29.897  0.00  0.00    -0.010 C 
BRANCH  11  12
ATOM     12  C   UNL A   1      37.808 -36.321 -30.607  0.00  0.00    -0.046 A 
ATOM     13  C   UNL A   1      37.751 -35.310 -31.577  0.00  0.00    -0.055 A 
ATOM     14  C   UNL A   1      38.913 -34.878 -32.220  0.00  0.00    -0.020 A 
ATOM     15  C   UNL A   1      40.132 -35.458 -31.893  0.00  0.00    +0.117 A 
ATOM     16  C   UNL A   1      40.209 -36.460 -30.933  0.00  0.00    -0.020 A 
ATOM     17  C   UNL A   1      39.048 -36.891 -30.288  0.00  0.00    -0.055 A 
BRANCH  15  18
ATOM     18  O   UNL A   1      41.291 -35.068 -32.496  0.00  0.00    -0.507 OA
ATOM     19  H   UNL A   1      41.567 -34.174 -32.446  0.00  0.00    +0.000 HD
ENDBRANCH  15  18
ENDBRANCH  11  12
ENDBRANCH   7  11
ENDBRANCH   3   7
ENDBRANCH   2   5
ENDBRANCH   1   2
BRANCH   1  20
ATOM     20  C   UNL A   1      31.879 -36.478 -26.805  0.00  0.00    -0.036 C 
BRANCH  20  21
ATOM     21  C   UNL A   1      31.835 -35.102 -27.470  0.00  0.00    +0.009 C 
BRANCH  21  22
ATOM     22  N   UNL A   1      31.135 -35.219 -28.757  0.00  0.00    -0.343 N 
ATOM     23  H   UNL A   1      30.155 -35.244 -28.853  0.00  0.00    +0.000 HD
BRANCH  22  24
ATOM     24  C   UNL A   1      32.050 -35.291 -29.852  0.00  0.00    +0.041 A 
ATOM     25  C   UNL A   1      32.843 -34.177 -30.197  0.00  0.00    -0.005 A 
ATOM     26  C   UNL A   1      33.759 -34.335 -31.241  0.00  0.00    +0.047 A 
ATOM     27  N   UNL A   1      33.955 -35.509 -31.887  0.00  0.00    -0.251 NA
ATOM     28  C   UNL A   1      33.211 -36.571 -31.548  0.00  0.00    +0.073 A 
ATOM     29  C   UNL A   1      33.416 -37.762 -32.232  0.00  0.00    -0.036 A 
ATOM     30  C   UNL A   1      32.674 -38.912 -31.956  0.00  0.00    -0.060 A 
ATOM     31  C   UNL A   1      31.692 -38.874 -30.977  0.00  0.00    -0.061 A 
ATOM     32  C   UNL A   1      31.472 -37.689 -30.277  0.00  0.00    -0.051 A 
ATOM     33  C   UNL A   1      32.233 -36.523 -30.538  0.00  0.00    +0.021 A 
ATOM     34  C   UNL A   1      34.654 -33.208 -31.691  0.00  0.00    -0.010 C 
ATOM     35  C   UNL A   1      34.139 -31.833 -31.289  0.00  0.00    -0.047 C 
ATOM     36  C   UNL A   1      33.784 -31.833 -29.811  0.00  0.00    -0.049 C 
ATOM     37  C   UNL A   1      32.665 -32.834 -29.528  0.00  0.00    -0.024 C 
ENDBRANCH  22  24
ENDBRANCH  21  22
ENDBRANCH  20  21
ENDBRANCH   1  20
TORSDOF 11
ENDMDL
MODEL 14
REMARK VINA RESULT:    -6.273     19.624     22.818
REMARK INTER + INTRA:         -13.359
REMARK INTER:                  -8.892
REMARK INTRA:                  -4.467
REMARK UNBOUND:                -3.235
REMARK  Name = cpd342.pdb
REMARK  12 active torsions:
REMARK  status: ('A' for Active; 'I' for Inactive)
REMARK    1  A    between atoms: C_1  and  C_2
REMARK    2  A    between atoms: C_2  and  C_4
REMARK    3  A    between atoms: C_4  and  C_5
REMARK    4  A    between atoms: C_4  and  C_13
REMARK    5  A    between atoms: C_5  and  C_6
REMARK    6  A    between atoms: C_9  and  O_10
REMARK    7  A    between atoms: N_15  and  C_16
REMARK    8  A    between atoms: C_16  and  C_17
REMARK    9  A    between atoms: C_17  and  C_18
REMARK   10  A    between atoms: C_18  and  C_19
REMARK   11  A    between atoms: C_19  and  N_20
REMARK   12  A    between atoms: N_20  and  C_21
REMARK                            x       y       z     vdW  Elec       q    Type
REMARK                         _______ _______ _______ _____ _____    ______ ____
ROOT
ATOM      1  C   UNL A   1      39.741 -21.351 -38.639  0.00  0.00    -0.036 C 
ENDROOT
BRANCH   1   2
ATOM      2  C   UNL A   1      39.569 -21.643 -37.151  0.00  0.00    +0.012 C 
BRANCH   2   5
ATOM      3  C   UNL A   1      41.588 -20.864 -35.956  0.00  0.00    +0.224 C 
ATOM      4  O   UNL A   1      42.241 -21.854 -36.275  0.00  0.00    -0.275 OA
ATOM      5  N   UNL A   1      40.272 -20.683 -36.325  0.00  0.00    -0.315 N 
ATOM      6  H   UNL A   1      39.796 -19.878 -36.018  0.00  0.00    +0.000 HD
BRANCH   3   7
ATOM      7  C   UNL A   1      42.205 -19.731 -35.158  0.00  0.00    +0.097 C 
BRANCH   7   9
ATOM      8  C   UNL A   1      41.432 -18.128 -33.293  0.00  0.00    -0.005 C 
ATOM      9  C   UNL A   1      41.402 -19.510 -33.892  0.00  0.00    +0.142 C 
ATOM     10  O   UNL A   1      40.698 -20.400 -33.412  0.00  0.00    -0.297 OA
ENDBRANCH   7   9
BRANCH   7  11
ATOM     11  C   UNL A   1      43.680 -19.963 -34.811  0.00  0.00    -0.010 C 
BRANCH  11  12
ATOM     12  C   UNL A   1      44.624 -19.268 -35.765  0.00  0.00    -0.046 A 
ATOM     13  C   UNL A   1      44.638 -17.870 -35.863  0.00  0.00    -0.055 A 
ATOM     14  C   UNL A   1      45.522 -17.228 -36.733  0.00  0.00    -0.020 A 
ATOM     15  C   UNL A   1      46.392 -17.987 -37.507  0.00  0.00    +0.117 A 
ATOM     16  C   UNL A   1      46.394 -19.374 -37.423  0.00  0.00    -0.020 A 
ATOM     17  C   UNL A   1      45.512 -20.015 -36.550  0.00  0.00    -0.055 A 
BRANCH  15  18
ATOM     18  O   UNL A   1      47.271 -17.402 -38.370  0.00  0.00    -0.507 OA
ATOM     19  H   UNL A   1      48.073 -17.834 -38.586  0.00  0.00    +0.000 HD
ENDBRANCH  15  18
ENDBRANCH  11  12
ENDBRANCH   7  11
ENDBRANCH   3   7
ENDBRANCH   2   5
ENDBRANCH   1   2
BRANCH   1  20
ATOM     20  C   UNL A   1      40.611 -22.410 -39.316  0.00  0.00    -0.036 C 
BRANCH  20  21
ATOM     21  C   UNL A   1      41.740 -21.768 -40.122  0.00  0.00    +0.009 C 
BRANCH  21  22
ATOM     22  N   UNL A   1      42.779 -21.300 -39.193  0.00  0.00    -0.343 N 
ATOM     23  H   UNL A   1      42.909 -21.655 -38.284  0.00  0.00    +0.000 HD
BRANCH  22  24
ATOM     24  C   UNL A   1      43.577 -20.265 -39.771  0.00  0.00    +0.041 A 
ATOM     25  C   UNL A   1      43.250 -18.908 -39.564  0.00  0.00    -0.005 A 
ATOM     26  C   UNL A   1      44.106 -17.947 -40.110  0.00  0.00    +0.047 A 
ATOM     27  N   UNL A   1      45.247 -18.257 -40.770  0.00  0.00    -0.251 NA
ATOM     28  C   UNL A   1      45.563 -19.547 -40.954  0.00  0.00    +0.073 A 
ATOM     29  C   UNL A   1      46.730 -19.844 -41.646  0.00  0.00    -0.036 A 
ATOM     30  C   UNL A   1      47.127 -21.159 -41.898  0.00  0.00    -0.060 A 
ATOM     31  C   UNL A   1      46.336 -22.209 -41.456  0.00  0.00    -0.061 A 
ATOM     32  C   UNL A   1      45.162 -21.933 -40.757  0.00  0.00    -0.051 A 
ATOM     33  C   UNL A   1      44.762 -20.602 -40.481  0.00  0.00    +0.021 A 
ATOM     34  C   UNL A   1      43.849 -16.471 -39.949  0.00  0.00    -0.010 C 
ATOM     35  C   UNL A   1      42.400 -16.145 -39.616  0.00  0.00    -0.047 C 
ATOM     36  C   UNL A   1      41.933 -17.017 -38.462  0.00  0.00    -0.049 C 
ATOM     37  C   UNL A   1      41.985 -18.493 -38.850  0.00  0.00    -0.024 C 
ENDBRANCH  22  24
ENDBRANCH  21  22
ENDBRANCH  20  21
ENDBRANCH   1  20
TORSDOF 11
ENDMDL
MODEL 15
REMARK VINA RESULT:    -6.175     18.302     21.581
REMARK INTER + INTRA:         -13.201
REMARK INTER:                  -9.189
REMARK INTRA:                  -4.012
REMARK UNBOUND:                -3.235
REMARK  Name = cpd342.pdb
REMARK  12 active torsions:
REMARK  status: ('A' for Active; 'I' for Inactive)
REMARK    1  A    between atoms: C_1  and  C_2
REMARK    2  A    between atoms: C_2  and  C_4
REMARK    3  A    between atoms: C_4  and  C_5
REMARK    4  A    between atoms: C_4  and  C_13
REMARK    5  A    between atoms: C_5  and  C_6
REMARK    6  A    between atoms: C_9  and  O_10
REMARK    7  A    between atoms: N_15  and  C_16
REMARK    8  A    between atoms: C_16  and  C_17
REMARK    9  A    between atoms: C_17  and  C_18
REMARK   10  A    between atoms: C_18  and  C_19
REMARK   11  A    between atoms: C_19  and  N_20
REMARK   12  A    between atoms: N_20  and  C_21
REMARK                            x       y       z     vdW  Elec       q    Type
REMARK                         _______ _______ _______ _____ _____    ______ ____
ROOT
ATOM      1  C   UNL A   1      44.713 -17.242 -35.931  0.00  0.00    -0.036 C 
ENDROOT
BRANCH   1   2
ATOM      2  C   UNL A   1      44.436 -16.260 -34.795  0.00  0.00    +0.012 C 
BRANCH   2   5
ATOM      3  C   UNL A   1      42.554 -16.976 -33.361  0.00  0.00    +0.224 C 
ATOM      4  O   UNL A   1      43.264 -17.712 -32.681  0.00  0.00    -0.275 OA
ATOM      5  N   UNL A   1      43.037 -16.240 -34.423  0.00  0.00    -0.315 N 
ATOM      6  H   UNL A   1      42.412 -15.686 -34.944  0.00  0.00    +0.000 HD
BRANCH   3   7
ATOM      7  C   UNL A   1      41.082 -16.785 -33.050  0.00  0.00    +0.097 C 
BRANCH   7   9
ATOM      8  C   UNL A   1      39.475 -15.069 -31.994  0.00  0.00    -0.005 C 
ATOM      9  C   UNL A   1      40.861 -15.397 -32.485  0.00  0.00    +0.142 C 
ATOM     10  O   UNL A   1      41.789 -14.595 -32.365  0.00  0.00    -0.297 OA
ENDBRANCH   7   9
BRANCH   7  11
ATOM     11  C   UNL A   1      40.169 -17.011 -34.262  0.00  0.00    -0.010 C 
BRANCH  11  12
ATOM     12  C   UNL A   1      39.262 -18.209 -34.098  0.00  0.00    -0.046 A 
ATOM     13  C   UNL A   1      38.857 -18.955 -35.214  0.00  0.00    -0.055 A 
ATOM     14  C   UNL A   1      38.033 -20.071 -35.060  0.00  0.00    -0.020 A 
ATOM     15  C   UNL A   1      37.613 -20.441 -33.788  0.00  0.00    +0.117 A 
ATOM     16  C   UNL A   1      38.005 -19.715 -32.670  0.00  0.00    -0.020 A 
ATOM     17  C   UNL A   1      38.832 -18.600 -32.823  0.00  0.00    -0.055 A 
BRANCH  15  18
ATOM     18  O   UNL A   1      36.807 -21.523 -33.591  0.00  0.00    -0.507 OA
ATOM     19  H   UNL A   1      35.960 -21.413 -33.207  0.00  0.00    +0.000 HD
ENDBRANCH  15  18
ENDBRANCH  11  12
ENDBRANCH   7  11
ENDBRANCH   3   7
ENDBRANCH   2   5
ENDBRANCH   1   2
BRANCH   1  20
ATOM     20  C   UNL A   1      45.387 -18.513 -35.414  0.00  0.00    -0.036 C 
BRANCH  20  21
ATOM     21  C   UNL A   1      44.552 -19.753 -35.736  0.00  0.00    +0.009 C 
BRANCH  21  22
ATOM     22  N   UNL A   1      43.171 -19.335 -36.019  0.00  0.00    -0.343 N 
ATOM     23  H   UNL A   1      42.872 -18.398 -36.047  0.00  0.00    +0.000 HD
BRANCH  22  24
ATOM     24  C   UNL A   1      42.318 -20.458 -36.248  0.00  0.00    +0.041 A 
ATOM     25  C   UNL A   1      42.131 -20.961 -37.552  0.00  0.00    -0.005 A 
ATOM     26  C   UNL A   1      41.329 -22.097 -37.698  0.00  0.00    +0.047 A 
ATOM     27  N   UNL A   1      40.780 -22.758 -36.651  0.00  0.00    -0.251 NA
ATOM     28  C   UNL A   1      40.970 -22.287 -35.411  0.00  0.00    +0.073 A 
ATOM     29  C   UNL A   1      40.386 -22.971 -34.352  0.00  0.00    -0.036 A 
ATOM     30  C   UNL A   1      40.518 -22.541 -33.030  0.00  0.00    -0.060 A 
ATOM     31  C   UNL A   1      41.245 -21.393 -32.753  0.00  0.00    -0.061 A 
ATOM     32  C   UNL A   1      41.842 -20.693 -33.801  0.00  0.00    -0.051 A 
ATOM     33  C   UNL A   1      41.728 -21.133 -35.143  0.00  0.00    +0.021 A 
ATOM     34  C   UNL A   1      41.063 -22.715 -39.047  0.00  0.00    -0.010 C 
ATOM     35  C   UNL A   1      41.296 -21.755 -40.205  0.00  0.00    -0.047 C 
ATOM     36  C   UNL A   1      42.654 -21.088 -40.050  0.00  0.00    -0.049 C 
ATOM     37  C   UNL A   1      42.702 -20.264 -38.765  0.00  0.00    -0.024 C 
ENDBRANCH  22  24
ENDBRANCH  21  22
ENDBRANCH  20  21
ENDBRANCH   1  20
TORSDOF 11
ENDMDL
MODEL 16
REMARK VINA RESULT:    -6.093     19.677     22.915
REMARK INTER + INTRA:         -13.069
REMARK INTER:                 -11.773
REMARK INTRA:                  -1.295
REMARK UNBOUND:                -3.235
REMARK  Name = cpd342.pdb
REMARK  12 active torsions:
REMARK  status: ('A' for Active; 'I' for Inactive)
REMARK    1  A    between atoms: C_1  and  C_2
REMARK    2  A    between atoms: C_2  and  C_4
REMARK    3  A    between atoms: C_4  and  C_5
REMARK    4  A    between atoms: C_4  and  C_13
REMARK    5  A    between atoms: C_5  and  C_6
REMARK    6  A    between atoms: C_9  and  O_10
REMARK    7  A    between atoms: N_15  and  C_16
REMARK    8  A    between atoms: C_16  and  C_17
REMARK    9  A    between atoms: C_17  and  C_18
REMARK   10  A    between atoms: C_18  and  C_19
REMARK   11  A    between atoms: C_19  and  N_20
REMARK   12  A    between atoms: N_20  and  C_21
REMARK                            x       y       z     vdW  Elec       q    Type
REMARK                         _______ _______ _______ _____ _____    ______ ____
ROOT
ATOM      1  C   UNL A   1      46.138 -17.467 -35.650  0.00  0.00    -0.036 C 
ENDROOT
BRANCH   1   2
ATOM      2  C   UNL A   1      45.955 -18.019 -34.239  0.00  0.00    +0.012 C 
BRANCH   2   5
ATOM      3  C   UNL A   1      43.902 -18.509 -32.951  0.00  0.00    +0.224 C 
ATOM      4  O   UNL A   1      44.248 -17.808 -32.004  0.00  0.00    -0.275 OA
ATOM      5  N   UNL A   1      44.678 -18.684 -34.078  0.00  0.00    -0.315 N 
ATOM      6  H   UNL A   1      44.355 -19.278 -34.793  0.00  0.00    +0.000 HD
BRANCH   3   7
ATOM      7  C   UNL A   1      42.557 -19.209 -32.969  0.00  0.00    +0.097 C 
BRANCH   7   9
ATOM      8  C   UNL A   1      41.312 -17.162 -33.917  0.00  0.00    -0.005 C 
ATOM      9  C   UNL A   1      41.452 -18.184 -32.820  0.00  0.00    +0.142 C 
ATOM     10  O   UNL A   1      40.656 -18.226 -31.879  0.00  0.00    -0.297 OA
ENDBRANCH   7   9
BRANCH   7  11
ATOM     11  C   UNL A   1      42.326 -20.051 -34.231  0.00  0.00    -0.010 C 
BRANCH  11  12
ATOM     12  C   UNL A   1      41.420 -21.236 -33.987  0.00  0.00    -0.046 A 
ATOM     13  C   UNL A   1      41.285 -21.779 -32.701  0.00  0.00    -0.055 A 
ATOM     14  C   UNL A   1      40.435 -22.863 -32.474  0.00  0.00    -0.020 A 
ATOM     15  C   UNL A   1      39.720 -23.405 -33.535  0.00  0.00    +0.117 A 
ATOM     16  C   UNL A   1      39.839 -22.880 -34.816  0.00  0.00    -0.020 A 
ATOM     17  C   UNL A   1      40.686 -21.794 -35.043  0.00  0.00    -0.055 A 
BRANCH  15  18
ATOM     18  O   UNL A   1      38.879 -24.464 -33.358  0.00  0.00    -0.507 OA
ATOM     19  H   UNL A   1      38.806 -25.120 -34.023  0.00  0.00    +0.000 HD
ENDBRANCH  15  18
ENDBRANCH  11  12
ENDBRANCH   7  11
ENDBRANCH   3   7
ENDBRANCH   2   5
ENDBRANCH   1   2
BRANCH   1  20
ATOM     20  C   UNL A   1      47.299 -18.154 -36.368  0.00  0.00    -0.036 C 
BRANCH  20  21
ATOM     21  C   UNL A   1      46.793 -19.168 -37.395  0.00  0.00    +0.009 C 
BRANCH  21  22
ATOM     22  N   UNL A   1      47.368 -18.842 -38.708  0.00  0.00    -0.343 N 
ATOM     23  H   UNL A   1      48.302 -18.566 -38.848  0.00  0.00    +0.000 HD
BRANCH  22  24
ATOM     24  C   UNL A   1      46.404 -18.975 -39.753  0.00  0.00    +0.041 A 
ATOM     25  C   UNL A   1      45.568 -17.892 -40.099  0.00  0.00    -0.005 A 
ATOM     26  C   UNL A   1      44.688 -18.072 -41.170  0.00  0.00    +0.047 A 
ATOM     27  N   UNL A   1      44.643 -19.203 -41.914  0.00  0.00    -0.251 NA
ATOM     28  C   UNL A   1      45.448 -20.226 -41.593  0.00  0.00    +0.073 A 
ATOM     29  C   UNL A   1      45.377 -21.382 -42.359  0.00  0.00    -0.036 A 
ATOM     30  C   UNL A   1      46.166 -22.502 -42.085  0.00  0.00    -0.060 A 
ATOM     31  C   UNL A   1      47.045 -22.473 -41.013  0.00  0.00    -0.061 A 
ATOM     32  C   UNL A   1      47.133 -21.321 -40.233  0.00  0.00    -0.051 A 
ATOM     33  C   UNL A   1      46.351 -20.175 -40.515  0.00  0.00    +0.021 A 
ATOM     34  C   UNL A   1      43.751 -16.981 -41.622  0.00  0.00    -0.010 C 
ATOM     35  C   UNL A   1      43.495 -15.927 -40.552  0.00  0.00    -0.047 C 
ATOM     36  C   UNL A   1      44.820 -15.453 -39.976  0.00  0.00    -0.049 C 
ATOM     37  C   UNL A   1      45.556 -16.609 -39.302  0.00  0.00    -0.024 C 
ENDBRANCH  22  24
ENDBRANCH  21  22
ENDBRANCH  20  21
ENDBRANCH   1  20
TORSDOF 11
ENDMDL
MODEL 17
REMARK VINA RESULT:    -6.045     19.478     22.820
REMARK INTER + INTRA:         -12.990
REMARK INTER:                 -11.144
REMARK INTRA:                  -1.846
REMARK UNBOUND:                -3.235
REMARK  Name = cpd342.pdb
REMARK  12 active torsions:
REMARK  status: ('A' for Active; 'I' for Inactive)
REMARK    1  A    between atoms: C_1  and  C_2
REMARK    2  A    between atoms: C_2  and  C_4
REMARK    3  A    between atoms: C_4  and  C_5
REMARK    4  A    between atoms: C_4  and  C_13
REMARK    5  A    between atoms: C_5  and  C_6
REMARK    6  A    between atoms: C_9  and  O_10
REMARK    7  A    between atoms: N_15  and  C_16
REMARK    8  A    between atoms: C_16  and  C_17
REMARK    9  A    between atoms: C_17  and  C_18
REMARK   10  A    between atoms: C_18  and  C_19
REMARK   11  A    between atoms: C_19  and  N_20
REMARK   12  A    between atoms: N_20  and  C_21
REMARK                            x       y       z     vdW  Elec       q    Type
REMARK                         _______ _______ _______ _____ _____    ______ ____
ROOT
ATOM      1  C   UNL A   1      46.808 -18.142 -35.876  0.00  0.00    -0.036 C 
ENDROOT
BRANCH   1   2
ATOM      2  C   UNL A   1      46.138 -17.779 -34.553  0.00  0.00    +0.012 C 
BRANCH   2   5
ATOM      3  C   UNL A   1      43.677 -17.882 -34.762  0.00  0.00    +0.224 C 
ATOM      4  O   UNL A   1      43.602 -16.754 -35.240  0.00  0.00    -0.275 OA
ATOM      5  N   UNL A   1      44.871 -18.459 -34.382  0.00  0.00    -0.315 N 
ATOM      6  H   UNL A   1      44.861 -19.359 -33.983  0.00  0.00    +0.000 HD
BRANCH   3   7
ATOM      7  C   UNL A   1      42.447 -18.754 -34.592  0.00  0.00    +0.097 C 
BRANCH   7   9
ATOM      8  C   UNL A   1      41.213 -19.623 -36.681  0.00  0.00    -0.005 C 
ATOM      9  C   UNL A   1      42.374 -19.752 -35.730  0.00  0.00    +0.142 C 
ATOM     10  O   UNL A   1      43.262 -20.586 -35.913  0.00  0.00    -0.297 OA
ENDBRANCH   7   9
BRANCH   7  11
ATOM     11  C   UNL A   1      42.403 -19.489 -33.246  0.00  0.00    -0.010 C 
BRANCH  11  12
ATOM     12  C   UNL A   1      41.162 -20.335 -33.080  0.00  0.00    -0.046 A 
ATOM     13  C   UNL A   1      41.262 -21.727 -32.941  0.00  0.00    -0.055 A 
ATOM     14  C   UNL A   1      40.115 -22.507 -32.771  0.00  0.00    -0.020 A 
ATOM     15  C   UNL A   1      38.869 -21.893 -32.742  0.00  0.00    +0.117 A 
ATOM     16  C   UNL A   1      38.751 -20.515 -32.876  0.00  0.00    -0.020 A 
ATOM     17  C   UNL A   1      39.897 -19.735 -33.043  0.00  0.00    -0.055 A 
BRANCH  15  18
ATOM     18  O   UNL A   1      37.724 -22.616 -32.579  0.00  0.00    -0.507 OA
ATOM     19  H   UNL A   1      37.764 -23.549 -32.509  0.00  0.00    +0.000 HD
ENDBRANCH  15  18
ENDBRANCH  11  12
ENDBRANCH   7  11
ENDBRANCH   3   7
ENDBRANCH   2   5
ENDBRANCH   1   2
BRANCH   1  20
ATOM     20  C   UNL A   1      47.001 -19.653 -36.004  0.00  0.00    -0.036 C 
BRANCH  20  21
ATOM     21  C   UNL A   1      46.430 -20.175 -37.322  0.00  0.00    +0.009 C 
BRANCH  21  22
ATOM     22  N   UNL A   1      47.172 -19.565 -38.435  0.00  0.00    -0.343 N 
ATOM     23  H   UNL A   1      48.032 -19.099 -38.336  0.00  0.00    +0.000 HD
BRANCH  22  24
ATOM     24  C   UNL A   1      46.490 -19.735 -39.679  0.00  0.00    +0.041 A 
ATOM     25  C   UNL A   1      46.618 -20.936 -40.409  0.00  0.00    -0.005 A 
ATOM     26  C   UNL A   1      45.877 -21.057 -41.588  0.00  0.00    +0.047 A 
ATOM     27  N   UNL A   1      45.013 -20.110 -42.024  0.00  0.00    -0.251 NA
ATOM     28  C   UNL A   1      44.881 -18.976 -41.322  0.00  0.00    +0.073 A 
ATOM     29  C   UNL A   1      44.000 -18.011 -41.793  0.00  0.00    -0.036 A 
ATOM     30  C   UNL A   1      43.815 -16.793 -41.135  0.00  0.00    -0.060 A 
ATOM     31  C   UNL A   1      44.532 -16.524 -39.979  0.00  0.00    -0.061 A 
ATOM     32  C   UNL A   1      45.419 -17.480 -39.488  0.00  0.00    -0.051 A 
ATOM     33  C   UNL A   1      45.600 -18.725 -40.139  0.00  0.00    +0.021 A 
ATOM     34  C   UNL A   1      45.942 -22.297 -42.443  0.00  0.00    -0.010 C 
ATOM     35  C   UNL A   1      47.194 -23.129 -42.204  0.00  0.00    -0.047 C 
ATOM     36  C   UNL A   1      47.378 -23.356 -40.712  0.00  0.00    -0.049 C 
ATOM     37  C   UNL A   1      47.575 -22.026 -39.987  0.00  0.00    -0.024 C 
ENDBRANCH  22  24
ENDBRANCH  21  22
ENDBRANCH  20  21
ENDBRANCH   1  20
TORSDOF 11
ENDMDL
MODEL 18
REMARK VINA RESULT:    -5.913     20.513     23.643
REMARK INTER + INTRA:         -12.778
REMARK INTER:                  -9.641
REMARK INTRA:                  -3.137
REMARK UNBOUND:                -3.235
REMARK  Name = cpd342.pdb
REMARK  12 active torsions:
REMARK  status: ('A' for Active; 'I' for Inactive)
REMARK    1  A    between atoms: C_1  and  C_2
REMARK    2  A    between atoms: C_2  and  C_4
REMARK    3  A    between atoms: C_4  and  C_5
REMARK    4  A    between atoms: C_4  and  C_13
REMARK    5  A    between atoms: C_5  and  C_6
REMARK    6  A    between atoms: C_9  and  O_10
REMARK    7  A    between atoms: N_15  and  C_16
REMARK    8  A    between atoms: C_16  and  C_17
REMARK    9  A    between atoms: C_17  and  C_18
REMARK   10  A    between atoms: C_18  and  C_19
REMARK   11  A    between atoms: C_19  and  N_20
REMARK   12  A    between atoms: N_20  and  C_21
REMARK                            x       y       z     vdW  Elec       q    Type
REMARK                         _______ _______ _______ _____ _____    ______ ____
ROOT
ATOM      1  C   UNL A   1      43.885 -16.110 -34.644  0.00  0.00    -0.036 C 
ENDROOT
BRANCH   1   2
ATOM      2  C   UNL A   1      44.942 -15.814 -35.704  0.00  0.00    +0.012 C 
BRANCH   2   5
ATOM      3  C   UNL A   1      45.349 -16.219 -38.109  0.00  0.00    +0.224 C 
ATOM      4  O   UNL A   1      46.548 -15.969 -38.017  0.00  0.00    -0.275 OA
ATOM      5  N   UNL A   1      44.485 -16.154 -37.036  0.00  0.00    -0.315 N 
ATOM      6  H   UNL A   1      43.530 -16.344 -37.179  0.00  0.00    +0.000 HD
BRANCH   3   7
ATOM      7  C   UNL A   1      44.731 -16.668 -39.419  0.00  0.00    +0.097 C 
BRANCH   7   9
ATOM      8  C   UNL A   1      42.811 -16.020 -41.013  0.00  0.00    -0.005 C 
ATOM      9  C   UNL A   1      43.736 -15.627 -39.890  0.00  0.00    +0.142 C 
ATOM     10  O   UNL A   1      43.636 -14.532 -39.333  0.00  0.00    -0.297 OA
ENDBRANCH   7   9
BRANCH   7  11
ATOM     11  C   UNL A   1      45.765 -16.941 -40.518  0.00  0.00    -0.010 C 
BRANCH  11  12
ATOM     12  C   UNL A   1      45.835 -18.399 -40.909  0.00  0.00    -0.046 A 
ATOM     13  C   UNL A   1      47.073 -19.027 -41.104  0.00  0.00    -0.055 A 
ATOM     14  C   UNL A   1      47.136 -20.379 -41.449  0.00  0.00    -0.020 A 
ATOM     15  C   UNL A   1      45.959 -21.103 -41.599  0.00  0.00    +0.117 A 
ATOM     16  C   UNL A   1      44.723 -20.497 -41.409  0.00  0.00    -0.020 A 
ATOM     17  C   UNL A   1      44.659 -19.147 -41.061  0.00  0.00    -0.055 A 
BRANCH  15  18
ATOM     18  O   UNL A   1      45.974 -22.424 -41.936  0.00  0.00    -0.507 OA
ATOM     19  H   UNL A   1      45.236 -22.805 -42.368  0.00  0.00    +0.000 HD
ENDBRANCH  15  18
ENDBRANCH  11  12
ENDBRANCH   7  11
ENDBRANCH   3   7
ENDBRANCH   2   5
ENDBRANCH   1   2
BRANCH   1  20
ATOM     20  C   UNL A   1      44.524 -16.607 -33.347  0.00  0.00    -0.036 C 
BRANCH  20  21
ATOM     21  C   UNL A   1      43.767 -17.808 -32.781  0.00  0.00    +0.009 C 
BRANCH  21  22
ATOM     22  N   UNL A   1      44.573 -19.019 -32.988  0.00  0.00    -0.343 N 
ATOM     23  H   UNL A   1      45.238 -19.357 -32.346  0.00  0.00    +0.000 HD
BRANCH  22  24
ATOM     24  C   UNL A   1      44.274 -19.645 -34.237  0.00  0.00    +0.041 A 
ATOM     25  C   UNL A   1      43.024 -20.265 -34.446  0.00  0.00    -0.005 A 
ATOM     26  C   UNL A   1      42.775 -20.806 -35.711  0.00  0.00    +0.047 A 
ATOM     27  N   UNL A   1      43.645 -20.713 -36.744  0.00  0.00    -0.251 NA
ATOM     28  C   UNL A   1      44.827 -20.112 -36.548  0.00  0.00    +0.073 A 
ATOM     29  C   UNL A   1      45.712 -20.039 -37.616  0.00  0.00    -0.036 A 
ATOM     30  C   UNL A   1      46.971 -19.447 -37.495  0.00  0.00    -0.060 A 
ATOM     31  C   UNL A   1      47.364 -18.917 -36.276  0.00  0.00    -0.061 A 
ATOM     32  C   UNL A   1      46.490 -18.977 -35.191  0.00  0.00    -0.051 A 
ATOM     33  C   UNL A   1      45.204 -19.560 -35.310  0.00  0.00    +0.021 A 
ATOM     34  C   UNL A   1      41.473 -21.491 -36.040  0.00  0.00    -0.010 C 
ATOM     35  C   UNL A   1      40.717 -21.971 -34.809  0.00  0.00    -0.047 C 
ATOM     36  C   UNL A   1      40.621 -20.841 -33.796  0.00  0.00    -0.049 C 
ATOM     37  C   UNL A   1      42.013 -20.416 -33.333  0.00  0.00    -0.024 C 
ENDBRANCH  22  24
ENDBRANCH  21  22
ENDBRANCH  20  21
ENDBRANCH   1  20
TORSDOF 11
ENDMDL
MODEL 19
REMARK VINA RESULT:    -5.597     21.750     24.693
REMARK INTER + INTRA:         -12.268
REMARK INTER:                  -8.909
REMARK INTRA:                  -3.360
REMARK UNBOUND:                -3.235
REMARK  Name = cpd342.pdb
REMARK  12 active torsions:
REMARK  status: ('A' for Active; 'I' for Inactive)
REMARK    1  A    between atoms: C_1  and  C_2
REMARK    2  A    between atoms: C_2  and  C_4
REMARK    3  A    between atoms: C_4  and  C_5
REMARK    4  A    between atoms: C_4  and  C_13
REMARK    5  A    between atoms: C_5  and  C_6
REMARK    6  A    between atoms: C_9  and  O_10
REMARK    7  A    between atoms: N_15  and  C_16
REMARK    8  A    between atoms: C_16  and  C_17
REMARK    9  A    between atoms: C_17  and  C_18
REMARK   10  A    between atoms: C_18  and  C_19
REMARK   11  A    between atoms: C_19  and  N_20
REMARK   12  A    between atoms: N_20  and  C_21
REMARK                            x       y       z     vdW  Elec       q    Type
REMARK                         _______ _______ _______ _____ _____    ______ ____
ROOT
ATOM      1  C   UNL A   1      43.993 -15.432 -40.666  0.00  0.00    -0.036 C 
ENDROOT
BRANCH   1   2
ATOM      2  C   UNL A   1      43.152 -16.159 -39.621  0.00  0.00    +0.012 C 
BRANCH   2   5
ATOM      3  C   UNL A   1      42.801 -18.600 -39.446  0.00  0.00    +0.224 C 
ATOM      4  O   UNL A   1      41.601 -18.513 -39.690  0.00  0.00    -0.275 OA
ATOM      5  N   UNL A   1      43.634 -17.503 -39.376  0.00  0.00    -0.315 N 
ATOM      6  H   UNL A   1      44.584 -17.637 -39.153  0.00  0.00    +0.000 HD
BRANCH   3   7
ATOM      7  C   UNL A   1      43.474 -19.945 -39.244  0.00  0.00    +0.097 C 
BRANCH   7   9
ATOM      8  C   UNL A   1      41.958 -22.000 -38.902  0.00  0.00    -0.005 C 
ATOM      9  C   UNL A   1      42.635 -20.793 -38.310  0.00  0.00    +0.142 C 
ATOM     10  O   UNL A   1      42.568 -20.548 -37.103  0.00  0.00    -0.297 OA
ENDBRANCH   7   9
BRANCH   7  11
ATOM     11  C   UNL A   1      43.729 -20.701 -40.554  0.00  0.00    -0.010 C 
BRANCH  11  12
ATOM     12  C   UNL A   1      45.193 -20.757 -40.923  0.00  0.00    -0.046 A 
ATOM     13  C   UNL A   1      45.825 -19.650 -41.508  0.00  0.00    -0.055 A 
ATOM     14  C   UNL A   1      47.182 -19.697 -41.833  0.00  0.00    -0.020 A 
ATOM     15  C   UNL A   1      47.908 -20.853 -41.573  0.00  0.00    +0.117 A 
ATOM     16  C   UNL A   1      47.300 -21.960 -40.992  0.00  0.00    -0.020 A 
ATOM     17  C   UNL A   1      45.944 -21.912 -40.664  0.00  0.00    -0.055 A 
BRANCH  15  18
ATOM     18  O   UNL A   1      49.235 -20.943 -41.875  0.00  0.00    -0.507 OA
ATOM     19  H   UNL A   1      49.776 -20.180 -41.840  0.00  0.00    +0.000 HD
ENDBRANCH  15  18
ENDBRANCH  11  12
ENDBRANCH   7  11
ENDBRANCH   3   7
ENDBRANCH   2   5
ENDBRANCH   1   2
BRANCH   1  20
ATOM     20  C   UNL A   1      45.420 -15.979 -40.711  0.00  0.00    -0.036 C 
BRANCH  20  21
ATOM     21  C   UNL A   1      46.418 -14.972 -40.140  0.00  0.00    +0.009 C 
BRANCH  21  22
ATOM     22  N   UNL A   1      47.285 -15.660 -39.172  0.00  0.00    -0.343 N 
ATOM     23  H   UNL A   1      48.240 -15.844 -39.320  0.00  0.00    +0.000 HD
BRANCH  22  24
ATOM     24  C   UNL A   1      46.570 -16.026 -37.990  0.00  0.00    +0.041 A 
ATOM     25  C   UNL A   1      45.880 -15.051 -37.239  0.00  0.00    -0.005 A 
ATOM     26  C   UNL A   1      45.153 -15.486 -36.128  0.00  0.00    +0.047 A 
ATOM     27  N   UNL A   1      45.038 -16.790 -35.779  0.00  0.00    -0.251 NA
ATOM     28  C   UNL A   1      45.683 -17.717 -36.502  0.00  0.00    +0.073 A 
ATOM     29  C   UNL A   1      45.564 -19.047 -36.120  0.00  0.00    -0.036 A 
ATOM     30  C   UNL A   1      46.214 -20.075 -36.805  0.00  0.00    -0.060 A 
ATOM     31  C   UNL A   1      47.013 -19.771 -37.897  0.00  0.00    -0.061 A 
ATOM     32  C   UNL A   1      47.144 -18.443 -38.299  0.00  0.00    -0.051 A 
ATOM     33  C   UNL A   1      46.472 -17.396 -37.621  0.00  0.00    +0.021 A 
ATOM     34  C   UNL A   1      44.382 -14.528 -35.257  0.00  0.00    -0.010 C 
ATOM     35  C   UNL A   1      44.860 -13.088 -35.377  0.00  0.00    -0.047 C 
ATOM     36  C   UNL A   1      44.955 -12.702 -36.845  0.00  0.00    -0.049 C 
ATOM     37  C   UNL A   1      45.979 -13.578 -37.564  0.00  0.00    -0.024 C 
ENDBRANCH  22  24
ENDBRANCH  21  22
ENDBRANCH  20  21
ENDBRANCH   1  20
TORSDOF 11
ENDMDL
MODEL 20
REMARK VINA RESULT:    -5.511     20.609     23.720
REMARK INTER + INTRA:         -12.129
REMARK INTER:                  -8.075
REMARK INTRA:                  -4.054
REMARK UNBOUND:                -3.235
REMARK  Name = cpd342.pdb
REMARK  12 active torsions:
REMARK  status: ('A' for Active; 'I' for Inactive)
REMARK    1  A    between atoms: C_1  and  C_2
REMARK    2  A    between atoms: C_2  and  C_4
REMARK    3  A    between atoms: C_4  and  C_5
REMARK    4  A    between atoms: C_4  and  C_13
REMARK    5  A    between atoms: C_5  and  C_6
REMARK    6  A    between atoms: C_9  and  O_10
REMARK    7  A    between atoms: N_15  and  C_16
REMARK    8  A    between atoms: C_16  and  C_17
REMARK    9  A    between atoms: C_17  and  C_18
REMARK   10  A    between atoms: C_18  and  C_19
REMARK   11  A    between atoms: C_19  and  N_20
REMARK   12  A    between atoms: N_20  and  C_21
REMARK                            x       y       z     vdW  Elec       q    Type
REMARK                         _______ _______ _______ _____ _____    ______ ____
ROOT
ATOM      1  C   UNL A   1      39.934 -17.383 -38.405  0.00  0.00    -0.036 C 
ENDROOT
BRANCH   1   2
ATOM      2  C   UNL A   1      39.776 -17.397 -36.887  0.00  0.00    +0.012 C 
BRANCH   2   5
ATOM      3  C   UNL A   1      41.709 -17.997 -35.469  0.00  0.00    +0.224 C 
ATOM      4  O   UNL A   1      42.010 -16.824 -35.265  0.00  0.00    -0.275 OA
ATOM      5  N   UNL A   1      40.644 -18.372 -36.260  0.00  0.00    -0.315 N 
ATOM      6  H   UNL A   1      40.468 -19.330 -36.403  0.00  0.00    +0.000 HD
BRANCH   3   7
ATOM      7  C   UNL A   1      42.472 -19.136 -34.819  0.00  0.00    +0.097 C 
BRANCH   7   9
ATOM      8  C   UNL A   1      41.053 -19.938 -32.823  0.00  0.00    -0.005 C 
ATOM      9  C   UNL A   1      41.492 -20.141 -34.250  0.00  0.00    +0.142 C 
ATOM     10  O   UNL A   1      41.018 -21.043 -34.943  0.00  0.00    -0.297 OA
ENDBRANCH   7   9
BRANCH   7  11
ATOM     11  C   UNL A   1      43.449 -19.836 -35.772  0.00  0.00    -0.010 C 
BRANCH  11  12
ATOM     12  C   UNL A   1      44.882 -19.403 -35.567  0.00  0.00    -0.046 A 
ATOM     13  C   UNL A   1      45.917 -19.985 -36.312  0.00  0.00    -0.055 A 
ATOM     14  C   UNL A   1      47.239 -19.571 -36.133  0.00  0.00    -0.020 A 
ATOM     15  C   UNL A   1      47.525 -18.575 -35.207  0.00  0.00    +0.117 A 
ATOM     16  C   UNL A   1      46.512 -17.985 -34.461  0.00  0.00    -0.020 A 
ATOM     17  C   UNL A   1      45.190 -18.396 -34.642  0.00  0.00    -0.055 A 
BRANCH  15  18
ATOM     18  O   UNL A   1      48.801 -18.141 -35.000  0.00  0.00    -0.507 OA
ATOM     19  H   UNL A   1      49.497 -18.761 -34.903  0.00  0.00    +0.000 HD
ENDBRANCH  15  18
ENDBRANCH  11  12
ENDBRANCH   7  11
ENDBRANCH   3   7
ENDBRANCH   2   5
ENDBRANCH   1   2
BRANCH   1  20
ATOM     20  C   UNL A   1      41.051 -16.433 -38.838  0.00  0.00    -0.036 C 
BRANCH  20  21
ATOM     21  C   UNL A   1      42.074 -17.146 -39.722  0.00  0.00    +0.009 C 
BRANCH  21  22
ATOM     22  N   UNL A   1      42.721 -18.208 -38.938  0.00  0.00    -0.343 N 
ATOM     23  H   UNL A   1      42.247 -18.792 -38.303  0.00  0.00    +0.000 HD
BRANCH  22  24
ATOM     24  C   UNL A   1      44.121 -18.287 -39.212  0.00  0.00    +0.041 A 
ATOM     25  C   UNL A   1      44.615 -19.213 -40.155  0.00  0.00    -0.005 A 
ATOM     26  C   UNL A   1      45.988 -19.198 -40.417  0.00  0.00    +0.047 A 
ATOM     27  N   UNL A   1      46.842 -18.309 -39.856  0.00  0.00    -0.251 NA
ATOM     28  C   UNL A   1      46.368 -17.421 -38.971  0.00  0.00    +0.073 A 
ATOM     29  C   UNL A   1      47.263 -16.527 -38.395  0.00  0.00    -0.036 A 
ATOM     30  C   UNL A   1      46.860 -15.581 -37.451  0.00  0.00    -0.060 A 
ATOM     31  C   UNL A   1      45.530 -15.526 -37.061  0.00  0.00    -0.061 A 
ATOM     32  C   UNL A   1      44.615 -16.412 -37.629  0.00  0.00    -0.051 A 
ATOM     33  C   UNL A   1      45.012 -17.363 -38.601  0.00  0.00    +0.021 A 
ATOM     34  C   UNL A   1      46.619 -20.144 -41.406  0.00  0.00    -0.010 C 
ATOM     35  C   UNL A   1      45.773 -21.380 -41.681  0.00  0.00    -0.047 C 
ATOM     36  C   UNL A   1      44.346 -20.961 -41.999  0.00  0.00    -0.049 C 
ATOM     37  C   UNL A   1      43.719 -20.241 -40.806  0.00  0.00    -0.024 C 
ENDBRANCH  22  24
ENDBRANCH  21  22
ENDBRANCH  20  21
ENDBRANCH   1  20
TORSDOF 11
ENDMDL
