REMARK  Name = cpd342.pdb
REMARK  12 active torsions:
REMARK  status: ('A' for Active; 'I' for Inactive)
REMARK    1  A    between atoms: C_1  and  C_2
REMARK    2  A    between atoms: C_2  and  C_4
REMARK    3  A    between atoms: C_4  and  C_5
REMARK    4  A    between atoms: C_4  and  C_13
REMARK    5  A    between atoms: C_5  and  C_6
REMARK    6  A    between atoms: C_9  and  O_10
REMARK    7  A    between atoms: N_15  and  C_16
REMARK    8  A    between atoms: C_16  and  C_17
REMARK    9  A    between atoms: C_17  and  C_18
REMARK   10  A    between atoms: C_18  and  C_19
REMARK   11  A    between atoms: C_19  and  N_20
REMARK   12  A    between atoms: N_20  and  C_21
REMARK                            x       y       z     vdW  Elec       q    Type
REMARK                         _______ _______ _______ _____ _____    ______ ____
ROOT
ATOM      1  C   UNL A   1      -4.422  -1.666  -0.922  0.00  0.00    -0.036 C 
ENDROOT
BRANCH   1   2
ATOM      2  C   UNL A   1      -5.746  -1.018  -1.318  0.00  0.00    +0.012 C 
BRANCH   2   5
ATOM      3  C   UNL A   1      -7.320  -1.953   0.343  0.00  0.00    +0.224 C 
ATOM      4  O   UNL A   1      -6.767  -1.390   1.284  0.00  0.00    -0.275 OA
ATOM      5  N   UNL A   1      -6.882  -1.842  -0.960  0.00  0.00    -0.315 N 
ATOM      6  H   UNL A   1      -7.355  -2.337  -1.667  0.00  0.00    +0.000 HD
BRANCH   3   7
ATOM      7  C   UNL A   1      -8.570  -2.789   0.543  0.00  0.00    +0.097 C 
BRANCH   7   9
ATOM      8  C   UNL A   1     -10.546  -1.150   0.770  0.00  0.00    -0.005 C 
ATOM      9  C   UNL A   1      -9.752  -2.091  -0.098  0.00  0.00    +0.142 C 
ATOM     10  O   UNL A   1     -10.011  -2.230  -1.295  0.00  0.00    -0.297 OA
ENDBRANCH   7   9
BRANCH   7  11
ATOM     11  C   UNL A   1      -8.442  -4.216  -0.005  0.00  0.00    -0.010 C 
BRANCH  11  12
ATOM     12  C   UNL A   1      -7.536  -5.087   0.834  0.00  0.00    -0.046 A 
ATOM     13  C   UNL A   1      -6.171  -5.196   0.532  0.00  0.00    -0.055 A 
ATOM     14  C   UNL A   1      -5.331  -5.988   1.318  0.00  0.00    -0.020 A 
ATOM     15  C   UNL A   1      -5.858  -6.672   2.407  0.00  0.00    +0.117 A 
ATOM     16  C   UNL A   1      -7.208  -6.575   2.723  0.00  0.00    -0.020 A 
ATOM     17  C   UNL A   1      -8.047  -5.781   1.939  0.00  0.00    -0.055 A 
BRANCH  15  18
ATOM     18  O   UNL A   1      -5.075  -7.457   3.201  0.00  0.00    -0.507 OA
ATOM     19  H   UNL A   1      -4.161  -7.545   3.017  0.00  0.00    +0.000 HD
ENDBRANCH  15  18
ENDBRANCH  11  12
ENDBRANCH   7  11
ENDBRANCH   3   7
ENDBRANCH   2   5
ENDBRANCH   1   2
BRANCH   1  20
ATOM     20  C   UNL A   1      -3.232  -0.838  -1.406  0.00  0.00    -0.036 C 
BRANCH  20  21
ATOM     21  C   UNL A   1      -1.909  -1.438  -0.930  0.00  0.00    +0.009 C 
BRANCH  21  22
ATOM     22  N   UNL A   1      -0.801  -0.684  -1.534  0.00  0.00    -0.343 N 
ATOM     23  H   UNL A   1      -0.920   0.075  -2.149  0.00  0.00    +0.000 HD
BRANCH  22  24
ATOM     24  C   UNL A   1       0.469  -1.189  -1.118  0.00  0.00    +0.041 A 
ATOM     25  C   UNL A   1       1.139  -0.621  -0.014  0.00  0.00    -0.005 A 
ATOM     26  C   UNL A   1       2.350  -1.201   0.375  0.00  0.00    +0.047 A 
ATOM     27  N   UNL A   1       2.871  -2.302  -0.217  0.00  0.00    -0.251 NA
ATOM     28  C   UNL A   1       2.226  -2.849  -1.257  0.00  0.00    +0.073 A 
ATOM     29  C   UNL A   1       2.784  -3.969  -1.860  0.00  0.00    -0.036 A 
ATOM     30  C   UNL A   1       2.189  -4.592  -2.959  0.00  0.00    -0.060 A 
ATOM     31  C   UNL A   1       1.009  -4.082  -3.479  0.00  0.00    -0.061 A 
ATOM     32  C   UNL A   1       0.431  -2.960  -2.887  0.00  0.00    -0.051 A 
ATOM     33  C   UNL A   1       1.018  -2.333  -1.760  0.00  0.00    +0.021 A 
ATOM     34  C   UNL A   1       3.147  -0.672   1.540  0.00  0.00    -0.010 C 
ATOM     35  C   UNL A   1       2.806   0.768   1.898  0.00  0.00    -0.047 C 
ATOM     36  C   UNL A   1       1.298   0.921   2.017  0.00  0.00    -0.049 C 
ATOM     37  C   UNL A   1       0.621   0.616   0.682  0.00  0.00    -0.024 C 
ENDBRANCH  22  24
ENDBRANCH  21  22
ENDBRANCH  20  21
ENDBRANCH   1  20
TORSDOF 11
