REMARK  Name = cpd110.pdb
REMARK  3 active torsions:
REMARK  status: ('A' for Active; 'I' for Inactive)
REMARK    1  A    between atoms: C_1  and  N_2
REMARK    2  A    between atoms: N_22  and  C_23
REMARK    3  A    between atoms: N_22  and  C_24
REMARK                            x       y       z     vdW  Elec       q    Type
REMARK                         _______ _______ _______ _____ _____    ______ ____
ROOT
ATOM      1  C   UNL A   1       5.676   5.438  -0.230  0.00  0.00    +0.011 C 
ATOM      2  N   UNL A   1       4.402   4.720  -0.125  0.00  0.00    -0.356 N 
ATOM      3  C   UNL A   1       3.189   5.410  -0.174  0.00  0.00    +0.005 A 
ATOM      4  C   UNL A   1       1.988   4.804  -0.151  0.00  0.00    -0.036 A 
ATOM      5  C   UNL A   1       1.949   3.335  -0.080  0.00  0.00    +0.015 A 
ATOM      6  C   UNL A   1       0.787   2.644  -0.045  0.00  0.00    +0.082 A 
ATOM      7  N   UNL A   1      -0.405   3.322  -0.070  0.00  0.00    -0.246 NA
ATOM      8  C   UNL A   1      -1.539   2.698  -0.056  0.00  0.00    +0.073 A 
ATOM      9  C   UNL A   1      -2.775   3.525  -0.089  0.00  0.00    -0.022 A 
ATOM     10  C   UNL A   1      -3.988   2.958  -0.065  0.00  0.00    +0.020 A 
ATOM     11 BR   UNL A   1      -5.544   3.991  -0.103  0.00  0.00    -0.050 Br
ATOM     12  C   UNL A   1      -4.146   1.524  -0.004  0.00  0.00    -0.047 A 
ATOM     13  C   UNL A   1      -3.090   0.698   0.025  0.00  0.00    -0.051 A 
ATOM     14  C   UNL A   1      -1.730   1.210  -0.006  0.00  0.00    +0.012 A 
ATOM     15  C   UNL A   1      -0.580   0.507   0.025  0.00  0.00    +0.039 A 
ATOM     16  C   UNL A   1       0.743   1.167   0.037  0.00  0.00    +0.036 A 
ATOM     17  C   UNL A   1       1.901   0.448   0.100  0.00  0.00    +0.074 A 
ATOM     18  C   UNL A   1       3.246   1.145  -0.039  0.00  0.00    +0.208 A 
ATOM     19  O   UNL A   1       4.291   0.511  -0.142  0.00  0.00    -0.285 OA
ATOM     20  C   UNL A   1       3.217   2.617  -0.066  0.00  0.00    +0.049 A 
ATOM     21  C   UNL A   1       4.365   3.323  -0.097  0.00  0.00    +0.016 A 
ATOM     22  N   UNL A   1       1.916  -1.045   0.200  0.00  0.00    -0.378 NA
ATOM     23  C   UNL A   1       3.031  -1.535   1.139  0.00  0.00    -0.014 C 
ATOM     24  C   UNL A   1       2.143  -1.618  -1.201  0.00  0.00    -0.014 C 
ATOM     25  C   UNL A   1       0.596  -1.560   0.788  0.00  0.00    +0.062 C 
ATOM     26  C   UNL A   1      -0.594  -0.980   0.083  0.00  0.00    +0.180 C 
ATOM     27  O   UNL A   1      -1.445  -1.685  -0.442  0.00  0.00    -0.290 OA
ENDROOT
TORSDOF 0
