MODEL 1
REMARK VINA RESULT:    -9.530      0.000      0.000
REMARK INTER + INTRA:          -9.530
REMARK INTER:                  -9.530
REMARK INTRA:                   0.000
REMARK UNBOUND:                 0.000
REMARK  Name = cpd110.pdb
REMARK  3 active torsions:
REMARK  status: ('A' for Active; 'I' for Inactive)
REMARK    1  A    between atoms: C_1  and  N_2
REMARK    2  A    between atoms: N_22  and  C_23
REMARK    3  A    between atoms: N_22  and  C_24
REMARK                            x       y       z     vdW  Elec       q    Type
REMARK                         _______ _______ _______ _____ _____    ______ ____
ROOT
ATOM      1  C   UNL A   1      30.787 -31.226 -30.653  0.00  0.00    +0.011 C 
ATOM      2  N   UNL A   1      31.895 -32.180 -30.555  0.00  0.00    -0.356 N 
ATOM      3  C   UNL A   1      33.084 -31.966 -31.256  0.00  0.00    +0.005 A 
ATOM      4  C   UNL A   1      34.161 -32.766 -31.156  0.00  0.00    -0.036 A 
ATOM      5  C   UNL A   1      34.086 -33.926 -30.254  0.00  0.00    +0.015 A 
ATOM      6  C   UNL A   1      35.117 -34.787 -30.097  0.00  0.00    +0.082 A 
ATOM      7  N   UNL A   1      36.277 -34.590 -30.803  0.00  0.00    -0.246 NA
ATOM      8  C   UNL A   1      37.293 -35.380 -30.669  0.00  0.00    +0.073 A 
ATOM      9  C   UNL A   1      38.506 -35.078 -31.476  0.00  0.00    -0.022 A 
ATOM     10  C   UNL A   1      39.595 -35.853 -31.405  0.00  0.00    +0.020 A 
ATOM     11 BR   UNL A   1      41.120 -35.481 -32.419  0.00  0.00    -0.050 Br
ATOM     12  C   UNL A   1      39.638 -37.013 -30.546  0.00  0.00    -0.047 A 
ATOM     13  C   UNL A   1      38.595 -37.362 -29.779  0.00  0.00    -0.051 A 
ATOM     14  C   UNL A   1      37.367 -36.583 -29.774  0.00  0.00    +0.012 A 
ATOM     15  C   UNL A   1      36.243 -36.814 -29.067  0.00  0.00    +0.039 A 
ATOM     16  C   UNL A   1      35.043 -35.960 -29.199  0.00  0.00    +0.036 A 
ATOM     17  C   UNL A   1      33.899 -36.220 -28.502  0.00  0.00    +0.074 A 
ATOM     18  C   UNL A   1      32.735 -35.242 -28.544  0.00  0.00    +0.208 A 
ATOM     19  O   UNL A   1      31.761 -35.370 -27.810  0.00  0.00    -0.285 OA
ATOM     20  C   UNL A   1      32.857 -34.126 -29.497  0.00  0.00    +0.049 A 
ATOM     21  C   UNL A   1      31.839 -33.259 -29.669  0.00  0.00    +0.016 A 
ATOM     22  N   UNL A   1      33.763 -37.400 -27.592  0.00  0.00    -0.378 NA
ATOM     23  C   UNL A   1      32.360 -38.023 -27.684  0.00  0.00    -0.014 C 
ATOM     24  C   UNL A   1      34.018 -36.932 -26.157  0.00  0.00    -0.014 C 
ATOM     25  C   UNL A   1      34.755 -38.503 -27.985  0.00  0.00    +0.062 C 
ATOM     26  C   UNL A   1      36.149 -37.973 -28.137  0.00  0.00    +0.180 C 
ATOM     27  O   UNL A   1      37.089 -38.424 -27.497  0.00  0.00    -0.290 OA
ENDROOT
TORSDOF 0
ENDMDL
MODEL 2
REMARK VINA RESULT:    -8.554      2.072      4.884
REMARK INTER + INTRA:          -8.554
REMARK INTER:                  -8.554
REMARK INTRA:                   0.000
REMARK UNBOUND:                 0.000
REMARK  Name = cpd110.pdb
REMARK  3 active torsions:
REMARK  status: ('A' for Active; 'I' for Inactive)
REMARK    1  A    between atoms: C_1  and  N_2
REMARK    2  A    between atoms: N_22  and  C_23
REMARK    3  A    between atoms: N_22  and  C_24
REMARK                            x       y       z     vdW  Elec       q    Type
REMARK                         _______ _______ _______ _____ _____    ______ ____
ROOT
ATOM      1  C   UNL A   1      31.109 -38.275 -23.383  0.00  0.00    +0.011 C 
ATOM      2  N   UNL A   1      32.031 -37.822 -24.428  0.00  0.00    -0.356 N 
ATOM      3  C   UNL A   1      33.302 -38.387 -24.551  0.00  0.00    +0.005 A 
ATOM      4  C   UNL A   1      34.168 -38.063 -25.529  0.00  0.00    -0.036 A 
ATOM      5  C   UNL A   1      33.751 -37.068 -26.529  0.00  0.00    +0.015 A 
ATOM      6  C   UNL A   1      34.559 -36.678 -27.540  0.00  0.00    +0.082 A 
ATOM      7  N   UNL A   1      35.817 -37.215 -27.648  0.00  0.00    -0.246 NA
ATOM      8  C   UNL A   1      36.614 -36.883 -28.612  0.00  0.00    +0.073 A 
ATOM      9  C   UNL A   1      37.956 -37.525 -28.642  0.00  0.00    -0.022 A 
ATOM     10  C   UNL A   1      38.845 -37.227 -29.597  0.00  0.00    +0.020 A 
ATOM     11 BR   UNL A   1      40.532 -38.028 -29.639  0.00  0.00    -0.050 Br
ATOM     12  C   UNL A   1      38.540 -36.270 -30.635  0.00  0.00    -0.047 A 
ATOM     13  C   UNL A   1      37.356 -35.643 -30.692  0.00  0.00    -0.051 A 
ATOM     14  C   UNL A   1      36.317 -35.901 -29.708  0.00  0.00    +0.012 A 
ATOM     15  C   UNL A   1      35.091 -35.346 -29.634  0.00  0.00    +0.039 A 
ATOM     16  C   UNL A   1      34.148 -35.669 -28.542  0.00  0.00    +0.036 A 
ATOM     17  C   UNL A   1      32.921 -35.078 -28.458  0.00  0.00    +0.074 A 
ATOM     18  C   UNL A   1      31.917 -35.539 -27.412  0.00  0.00    +0.208 A 
ATOM     19  O   UNL A   1      30.758 -35.137 -27.412  0.00  0.00    -0.285 OA
ATOM     20  C   UNL A   1      32.410 -36.507 -26.418  0.00  0.00    +0.049 A 
ATOM     21  C   UNL A   1      31.621 -36.905 -25.400  0.00  0.00    +0.016 A 
ATOM     22  N   UNL A   1      32.459 -34.042 -29.433  0.00  0.00    -0.378 NA
ATOM     23  C   UNL A   1      31.653 -32.933 -28.736  0.00  0.00    -0.014 C 
ATOM     24  C   UNL A   1      31.580 -34.726 -30.482  0.00  0.00    -0.014 C 
ATOM     25  C   UNL A   1      33.658 -33.354 -30.098  0.00  0.00    +0.062 C 
ATOM     26  C   UNL A   1      34.642 -34.347 -30.642  0.00  0.00    +0.180 C 
ATOM     27  O   UNL A   1      34.975 -34.354 -31.819  0.00  0.00    -0.290 OA
ENDROOT
TORSDOF 0
ENDMDL
MODEL 3
REMARK VINA RESULT:    -8.239      3.083      6.454
REMARK INTER + INTRA:          -8.239
REMARK INTER:                  -8.239
REMARK INTRA:                   0.000
REMARK UNBOUND:                 0.000
REMARK  Name = cpd110.pdb
REMARK  3 active torsions:
REMARK  status: ('A' for Active; 'I' for Inactive)
REMARK    1  A    between atoms: C_1  and  N_2
REMARK    2  A    between atoms: N_22  and  C_23
REMARK    3  A    between atoms: N_22  and  C_24
REMARK                            x       y       z     vdW  Elec       q    Type
REMARK                         _______ _______ _______ _____ _____    ______ ____
ROOT
ATOM      1  C   UNL A   1      39.596 -35.947 -32.325  0.00  0.00    +0.011 C 
ATOM      2  N   UNL A   1      38.433 -36.006 -31.435  0.00  0.00    -0.356 N 
ATOM      3  C   UNL A   1      38.410 -36.883 -30.349  0.00  0.00    +0.005 A 
ATOM      4  C   UNL A   1      37.403 -36.937 -29.458  0.00  0.00    -0.036 A 
ATOM      5  C   UNL A   1      36.269 -36.015 -29.631  0.00  0.00    +0.015 A 
ATOM      6  C   UNL A   1      35.211 -36.005 -28.788  0.00  0.00    +0.082 A 
ATOM      7  N   UNL A   1      35.177 -36.882 -27.734  0.00  0.00    -0.246 NA
ATOM      8  C   UNL A   1      34.192 -36.893 -26.894  0.00  0.00    +0.073 A 
ATOM      9  C   UNL A   1      34.252 -37.881 -25.784  0.00  0.00    -0.022 A 
ATOM     10  C   UNL A   1      33.268 -37.965 -24.879  0.00  0.00    +0.020 A 
ATOM     11 BR   UNL A   1      33.334 -39.206 -23.484  0.00  0.00    -0.050 Br
ATOM     12  C   UNL A   1      32.110 -37.105 -24.946  0.00  0.00    -0.047 A 
ATOM     13  C   UNL A   1      31.971 -36.182 -25.908  0.00  0.00    -0.051 A 
ATOM     14  C   UNL A   1      32.985 -36.002 -26.934  0.00  0.00    +0.012 A 
ATOM     15  C   UNL A   1      32.979 -35.127 -27.960  0.00  0.00    +0.039 A 
ATOM     16  C   UNL A   1      34.064 -35.087 -28.964  0.00  0.00    +0.036 A 
ATOM     17  C   UNL A   1      34.033 -34.220 -30.017  0.00  0.00    +0.074 A 
ATOM     18  C   UNL A   1      35.231 -34.099 -30.947  0.00  0.00    +0.208 A 
ATOM     19  O   UNL A   1      35.294 -33.223 -31.803  0.00  0.00    -0.285 OA
ATOM     20  C   UNL A   1      36.314 -35.076 -30.744  0.00  0.00    +0.049 A 
ATOM     21  C   UNL A   1      37.374 -35.104 -31.577  0.00  0.00    +0.016 A 
ATOM     22  N   UNL A   1      32.892 -33.281 -30.252  0.00  0.00    -0.378 NA
ATOM     23  C   UNL A   1      32.573 -33.149 -31.751  0.00  0.00    -0.014 C 
ATOM     24  C   UNL A   1      33.274 -31.910 -29.690  0.00  0.00    -0.014 C 
ATOM     25  C   UNL A   1      31.615 -33.804 -29.581  0.00  0.00    +0.062 C 
ATOM     26  C   UNL A   1      31.850 -34.176 -28.147  0.00  0.00    +0.180 C 
ATOM     27  O   UNL A   1      31.204 -33.680 -27.234  0.00  0.00    -0.290 OA
ENDROOT
TORSDOF 0
ENDMDL
MODEL 4
REMARK VINA RESULT:    -8.200      1.960      4.808
REMARK INTER + INTRA:          -8.200
REMARK INTER:                  -8.200
REMARK INTRA:                   0.000
REMARK UNBOUND:                 0.000
REMARK  Name = cpd110.pdb
REMARK  3 active torsions:
REMARK  status: ('A' for Active; 'I' for Inactive)
REMARK    1  A    between atoms: C_1  and  N_2
REMARK    2  A    between atoms: N_22  and  C_23
REMARK    3  A    between atoms: N_22  and  C_24
REMARK                            x       y       z     vdW  Elec       q    Type
REMARK                         _______ _______ _______ _____ _____    ______ ____
ROOT
ATOM      1  C   UNL A   1      32.246 -41.135 -27.132  0.00  0.00    +0.011 C 
ATOM      2  N   UNL A   1      33.079 -40.076 -27.713  0.00  0.00    -0.356 N 
ATOM      3  C   UNL A   1      34.371 -40.353 -28.165  0.00  0.00    +0.005 A 
ATOM      4  C   UNL A   1      35.158 -39.444 -28.767  0.00  0.00    -0.036 A 
ATOM      5  C   UNL A   1      34.628 -38.087 -28.970  0.00  0.00    +0.015 A 
ATOM      6  C   UNL A   1      35.352 -37.108 -29.559  0.00  0.00    +0.082 A 
ATOM      7  N   UNL A   1      36.629 -37.373 -29.982  0.00  0.00    -0.246 NA
ATOM      8  C   UNL A   1      37.350 -36.470 -30.567  0.00  0.00    +0.073 A 
ATOM      9  C   UNL A   1      38.721 -36.858 -30.991  0.00  0.00    -0.022 A 
ATOM     10  C   UNL A   1      39.535 -35.980 -31.591  0.00  0.00    +0.020 A 
ATOM     11 BR   UNL A   1      41.260 -36.461 -32.124  0.00  0.00    -0.050 Br
ATOM     12  C   UNL A   1      39.116 -34.622 -31.848  0.00  0.00    -0.047 A 
ATOM     13  C   UNL A   1      37.897 -34.183 -31.505  0.00  0.00    -0.051 A 
ATOM     14  C   UNL A   1      36.933 -35.057 -30.857  0.00  0.00    +0.012 A 
ATOM     15  C   UNL A   1      35.684 -34.756 -30.450  0.00  0.00    +0.039 A 
ATOM     16  C   UNL A   1      34.826 -35.739 -29.755  0.00  0.00    +0.036 A 
ATOM     17  C   UNL A   1      33.574 -35.415 -29.320  0.00  0.00    +0.074 A 
ATOM     18  C   UNL A   1      32.661 -36.486 -28.742  0.00  0.00    +0.208 A 
ATOM     19  O   UNL A   1      31.483 -36.258 -28.488  0.00  0.00    -0.285 OA
ATOM     20  C   UNL A   1      33.266 -37.812 -28.530  0.00  0.00    +0.049 A 
ATOM     21  C   UNL A   1      32.561 -38.798 -27.940  0.00  0.00    +0.016 A 
ATOM     22  N   UNL A   1      32.998 -34.043 -29.477  0.00  0.00    -0.378 NA
ATOM     23  C   UNL A   1      32.172 -33.635 -28.246  0.00  0.00    -0.014 C 
ATOM     24  C   UNL A   1      32.099 -34.039 -30.716  0.00  0.00    -0.014 C 
ATOM     25  C   UNL A   1      34.115 -33.001 -29.615  0.00  0.00    +0.062 C 
ATOM     26  C   UNL A   1      35.120 -33.394 -30.657  0.00  0.00    +0.180 C 
ATOM     27  O   UNL A   1      35.384 -32.673 -31.609  0.00  0.00    -0.290 OA
ENDROOT
TORSDOF 0
ENDMDL
MODEL 5
REMARK VINA RESULT:    -8.101     16.561     18.643
REMARK INTER + INTRA:          -8.101
REMARK INTER:                  -8.101
REMARK INTRA:                   0.000
REMARK UNBOUND:                 0.000
REMARK  Name = cpd110.pdb
REMARK  3 active torsions:
REMARK  status: ('A' for Active; 'I' for Inactive)
REMARK    1  A    between atoms: C_1  and  N_2
REMARK    2  A    between atoms: N_22  and  C_23
REMARK    3  A    between atoms: N_22  and  C_24
REMARK                            x       y       z     vdW  Elec       q    Type
REMARK                         _______ _______ _______ _____ _____    ______ ____
ROOT
ATOM      1  C   UNL A   1      45.304 -17.117 -31.687  0.00  0.00    +0.011 C 
ATOM      2  N   UNL A   1      44.747 -17.755 -32.884  0.00  0.00    -0.356 N 
ATOM      3  C   UNL A   1      45.380 -17.623 -34.121  0.00  0.00    +0.005 A 
ATOM      4  C   UNL A   1      44.958 -18.238 -35.241  0.00  0.00    -0.036 A 
ATOM      5  C   UNL A   1      43.771 -19.103 -35.157  0.00  0.00    +0.015 A 
ATOM      6  C   UNL A   1      43.273 -19.753 -36.233  0.00  0.00    +0.082 A 
ATOM      7  N   UNL A   1      43.880 -19.606 -37.454  0.00  0.00    -0.246 NA
ATOM      8  C   UNL A   1      43.446 -20.224 -38.505  0.00  0.00    +0.073 A 
ATOM      9  C   UNL A   1      44.177 -20.001 -39.781  0.00  0.00    -0.022 A 
ATOM     10  C   UNL A   1      43.785 -20.593 -40.916  0.00  0.00    +0.020 A 
ATOM     11 BR   UNL A   1      44.697 -20.314 -42.522  0.00  0.00    -0.050 Br
ATOM     12  C   UNL A   1      42.638 -21.469 -40.949  0.00  0.00    -0.047 A 
ATOM     13  C   UNL A   1      41.919 -21.734 -39.848  0.00  0.00    -0.051 A 
ATOM     14  C   UNL A   1      42.265 -21.149 -38.563  0.00  0.00    +0.012 A 
ATOM     15  C   UNL A   1      41.636 -21.316 -37.382  0.00  0.00    +0.039 A 
ATOM     16  C   UNL A   1      42.073 -20.615 -36.155  0.00  0.00    +0.036 A 
ATOM     17  C   UNL A   1      41.411 -20.766 -34.971  0.00  0.00    +0.074 A 
ATOM     18  C   UNL A   1      41.969 -20.152 -33.696  0.00  0.00    +0.208 A 
ATOM     19  O   UNL A   1      41.483 -20.399 -32.598  0.00  0.00    -0.285 OA
ATOM     20  C   UNL A   1      43.135 -19.266 -33.856  0.00  0.00    +0.049 A 
ATOM     21  C   UNL A   1      43.643 -18.607 -32.796  0.00  0.00    +0.016 A 
ATOM     22  N   UNL A   1      40.184 -21.612 -34.838  0.00  0.00    -0.378 NA
ATOM     23  C   UNL A   1      39.156 -20.969 -33.892  0.00  0.00    -0.014 C 
ATOM     24  C   UNL A   1      40.600 -22.977 -34.284  0.00  0.00    -0.014 C 
ATOM     25  C   UNL A   1      39.486 -21.769 -36.195  0.00  0.00    +0.062 C 
ATOM     26  C   UNL A   1      40.442 -22.196 -37.269  0.00  0.00    +0.180 C 
ATOM     27  O   UNL A   1      40.266 -23.212 -37.929  0.00  0.00    -0.290 OA
ENDROOT
TORSDOF 0
ENDMDL
MODEL 6
REMARK VINA RESULT:    -8.011     17.606     20.327
REMARK INTER + INTRA:          -8.011
REMARK INTER:                  -8.011
REMARK INTRA:                   0.000
REMARK UNBOUND:                 0.000
REMARK  Name = cpd110.pdb
REMARK  3 active torsions:
REMARK  status: ('A' for Active; 'I' for Inactive)
REMARK    1  A    between atoms: C_1  and  N_2
REMARK    2  A    between atoms: N_22  and  C_23
REMARK    3  A    between atoms: N_22  and  C_24
REMARK                            x       y       z     vdW  Elec       q    Type
REMARK                         _______ _______ _______ _____ _____    ______ ____
ROOT
ATOM      1  C   UNL A   1      48.963 -18.095 -35.120  0.00  0.00    +0.011 C 
ATOM      2  N   UNL A   1      47.754 -18.762 -35.613  0.00  0.00    -0.356 N 
ATOM      3  C   UNL A   1      46.754 -19.171 -34.728  0.00  0.00    +0.005 A 
ATOM      4  C   UNL A   1      45.594 -19.726 -35.123  0.00  0.00    -0.036 A 
ATOM      5  C   UNL A   1      45.360 -19.903 -36.565  0.00  0.00    +0.015 A 
ATOM      6  C   UNL A   1      44.227 -20.459 -37.050  0.00  0.00    +0.082 A 
ATOM      7  N   UNL A   1      43.254 -20.883 -36.180  0.00  0.00    -0.246 NA
ATOM      8  C   UNL A   1      42.147 -21.403 -36.604  0.00  0.00    +0.073 A 
ATOM      9  C   UNL A   1      41.155 -21.828 -35.580  0.00  0.00    -0.022 A 
ATOM     10  C   UNL A   1      39.991 -22.386 -35.934  0.00  0.00    +0.020 A 
ATOM     11 BR   UNL A   1      38.742 -22.924 -34.653  0.00  0.00    -0.050 Br
ATOM     12  C   UNL A   1      39.652 -22.601 -37.322  0.00  0.00    -0.047 A 
ATOM     13  C   UNL A   1      40.481 -22.247 -38.314  0.00  0.00    -0.051 A 
ATOM     14  C   UNL A   1      41.766 -21.625 -38.039  0.00  0.00    +0.012 A 
ATOM     15  C   UNL A   1      42.699 -21.226 -38.926  0.00  0.00    +0.039 A 
ATOM     16  C   UNL A   1      43.992 -20.649 -38.499  0.00  0.00    +0.036 A 
ATOM     17  C   UNL A   1      44.943 -20.276 -39.403  0.00  0.00    +0.074 A 
ATOM     18  C   UNL A   1      46.198 -19.550 -38.942  0.00  0.00    +0.208 A 
ATOM     19  O   UNL A   1      46.992 -19.068 -39.743  0.00  0.00    -0.285 OA
ATOM     20  C   UNL A   1      46.390 -19.441 -37.487  0.00  0.00    +0.049 A 
ATOM     21  C   UNL A   1      47.515 -18.894 -36.984  0.00  0.00    +0.016 A 
ATOM     22  N   UNL A   1      44.766 -20.459 -40.878  0.00  0.00    -0.378 NA
ATOM     23  C   UNL A   1      46.080 -20.886 -41.554  0.00  0.00    -0.014 C 
ATOM     24  C   UNL A   1      44.296 -19.130 -41.473  0.00  0.00    -0.014 C 
ATOM     25  C   UNL A   1      43.749 -21.571 -41.166  0.00  0.00    +0.062 C 
ATOM     26  C   UNL A   1      42.479 -21.382 -40.390  0.00  0.00    +0.180 C 
ATOM     27  O   UNL A   1      41.389 -21.301 -40.938  0.00  0.00    -0.290 OA
ENDROOT
TORSDOF 0
ENDMDL
MODEL 7
REMARK VINA RESULT:    -7.666     17.992     20.463
REMARK INTER + INTRA:          -7.666
REMARK INTER:                  -7.666
REMARK INTRA:                   0.000
REMARK UNBOUND:                 0.000
REMARK  Name = cpd110.pdb
REMARK  3 active torsions:
REMARK  status: ('A' for Active; 'I' for Inactive)
REMARK    1  A    between atoms: C_1  and  N_2
REMARK    2  A    between atoms: N_22  and  C_23
REMARK    3  A    between atoms: N_22  and  C_24
REMARK                            x       y       z     vdW  Elec       q    Type
REMARK                         _______ _______ _______ _____ _____    ______ ____
ROOT
ATOM      1  C   UNL A   1      45.000 -20.744 -42.547  0.00  0.00    +0.011 C 
ATOM      2  N   UNL A   1      44.611 -20.513 -41.152  0.00  0.00    -0.356 N 
ATOM      3  C   UNL A   1      43.458 -21.099 -40.627  0.00  0.00    +0.005 A 
ATOM      4  C   UNL A   1      43.084 -20.981 -39.340  0.00  0.00    -0.036 A 
ATOM      5  C   UNL A   1      43.939 -20.199 -38.434  0.00  0.00    +0.015 A 
ATOM      6  C   UNL A   1      43.636 -20.021 -37.128  0.00  0.00    +0.082 A 
ATOM      7  N   UNL A   1      42.492 -20.578 -36.617  0.00  0.00    -0.246 NA
ATOM      8  C   UNL A   1      42.175 -20.447 -35.369  0.00  0.00    +0.073 A 
ATOM      9  C   UNL A   1      40.914 -21.092 -34.913  0.00  0.00    -0.022 A 
ATOM     10  C   UNL A   1      40.508 -20.994 -33.640  0.00  0.00    +0.020 A 
ATOM     11 BR   UNL A   1      38.925 -21.799 -33.061  0.00  0.00    -0.050 Br
ATOM     12  C   UNL A   1      41.273 -20.258 -32.662  0.00  0.00    -0.047 A 
ATOM     13  C   UNL A   1      42.424 -19.647 -32.980  0.00  0.00    -0.051 A 
ATOM     14  C   UNL A   1      42.959 -19.699 -34.330  0.00  0.00    +0.012 A 
ATOM     15  C   UNL A   1      44.090 -19.132 -34.795  0.00  0.00    +0.039 A 
ATOM     16  C   UNL A   1      44.489 -19.227 -36.216  0.00  0.00    +0.036 A 
ATOM     17  C   UNL A   1      45.619 -18.623 -36.684  0.00  0.00    +0.074 A 
ATOM     18  C   UNL A   1      46.081 -18.861 -38.113  0.00  0.00    +0.208 A 
ATOM     19  O   UNL A   1      47.170 -18.460 -38.512  0.00  0.00    -0.285 OA
ATOM     20  C   UNL A   1      45.161 -19.619 -38.978  0.00  0.00    +0.049 A 
ATOM     21  C   UNL A   1      45.444 -19.803 -40.283  0.00  0.00    +0.016 A 
ATOM     22  N   UNL A   1      46.509 -17.795 -35.811  0.00  0.00    -0.378 NA
ATOM     23  C   UNL A   1      47.048 -16.565 -36.560  0.00  0.00    -0.014 C 
ATOM     24  C   UNL A   1      47.682 -18.667 -35.356  0.00  0.00    -0.014 C 
ATOM     25  C   UNL A   1      45.732 -17.260 -34.601  0.00  0.00    +0.062 C 
ATOM     26  C   UNL A   1      44.978 -18.348 -33.895  0.00  0.00    +0.180 C 
ATOM     27  O   UNL A   1      45.146 -18.588 -32.707  0.00  0.00    -0.290 OA
ENDROOT
TORSDOF 0
ENDMDL
MODEL 8
REMARK VINA RESULT:    -7.393     17.290     19.725
REMARK INTER + INTRA:          -7.393
REMARK INTER:                  -7.393
REMARK INTRA:                   0.000
REMARK UNBOUND:                 0.000
REMARK  Name = cpd110.pdb
REMARK  3 active torsions:
REMARK  status: ('A' for Active; 'I' for Inactive)
REMARK    1  A    between atoms: C_1  and  N_2
REMARK    2  A    between atoms: N_22  and  C_23
REMARK    3  A    between atoms: N_22  and  C_24
REMARK                            x       y       z     vdW  Elec       q    Type
REMARK                         _______ _______ _______ _____ _____    ______ ____
ROOT
ATOM      1  C   UNL A   1      47.211 -21.740 -41.859  0.00  0.00    +0.011 C 
ATOM      2  N   UNL A   1      46.433 -21.387 -40.667  0.00  0.00    -0.356 N 
ATOM      3  C   UNL A   1      47.038 -20.743 -39.586  0.00  0.00    +0.005 A 
ATOM      4  C   UNL A   1      46.366 -20.333 -38.495  0.00  0.00    -0.036 A 
ATOM      5  C   UNL A   1      44.915 -20.567 -38.440  0.00  0.00    +0.015 A 
ATOM      6  C   UNL A   1      44.163 -20.195 -37.379  0.00  0.00    +0.082 A 
ATOM      7  N   UNL A   1      44.760 -19.583 -36.307  0.00  0.00    -0.246 NA
ATOM      8  C   UNL A   1      44.074 -19.196 -35.280  0.00  0.00    +0.073 A 
ATOM      9  C   UNL A   1      44.815 -18.538 -34.171  0.00  0.00    -0.022 A 
ATOM     10  C   UNL A   1      44.182 -18.119 -33.068  0.00  0.00    +0.020 A 
ATOM     11 BR   UNL A   1      45.107 -17.296 -31.670  0.00  0.00    -0.050 Br
ATOM     12  C   UNL A   1      42.757 -18.290 -32.909  0.00  0.00    -0.047 A 
ATOM     13  C   UNL A   1      42.005 -18.867 -33.858  0.00  0.00    -0.051 A 
ATOM     14  C   UNL A   1      42.592 -19.349 -35.097  0.00  0.00    +0.012 A 
ATOM     15  C   UNL A   1      41.968 -19.952 -36.129  0.00  0.00    +0.039 A 
ATOM     16  C   UNL A   1      42.704 -20.438 -37.315  0.00  0.00    +0.036 A 
ATOM     17  C   UNL A   1      42.069 -21.075 -38.341  0.00  0.00    +0.074 A 
ATOM     18  C   UNL A   1      42.826 -21.431 -39.611  0.00  0.00    +0.208 A 
ATOM     19  O   UNL A   1      42.249 -21.860 -40.605  0.00  0.00    -0.285 OA
ATOM     20  C   UNL A   1      44.281 -21.207 -39.586  0.00  0.00    +0.049 A 
ATOM     21  C   UNL A   1      45.048 -21.575 -40.632  0.00  0.00    +0.016 A 
ATOM     22  N   UNL A   1      40.600 -21.361 -38.323  0.00  0.00    -0.378 NA
ATOM     23  C   UNL A   1      40.287 -22.738 -38.933  0.00  0.00    -0.014 C 
ATOM     24  C   UNL A   1      39.889 -20.273 -39.130  0.00  0.00    -0.014 C 
ATOM     25  C   UNL A   1      40.075 -21.397 -36.882  0.00  0.00    +0.062 C 
ATOM     26  C   UNL A   1      40.499 -20.187 -36.102  0.00  0.00    +0.180 C 
ATOM     27  O   UNL A   1      39.689 -19.446 -35.562  0.00  0.00    -0.290 OA
ENDROOT
TORSDOF 0
ENDMDL
MODEL 9
REMARK VINA RESULT:    -7.361     16.180     18.388
REMARK INTER + INTRA:          -7.361
REMARK INTER:                  -7.361
REMARK INTRA:                   0.000
REMARK UNBOUND:                 0.000
REMARK  Name = cpd110.pdb
REMARK  3 active torsions:
REMARK  status: ('A' for Active; 'I' for Inactive)
REMARK    1  A    between atoms: C_1  and  N_2
REMARK    2  A    between atoms: N_22  and  C_23
REMARK    3  A    between atoms: N_22  and  C_24
REMARK                            x       y       z     vdW  Elec       q    Type
REMARK                         _______ _______ _______ _____ _____    ______ ____
ROOT
ATOM      1  C   UNL A   1      38.028 -21.779 -32.433  0.00  0.00    +0.011 C 
ATOM      2  N   UNL A   1      39.205 -21.451 -33.244  0.00  0.00    -0.356 N 
ATOM      3  C   UNL A   1      40.419 -21.120 -32.638  0.00  0.00    +0.005 A 
ATOM      4  C   UNL A   1      41.550 -20.876 -33.324  0.00  0.00    -0.036 A 
ATOM      5  C   UNL A   1      41.511 -20.972 -34.791  0.00  0.00    +0.015 A 
ATOM      6  C   UNL A   1      42.598 -20.736 -35.560  0.00  0.00    +0.082 A 
ATOM      7  N   UNL A   1      43.784 -20.388 -34.966  0.00  0.00    -0.246 NA
ATOM      8  C   UNL A   1      44.853 -20.171 -35.665  0.00  0.00    +0.073 A 
ATOM      9  C   UNL A   1      46.090 -19.802 -34.926  0.00  0.00    -0.022 A 
ATOM     10  C   UNL A   1      47.234 -19.550 -35.574  0.00  0.00    +0.020 A 
ATOM     11 BR   UNL A   1      48.790 -19.083 -34.652  0.00  0.00    -0.050 Br
ATOM     12  C   UNL A   1      47.314 -19.623 -37.014  0.00  0.00    -0.047 A 
ATOM     13  C   UNL A   1      46.252 -19.951 -37.764  0.00  0.00    -0.051 A 
ATOM     14  C   UNL A   1      44.965 -20.253 -37.159  0.00  0.00    +0.012 A 
ATOM     15  C   UNL A   1      43.816 -20.588 -37.781  0.00  0.00    +0.039 A 
ATOM     16  C   UNL A   1      42.560 -20.822 -37.037  0.00  0.00    +0.036 A 
ATOM     17  C   UNL A   1      41.396 -21.130 -37.678  0.00  0.00    +0.074 A 
ATOM     18  C   UNL A   1      40.158 -21.510 -36.879  0.00  0.00    +0.208 A 
ATOM     19  O   UNL A   1      39.147 -21.940 -37.426  0.00  0.00    -0.285 OA
ATOM     20  C   UNL A   1      40.252 -21.354 -35.418  0.00  0.00    +0.049 A 
ATOM     21  C   UNL A   1      39.178 -21.581 -34.636  0.00  0.00    +0.016 A 
ATOM     22  N   UNL A   1      41.296 -21.214 -39.168  0.00  0.00    -0.378 NA
ATOM     23  C   UNL A   1      39.962 -20.642 -39.676  0.00  0.00    -0.014 C 
ATOM     24  C   UNL A   1      41.405 -22.686 -39.574  0.00  0.00    -0.014 C 
ATOM     25  C   UNL A   1      42.404 -20.387 -39.831  0.00  0.00    +0.062 C 
ATOM     26  C   UNL A   1      43.755 -20.705 -39.264  0.00  0.00    +0.180 C 
ATOM     27  O   UNL A   1      44.682 -21.086 -39.966  0.00  0.00    -0.290 OA
ENDROOT
TORSDOF 0
ENDMDL
MODEL 10
REMARK VINA RESULT:    -7.245      2.277      5.078
REMARK INTER + INTRA:          -7.245
REMARK INTER:                  -7.245
REMARK INTRA:                   0.000
REMARK UNBOUND:                 0.000
REMARK  Name = cpd110.pdb
REMARK  3 active torsions:
REMARK  status: ('A' for Active; 'I' for Inactive)
REMARK    1  A    between atoms: C_1  and  N_2
REMARK    2  A    between atoms: N_22  and  C_23
REMARK    3  A    between atoms: N_22  and  C_24
REMARK                            x       y       z     vdW  Elec       q    Type
REMARK                         _______ _______ _______ _____ _____    ______ ____
ROOT
ATOM      1  C   UNL A   1      28.904 -38.270 -26.171  0.00  0.00    +0.011 C 
ATOM      2  N   UNL A   1      30.014 -37.593 -26.848  0.00  0.00    -0.356 N 
ATOM      3  C   UNL A   1      31.231 -38.248 -27.052  0.00  0.00    +0.005 A 
ATOM      4  C   UNL A   1      32.263 -37.707 -27.725  0.00  0.00    -0.036 A 
ATOM      5  C   UNL A   1      32.099 -36.357 -28.286  0.00  0.00    +0.015 A 
ATOM      6  C   UNL A   1      33.085 -35.734 -28.969  0.00  0.00    +0.082 A 
ATOM      7  N   UNL A   1      34.288 -36.367 -29.150  0.00  0.00    -0.246 NA
ATOM      8  C   UNL A   1      35.252 -35.813 -29.813  0.00  0.00    +0.073 A 
ATOM      9  C   UNL A   1      36.516 -36.584 -29.955  0.00  0.00    -0.022 A 
ATOM     10  C   UNL A   1      37.565 -36.078 -30.616  0.00  0.00    +0.020 A 
ATOM     11 BR   UNL A   1      39.156 -37.040 -30.795  0.00  0.00    -0.050 Br
ATOM     12  C   UNL A   1      37.514 -34.765 -31.214  0.00  0.00    -0.047 A 
ATOM     13  C   UNL A   1      36.416 -33.998 -31.142  0.00  0.00    -0.051 A 
ATOM     14  C   UNL A   1      35.219 -34.457 -30.455  0.00  0.00    +0.012 A 
ATOM     15  C   UNL A   1      34.053 -33.799 -30.295  0.00  0.00    +0.039 A 
ATOM     16  C   UNL A   1      32.928 -34.371 -29.526  0.00  0.00    +0.036 A 
ATOM     17  C   UNL A   1      31.763 -33.685 -29.343  0.00  0.00    +0.074 A 
ATOM     18  C   UNL A   1      30.573 -34.357 -28.676  0.00  0.00    +0.208 A 
ATOM     19  O   UNL A   1      29.470 -33.821 -28.638  0.00  0.00    -0.285 OA
ATOM     20  C   UNL A   1      30.815 -35.691 -28.103  0.00  0.00    +0.049 A 
ATOM     21  C   UNL A   1      29.845 -36.326 -27.414  0.00  0.00    +0.016 A 
ATOM     22  N   UNL A   1      31.555 -32.300 -29.869  0.00  0.00    -0.378 NA
ATOM     23  C   UNL A   1      30.759 -31.435 -28.878  0.00  0.00    -0.014 C 
ATOM     24  C   UNL A   1      30.786 -32.398 -31.189  0.00  0.00    -0.014 C 
ATOM     25  C   UNL A   1      32.901 -31.594 -30.078  0.00  0.00    +0.062 C 
ATOM     26  C   UNL A   1      33.859 -32.438 -30.865  0.00  0.00    +0.180 C 
ATOM     27  O   UNL A   1      34.366 -32.044 -31.907  0.00  0.00    -0.290 OA
ENDROOT
TORSDOF 0
ENDMDL
MODEL 11
REMARK VINA RESULT:    -7.199     16.140     18.477
REMARK INTER + INTRA:          -7.199
REMARK INTER:                  -7.199
REMARK INTRA:                   0.000
REMARK UNBOUND:                 0.000
REMARK  Name = cpd110.pdb
REMARK  3 active torsions:
REMARK  status: ('A' for Active; 'I' for Inactive)
REMARK    1  A    between atoms: C_1  and  N_2
REMARK    2  A    between atoms: N_22  and  C_23
REMARK    3  A    between atoms: N_22  and  C_24
REMARK                            x       y       z     vdW  Elec       q    Type
REMARK                         _______ _______ _______ _____ _____    ______ ____
ROOT
ATOM      1  C   UNL A   1      37.855 -24.780 -33.908  0.00  0.00    +0.011 C 
ATOM      2  N   UNL A   1      38.759 -23.655 -34.168  0.00  0.00    -0.356 N 
ATOM      3  C   UNL A   1      39.312 -22.927 -33.112  0.00  0.00    +0.005 A 
ATOM      4  C   UNL A   1      40.198 -21.929 -33.282  0.00  0.00    -0.036 A 
ATOM      5  C   UNL A   1      40.615 -21.592 -34.652  0.00  0.00    +0.015 A 
ATOM      6  C   UNL A   1      41.495 -20.600 -34.916  0.00  0.00    +0.082 A 
ATOM      7  N   UNL A   1      42.021 -19.868 -33.882  0.00  0.00    -0.246 NA
ATOM      8  C   UNL A   1      42.880 -18.922 -34.090  0.00  0.00    +0.073 A 
ATOM      9  C   UNL A   1      43.393 -18.191 -32.901  0.00  0.00    -0.022 A 
ATOM     10  C   UNL A   1      44.274 -17.190 -33.031  0.00  0.00    +0.020 A 
ATOM     11 BR   UNL A   1      44.920 -16.266 -31.541  0.00  0.00    -0.050 Br
ATOM     12  C   UNL A   1      44.759 -16.780 -34.327  0.00  0.00    -0.047 A 
ATOM     13  C   UNL A   1      44.356 -17.383 -35.455  0.00  0.00    -0.051 A 
ATOM     14  C   UNL A   1      43.409 -18.485 -35.425  0.00  0.00    +0.012 A 
ATOM     15  C   UNL A   1      42.911 -19.177 -36.469  0.00  0.00    +0.039 A 
ATOM     16  C   UNL A   1      41.910 -20.250 -36.294  0.00  0.00    +0.036 A 
ATOM     17  C   UNL A   1      41.388 -20.924 -37.359  0.00  0.00    +0.074 A 
ATOM     18  C   UNL A   1      40.474 -22.120 -37.139  0.00  0.00    +0.208 A 
ATOM     19  O   UNL A   1      40.117 -22.837 -38.068  0.00  0.00    -0.285 OA
ATOM     20  C   UNL A   1      40.064 -22.379 -35.748  0.00  0.00    +0.049 A 
ATOM     21  C   UNL A   1      39.185 -23.361 -35.466  0.00  0.00    +0.016 A 
ATOM     22  N   UNL A   1      41.759 -20.604 -38.773  0.00  0.00    -0.378 NA
ATOM     23  C   UNL A   1      40.544 -20.707 -39.711  0.00  0.00    -0.014 C 
ATOM     24  C   UNL A   1      42.835 -21.594 -39.224  0.00  0.00    -0.014 C 
ATOM     25  C   UNL A   1      42.270 -19.161 -38.883  0.00  0.00    +0.062 C 
ATOM     26  C   UNL A   1      43.329 -18.864 -37.863  0.00  0.00    +0.180 C 
ATOM     27  O   UNL A   1      44.441 -18.466 -38.179  0.00  0.00    -0.290 OA
ENDROOT
TORSDOF 0
ENDMDL
MODEL 12
REMARK VINA RESULT:    -7.184      3.025      6.028
REMARK INTER + INTRA:          -7.184
REMARK INTER:                  -7.184
REMARK INTRA:                   0.000
REMARK UNBOUND:                 0.000
REMARK  Name = cpd110.pdb
REMARK  3 active torsions:
REMARK  status: ('A' for Active; 'I' for Inactive)
REMARK    1  A    between atoms: C_1  and  N_2
REMARK    2  A    between atoms: N_22  and  C_23
REMARK    3  A    between atoms: N_22  and  C_24
REMARK                            x       y       z     vdW  Elec       q    Type
REMARK                         _______ _______ _______ _____ _____    ______ ____
ROOT
ATOM      1  C   UNL A   1      31.845 -38.908 -23.316  0.00  0.00    +0.011 C 
ATOM      2  N   UNL A   1      32.153 -38.099 -24.500  0.00  0.00    -0.356 N 
ATOM      3  C   UNL A   1      31.449 -36.922 -24.762  0.00  0.00    +0.005 A 
ATOM      4  C   UNL A   1      31.728 -36.102 -25.791  0.00  0.00    -0.036 A 
ATOM      5  C   UNL A   1      32.841 -36.459 -26.684  0.00  0.00    +0.015 A 
ATOM      6  C   UNL A   1      33.187 -35.697 -27.747  0.00  0.00    +0.082 A 
ATOM      7  N   UNL A   1      32.481 -34.553 -28.019  0.00  0.00    -0.246 NA
ATOM      8  C   UNL A   1      32.790 -33.788 -29.016  0.00  0.00    +0.073 A 
ATOM      9  C   UNL A   1      31.964 -32.568 -29.223  0.00  0.00    -0.022 A 
ATOM     10  C   UNL A   1      32.210 -31.730 -30.238  0.00  0.00    +0.020 A 
ATOM     11 BR   UNL A   1      31.174 -30.198 -30.506  0.00  0.00    -0.050 Br
ATOM     12  C   UNL A   1      33.283 -31.976 -31.172  0.00  0.00    -0.047 A 
ATOM     13  C   UNL A   1      34.083 -33.046 -31.063  0.00  0.00    -0.051 A 
ATOM     14  C   UNL A   1      33.907 -34.014 -29.992  0.00  0.00    +0.012 A 
ATOM     15  C   UNL A   1      34.623 -35.133 -29.762  0.00  0.00    +0.039 A 
ATOM     16  C   UNL A   1      34.299 -36.057 -28.655  0.00  0.00    +0.036 A 
ATOM     17  C   UNL A   1      35.010 -37.203 -28.448  0.00  0.00    +0.074 A 
ATOM     18  C   UNL A   1      34.750 -38.057 -27.216  0.00  0.00    +0.208 A 
ATOM     19  O   UNL A   1      35.474 -39.003 -26.925  0.00  0.00    -0.285 OA
ATOM     20  C   UNL A   1      33.597 -37.668 -26.386  0.00  0.00    +0.049 A 
ATOM     21  C   UNL A   1      33.236 -38.417 -25.325  0.00  0.00    +0.016 A 
ATOM     22  N   UNL A   1      36.134 -37.625 -29.342  0.00  0.00    -0.378 NA
ATOM     23  C   UNL A   1      36.138 -39.147 -29.562  0.00  0.00    -0.014 C 
ATOM     24  C   UNL A   1      37.452 -37.202 -28.689  0.00  0.00    -0.014 C 
ATOM     25  C   UNL A   1      35.988 -36.987 -30.730  0.00  0.00    +0.062 C 
ATOM     26  C   UNL A   1      35.762 -35.506 -30.643  0.00  0.00    +0.180 C 
ATOM     27  O   UNL A   1      36.499 -34.704 -31.200  0.00  0.00    -0.290 OA
ENDROOT
TORSDOF 0
ENDMDL
MODEL 13
REMARK VINA RESULT:    -7.119     16.513     18.556
REMARK INTER + INTRA:          -7.119
REMARK INTER:                  -7.119
REMARK INTRA:                   0.000
REMARK UNBOUND:                 0.000
REMARK  Name = cpd110.pdb
REMARK  3 active torsions:
REMARK  status: ('A' for Active; 'I' for Inactive)
REMARK    1  A    between atoms: C_1  and  N_2
REMARK    2  A    between atoms: N_22  and  C_23
REMARK    3  A    between atoms: N_22  and  C_24
REMARK                            x       y       z     vdW  Elec       q    Type
REMARK                         _______ _______ _______ _____ _____    ______ ____
ROOT
ATOM      1  C   UNL A   1      44.273 -14.944 -32.121  0.00  0.00    +0.011 C 
ATOM      2  N   UNL A   1      43.829 -15.986 -33.051  0.00  0.00    -0.356 N 
ATOM      3  C   UNL A   1      44.439 -16.136 -34.298  0.00  0.00    +0.005 A 
ATOM      4  C   UNL A   1      44.124 -17.114 -35.167  0.00  0.00    -0.036 A 
ATOM      5  C   UNL A   1      43.086 -18.083 -34.781  0.00  0.00    +0.015 A 
ATOM      6  C   UNL A   1      42.701 -19.092 -35.595  0.00  0.00    +0.082 A 
ATOM      7  N   UNL A   1      43.285 -19.226 -36.829  0.00  0.00    -0.246 NA
ATOM      8  C   UNL A   1      42.957 -20.188 -37.631  0.00  0.00    +0.073 A 
ATOM      9  C   UNL A   1      43.651 -20.248 -38.945  0.00  0.00    -0.022 A 
ATOM     10  C   UNL A   1      43.362 -21.204 -39.837  0.00  0.00    +0.020 A 
ATOM     11 BR   UNL A   1      44.227 -21.283 -41.491  0.00  0.00    -0.050 Br
ATOM     12  C   UNL A   1      42.366 -22.213 -39.561  0.00  0.00    -0.047 A 
ATOM     13  C   UNL A   1      41.693 -22.242 -38.402  0.00  0.00    -0.051 A 
ATOM     14  C   UNL A   1      41.936 -21.255 -37.363  0.00  0.00    +0.012 A 
ATOM     15  C   UNL A   1      41.336 -21.155 -36.160  0.00  0.00    +0.039 A 
ATOM     16  C   UNL A   1      41.651 -20.062 -35.214  0.00  0.00    +0.036 A 
ATOM     17  C   UNL A   1      41.015 -19.951 -34.012  0.00  0.00    +0.074 A 
ATOM     18  C   UNL A   1      41.464 -18.907 -33.001  0.00  0.00    +0.208 A 
ATOM     19  O   UNL A   1      41.018 -18.885 -31.858  0.00  0.00    -0.285 OA
ATOM     20  C   UNL A   1      42.478 -17.944 -33.464  0.00  0.00    +0.049 A 
ATOM     21  C   UNL A   1      42.871 -16.930 -32.668  0.00  0.00    +0.016 A 
ATOM     22  N   UNL A   1      39.936 -20.894 -33.583  0.00  0.00    -0.378 NA
ATOM     23  C   UNL A   1      38.815 -20.160 -32.827  0.00  0.00    -0.014 C 
ATOM     24  C   UNL A   1      40.558 -21.951 -32.668  0.00  0.00    -0.014 C 
ATOM     25  C   UNL A   1      39.278 -21.552 -34.802  0.00  0.00    +0.062 C 
ATOM     26  C   UNL A   1      40.294 -22.131 -35.741  0.00  0.00    +0.180 C 
ATOM     27  O   UNL A   1      40.282 -23.311 -36.063  0.00  0.00    -0.290 OA
ENDROOT
TORSDOF 0
ENDMDL
MODEL 14
REMARK VINA RESULT:    -7.041     17.555     19.715
REMARK INTER + INTRA:          -7.041
REMARK INTER:                  -7.041
REMARK INTRA:                   0.000
REMARK UNBOUND:                 0.000
REMARK  Name = cpd110.pdb
REMARK  3 active torsions:
REMARK  status: ('A' for Active; 'I' for Inactive)
REMARK    1  A    between atoms: C_1  and  N_2
REMARK    2  A    between atoms: N_22  and  C_23
REMARK    3  A    between atoms: N_22  and  C_24
REMARK                            x       y       z     vdW  Elec       q    Type
REMARK                         _______ _______ _______ _____ _____    ______ ____
ROOT
ATOM      1  C   UNL A   1      39.037 -22.133 -33.301  0.00  0.00    +0.011 C 
ATOM      2  N   UNL A   1      40.142 -21.758 -34.189  0.00  0.00    -0.356 N 
ATOM      3  C   UNL A   1      40.291 -22.365 -35.437  0.00  0.00    +0.005 A 
ATOM      4  C   UNL A   1      41.242 -22.017 -36.323  0.00  0.00    -0.036 A 
ATOM      5  C   UNL A   1      42.169 -20.933 -35.963  0.00  0.00    +0.015 A 
ATOM      6  C   UNL A   1      43.159 -20.525 -36.789  0.00  0.00    +0.082 A 
ATOM      7  N   UNL A   1      43.321 -21.136 -38.006  0.00  0.00    -0.246 NA
ATOM      8  C   UNL A   1      44.244 -20.763 -38.833  0.00  0.00    +0.073 A 
ATOM      9  C   UNL A   1      44.335 -21.488 -40.129  0.00  0.00    -0.022 A 
ATOM     10  C   UNL A   1      45.269 -21.173 -41.035  0.00  0.00    +0.020 A 
ATOM     11 BR   UNL A   1      45.390 -22.081 -42.663  0.00  0.00    -0.050 Br
ATOM     12  C   UNL A   1      46.227 -20.120 -40.791  0.00  0.00    -0.047 A 
ATOM     13  C   UNL A   1      46.220 -19.409 -39.654  0.00  0.00    -0.051 A 
ATOM     14  C   UNL A   1      45.242 -19.665 -38.609  0.00  0.00    +0.012 A 
ATOM     15  C   UNL A   1      45.120 -19.042 -37.420  0.00  0.00    +0.039 A 
ATOM     16  C   UNL A   1      44.101 -19.442 -36.426  0.00  0.00    +0.036 A 
ATOM     17  C   UNL A   1      44.004 -18.827 -35.212  0.00  0.00    +0.074 A 
ATOM     18  C   UNL A   1      42.855 -19.158 -34.272  0.00  0.00    +0.208 A 
ATOM     19  O   UNL A   1      42.655 -18.513 -33.248  0.00  0.00    -0.285 OA
ATOM     20  C   UNL A   1      41.987 -20.278 -34.674  0.00  0.00    +0.049 A 
ATOM     21  C   UNL A   1      40.998 -20.702 -33.862  0.00  0.00    +0.016 A 
ATOM     22  N   UNL A   1      44.938 -17.738 -34.786  0.00  0.00    -0.378 NA
ATOM     23  C   UNL A   1      45.297 -17.855 -33.295  0.00  0.00    -0.014 C 
ATOM     24  C   UNL A   1      44.255 -16.392 -35.040  0.00  0.00    -0.014 C 
ATOM     25  C   UNL A   1      46.260 -17.828 -35.559  0.00  0.00    +0.062 C 
ATOM     26  C   UNL A   1      46.037 -17.934 -37.038  0.00  0.00    +0.180 C 
ATOM     27  O   UNL A   1      46.521 -17.134 -37.827  0.00  0.00    -0.290 OA
ENDROOT
TORSDOF 0
ENDMDL
MODEL 15
REMARK VINA RESULT:    -6.854     18.693     21.603
REMARK INTER + INTRA:          -6.854
REMARK INTER:                  -6.854
REMARK INTRA:                   0.000
REMARK UNBOUND:                 0.000
REMARK  Name = cpd110.pdb
REMARK  3 active torsions:
REMARK  status: ('A' for Active; 'I' for Inactive)
REMARK    1  A    between atoms: C_1  and  N_2
REMARK    2  A    between atoms: N_22  and  C_23
REMARK    3  A    between atoms: N_22  and  C_24
REMARK                            x       y       z     vdW  Elec       q    Type
REMARK                         _______ _______ _______ _____ _____    ______ ____
ROOT
ATOM      1  C   UNL A   1      48.540 -21.318 -41.806  0.00  0.00    +0.011 C 
ATOM      2  N   UNL A   1      47.228 -21.031 -41.218  0.00  0.00    -0.356 N 
ATOM      3  C   UNL A   1      46.529 -22.017 -40.519  0.00  0.00    +0.005 A 
ATOM      4  C   UNL A   1      45.355 -21.798 -39.899  0.00  0.00    -0.036 A 
ATOM      5  C   UNL A   1      44.780 -20.445 -39.952  0.00  0.00    +0.015 A 
ATOM      6  C   UNL A   1      43.601 -20.138 -39.365  0.00  0.00    +0.082 A 
ATOM      7  N   UNL A   1      42.903 -21.112 -38.698  0.00  0.00    -0.246 NA
ATOM      8  C   UNL A   1      41.780 -20.855 -38.107  0.00  0.00    +0.073 A 
ATOM      9  C   UNL A   1      41.103 -21.980 -37.408  0.00  0.00    -0.022 A 
ATOM     10  C   UNL A   1      39.932 -21.801 -36.782  0.00  0.00    +0.020 A 
ATOM     11 BR   UNL A   1      39.074 -23.210 -35.905  0.00  0.00    -0.050 Br
ATOM     12  C   UNL A   1      39.279 -20.513 -36.763  0.00  0.00    -0.047 A 
ATOM     13  C   UNL A   1      39.816 -19.440 -37.362  0.00  0.00    -0.051 A 
ATOM     14  C   UNL A   1      41.088 -19.524 -38.061  0.00  0.00    +0.012 A 
ATOM     15  C   UNL A   1      41.742 -18.540 -38.711  0.00  0.00    +0.039 A 
ATOM     16  C   UNL A   1      43.014 -18.781 -39.425  0.00  0.00    +0.036 A 
ATOM     17  C   UNL A   1      43.652 -17.786 -40.106  0.00  0.00    +0.074 A 
ATOM     18  C   UNL A   1      45.030 -18.026 -40.704  0.00  0.00    +0.208 A 
ATOM     19  O   UNL A   1      45.691 -17.111 -41.184  0.00  0.00    -0.285 OA
ATOM     20  C   UNL A   1      45.530 -19.410 -40.652  0.00  0.00    +0.049 A 
ATOM     21  C   UNL A   1      46.701 -19.736 -41.235  0.00  0.00    +0.016 A 
ATOM     22  N   UNL A   1      43.096 -16.400 -40.213  0.00  0.00    -0.378 NA
ATOM     23  C   UNL A   1      43.341 -15.802 -41.608  0.00  0.00    -0.014 C 
ATOM     24  C   UNL A   1      43.780 -15.526 -39.158  0.00  0.00    -0.014 C 
ATOM     25  C   UNL A   1      41.577 -16.410 -40.005  0.00  0.00    +0.062 C 
ATOM     26  C   UNL A   1      41.186 -17.160 -38.766  0.00  0.00    +0.180 C 
ATOM     27  O   UNL A   1      40.530 -16.642 -37.873  0.00  0.00    -0.290 OA
ENDROOT
TORSDOF 0
ENDMDL
MODEL 16
REMARK VINA RESULT:    -6.813     21.009     23.321
REMARK INTER + INTRA:          -6.813
REMARK INTER:                  -6.813
REMARK INTRA:                   0.000
REMARK UNBOUND:                 0.000
REMARK  Name = cpd110.pdb
REMARK  3 active torsions:
REMARK  status: ('A' for Active; 'I' for Inactive)
REMARK    1  A    between atoms: C_1  and  N_2
REMARK    2  A    between atoms: N_22  and  C_23
REMARK    3  A    between atoms: N_22  and  C_24
REMARK                            x       y       z     vdW  Elec       q    Type
REMARK                         _______ _______ _______ _____ _____    ______ ____
ROOT
ATOM      1  C   UNL A   1      46.275 -22.744 -42.201  0.00  0.00    +0.011 C 
ATOM      2  N   UNL A   1      46.450 -21.515 -41.422  0.00  0.00    -0.356 N 
ATOM      3  C   UNL A   1      47.158 -20.433 -41.949  0.00  0.00    +0.005 A 
ATOM      4  C   UNL A   1      47.297 -19.255 -41.313  0.00  0.00    -0.036 A 
ATOM      5  C   UNL A   1      46.661 -19.094 -39.996  0.00  0.00    +0.015 A 
ATOM      6  C   UNL A   1      46.755 -17.948 -39.284  0.00  0.00    +0.082 A 
ATOM      7  N   UNL A   1      47.469 -16.892 -39.791  0.00  0.00    -0.246 NA
ATOM      8  C   UNL A   1      47.569 -15.773 -39.149  0.00  0.00    +0.073 A 
ATOM      9  C   UNL A   1      48.363 -14.688 -39.786  0.00  0.00    -0.022 A 
ATOM     10  C   UNL A   1      48.525 -13.503 -39.183  0.00  0.00    +0.020 A 
ATOM     11 BR   UNL A   1      49.525 -12.139 -39.975  0.00  0.00    -0.050 Br
ATOM     12  C   UNL A   1      47.939 -13.231 -37.892  0.00  0.00    -0.047 A 
ATOM     13  C   UNL A   1      47.203 -14.146 -37.243  0.00  0.00    -0.051 A 
ATOM     14  C   UNL A   1      46.958 -15.460 -37.814  0.00  0.00    +0.012 A 
ATOM     15  C   UNL A   1      46.251 -16.476 -37.279  0.00  0.00    +0.039 A 
ATOM     16  C   UNL A   1      46.125 -17.785 -37.955  0.00  0.00    +0.036 A 
ATOM     17  C   UNL A   1      45.433 -18.817 -37.391  0.00  0.00    +0.074 A 
ATOM     18  C   UNL A   1      45.196 -20.100 -38.174  0.00  0.00    +0.208 A 
ATOM     19  O   UNL A   1      44.450 -20.979 -37.756  0.00  0.00    -0.285 OA
ATOM     20  C   UNL A   1      45.892 -20.213 -39.467  0.00  0.00    +0.049 A 
ATOM     21  C   UNL A   1      45.813 -21.348 -40.189  0.00  0.00    +0.016 A 
ATOM     22  N   UNL A   1      44.791 -18.714 -36.044  0.00  0.00    -0.378 NA
ATOM     23  C   UNL A   1      44.930 -20.025 -35.252  0.00  0.00    -0.014 C 
ATOM     24  C   UNL A   1      43.307 -18.396 -36.243  0.00  0.00    -0.014 C 
ATOM     25  C   UNL A   1      45.469 -17.625 -35.204  0.00  0.00    +0.062 C 
ATOM     26  C   UNL A   1      45.587 -16.332 -35.955  0.00  0.00    +0.180 C 
ATOM     27  O   UNL A   1      45.116 -15.287 -35.527  0.00  0.00    -0.290 OA
ENDROOT
TORSDOF 0
ENDMDL
MODEL 17
REMARK VINA RESULT:    -6.609     19.141     21.698
REMARK INTER + INTRA:          -6.609
REMARK INTER:                  -6.609
REMARK INTRA:                   0.000
REMARK UNBOUND:                 0.000
REMARK  Name = cpd110.pdb
REMARK  3 active torsions:
REMARK  status: ('A' for Active; 'I' for Inactive)
REMARK    1  A    between atoms: C_1  and  N_2
REMARK    2  A    between atoms: N_22  and  C_23
REMARK    3  A    between atoms: N_22  and  C_24
REMARK                            x       y       z     vdW  Elec       q    Type
REMARK                         _______ _______ _______ _____ _____    ______ ____
ROOT
ATOM      1  C   UNL A   1      48.061 -14.856 -37.784  0.00  0.00    +0.011 C 
ATOM      2  N   UNL A   1      47.021 -15.878 -37.936  0.00  0.00    -0.356 N 
ATOM      3  C   UNL A   1      45.943 -15.936 -37.051  0.00  0.00    +0.005 A 
ATOM      4  C   UNL A   1      44.924 -16.805 -37.177  0.00  0.00    -0.036 A 
ATOM      5  C   UNL A   1      44.940 -17.739 -38.313  0.00  0.00    +0.015 A 
ATOM      6  C   UNL A   1      43.961 -18.651 -38.513  0.00  0.00    +0.082 A 
ATOM      7  N   UNL A   1      42.913 -18.724 -37.631  0.00  0.00    -0.246 NA
ATOM      8  C   UNL A   1      41.948 -19.570 -37.796  0.00  0.00    +0.073 A 
ATOM      9  C   UNL A   1      40.856 -19.567 -36.785  0.00  0.00    -0.022 A 
ATOM     10  C   UNL A   1      39.827 -20.419 -36.875  0.00  0.00    +0.020 A 
ATOM     11 BR   UNL A   1      38.455 -20.423 -35.608  0.00  0.00    -0.050 Br
ATOM     12  C   UNL A   1      39.735 -21.374 -37.954  0.00  0.00    -0.047 A 
ATOM     13  C   UNL A   1      40.669 -21.448 -38.913  0.00  0.00    -0.051 A 
ATOM     14  C   UNL A   1      41.822 -20.563 -38.914  0.00  0.00    +0.012 A 
ATOM     15  C   UNL A   1      42.837 -20.527 -39.801  0.00  0.00    +0.039 A 
ATOM     16  C   UNL A   1      43.979 -19.600 -39.649  0.00  0.00    +0.036 A 
ATOM     17  C   UNL A   1      45.017 -19.591 -40.534  0.00  0.00    +0.074 A 
ATOM     18  C   UNL A   1      46.101 -18.529 -40.437  0.00  0.00    +0.208 A 
ATOM     19  O   UNL A   1      46.957 -18.402 -41.306  0.00  0.00    -0.285 OA
ATOM     20  C   UNL A   1      46.048 -17.651 -39.255  0.00  0.00    +0.049 A 
ATOM     21  C   UNL A   1      47.017 -16.739 -39.037  0.00  0.00    +0.016 A 
ATOM     22  N   UNL A   1      45.095 -20.538 -41.691  0.00  0.00    -0.378 NA
ATOM     23  C   UNL A   1      46.536 -21.019 -41.929  0.00  0.00    -0.014 C 
ATOM     24  C   UNL A   1      44.588 -19.812 -42.940  0.00  0.00    -0.014 C 
ATOM     25  C   UNL A   1      44.257 -21.794 -41.418  0.00  0.00    +0.062 C 
ATOM     26  C   UNL A   1      42.869 -21.452 -40.966  0.00  0.00    +0.180 C 
ATOM     27  O   UNL A   1      41.876 -21.856 -41.555  0.00  0.00    -0.290 OA
ENDROOT
TORSDOF 0
ENDMDL
MODEL 18
REMARK VINA RESULT:    -6.600     17.895     19.509
REMARK INTER + INTRA:          -6.600
REMARK INTER:                  -6.600
REMARK INTRA:                   0.000
REMARK UNBOUND:                 0.000
REMARK  Name = cpd110.pdb
REMARK  3 active torsions:
REMARK  status: ('A' for Active; 'I' for Inactive)
REMARK    1  A    between atoms: C_1  and  N_2
REMARK    2  A    between atoms: N_22  and  C_23
REMARK    3  A    between atoms: N_22  and  C_24
REMARK                            x       y       z     vdW  Elec       q    Type
REMARK                         _______ _______ _______ _____ _____    ______ ____
ROOT
ATOM      1  C   UNL A   1      42.636 -21.872 -41.765  0.00  0.00    +0.011 C 
ATOM      2  N   UNL A   1      42.385 -21.309 -40.434  0.00  0.00    -0.356 N 
ATOM      3  C   UNL A   1      41.085 -21.211 -39.936  0.00  0.00    +0.005 A 
ATOM      4  C   UNL A   1      40.795 -20.768 -38.699  0.00  0.00    -0.036 A 
ATOM      5  C   UNL A   1      41.907 -20.374 -37.820  0.00  0.00    +0.015 A 
ATOM      6  C   UNL A   1      41.708 -19.911 -36.565  0.00  0.00    +0.082 A 
ATOM      7  N   UNL A   1      40.429 -19.792 -36.083  0.00  0.00    -0.246 NA
ATOM      8  C   UNL A   1      40.196 -19.370 -34.882  0.00  0.00    +0.073 A 
ATOM      9  C   UNL A   1      38.774 -19.280 -34.452  0.00  0.00    -0.022 A 
ATOM     10  C   UNL A   1      38.447 -18.842 -33.230  0.00  0.00    +0.020 A 
ATOM     11 BR   UNL A   1      36.663 -18.724 -32.686  0.00  0.00    -0.050 Br
ATOM     12  C   UNL A   1      39.457 -18.437 -32.281  0.00  0.00    -0.047 A 
ATOM     13  C   UNL A   1      40.764 -18.487 -32.577  0.00  0.00    -0.051 A 
ATOM     14  C   UNL A   1      41.227 -18.956 -33.873  0.00  0.00    +0.012 A 
ATOM     15  C   UNL A   1      42.498 -19.053 -34.312  0.00  0.00    +0.039 A 
ATOM     16  C   UNL A   1      42.823 -19.504 -35.682  0.00  0.00    +0.036 A 
ATOM     17  C   UNL A   1      44.111 -19.570 -36.127  0.00  0.00    +0.074 A 
ATOM     18  C   UNL A   1      44.423 -20.177 -37.487  0.00  0.00    +0.208 A 
ATOM     19  O   UNL A   1      45.576 -20.391 -37.846  0.00  0.00    -0.285 OA
ATOM     20  C   UNL A   1      43.265 -20.513 -38.331  0.00  0.00    +0.049 A 
ATOM     21  C   UNL A   1      43.444 -20.973 -39.586  0.00  0.00    +0.016 A 
ATOM     22  N   UNL A   1      45.276 -19.157 -35.283  0.00  0.00    -0.378 NA
ATOM     23  C   UNL A   1      46.346 -18.433 -36.117  0.00  0.00    -0.014 C 
ATOM     24  C   UNL A   1      45.884 -20.414 -34.656  0.00  0.00    -0.014 C 
ATOM     25  C   UNL A   1      44.832 -18.170 -34.196  0.00  0.00    +0.062 C 
ATOM     26  C   UNL A   1      43.641 -18.674 -33.436  0.00  0.00    +0.180 C 
ATOM     27  O   UNL A   1      43.657 -18.813 -32.221  0.00  0.00    -0.290 OA
ENDROOT
TORSDOF 0
ENDMDL
MODEL 19
REMARK VINA RESULT:    -6.491     27.230     30.732
REMARK INTER + INTRA:          -6.491
REMARK INTER:                  -6.491
REMARK INTRA:                   0.000
REMARK UNBOUND:                 0.000
REMARK  Name = cpd110.pdb
REMARK  3 active torsions:
REMARK  status: ('A' for Active; 'I' for Inactive)
REMARK    1  A    between atoms: C_1  and  N_2
REMARK    2  A    between atoms: N_22  and  C_23
REMARK    3  A    between atoms: N_22  and  C_24
REMARK                            x       y       z     vdW  Elec       q    Type
REMARK                         _______ _______ _______ _____ _____    ______ ____
ROOT
ATOM      1  C   UNL A   1      51.643 -46.049 -47.278  0.00  0.00    +0.011 C 
ATOM      2  N   UNL A   1      52.889 -46.670 -46.818  0.00  0.00    -0.356 N 
ATOM      3  C   UNL A   1      52.862 -47.747 -45.929  0.00  0.00    +0.005 A 
ATOM      4  C   UNL A   1      53.965 -48.403 -45.523  0.00  0.00    -0.036 A 
ATOM      5  C   UNL A   1      55.268 -47.970 -46.051  0.00  0.00    +0.015 A 
ATOM      6  C   UNL A   1      56.427 -48.567 -45.691  0.00  0.00    +0.082 A 
ATOM      7  N   UNL A   1      56.404 -49.609 -44.800  0.00  0.00    -0.246 NA
ATOM      8  C   UNL A   1      57.489 -50.219 -44.444  0.00  0.00    +0.073 A 
ATOM      9  C   UNL A   1      57.357 -51.339 -43.474  0.00  0.00    -0.022 A 
ATOM     10  C   UNL A   1      58.431 -52.014 -43.045  0.00  0.00    +0.020 A 
ATOM     11 BR   UNL A   1      58.272 -53.419 -41.825  0.00  0.00    -0.050 Br
ATOM     12  C   UNL A   1      59.760 -51.681 -43.503  0.00  0.00    -0.047 A 
ATOM     13  C   UNL A   1      59.976 -50.689 -44.380  0.00  0.00    -0.051 A 
ATOM     14  C   UNL A   1      58.879 -49.901 -44.914  0.00  0.00    +0.012 A 
ATOM     15  C   UNL A   1      58.944 -48.877 -45.789  0.00  0.00    +0.039 A 
ATOM     16  C   UNL A   1      57.741 -48.128 -46.212  0.00  0.00    +0.036 A 
ATOM     17  C   UNL A   1      57.821 -47.073 -47.073  0.00  0.00    +0.074 A 
ATOM     18  C   UNL A   1      56.555 -46.418 -47.604  0.00  0.00    +0.208 A 
ATOM     19  O   UNL A   1      56.593 -45.575 -48.495  0.00  0.00    -0.285 OA
ATOM     20  C   UNL A   1      55.288 -46.870 -47.007  0.00  0.00    +0.049 A 
ATOM     21  C   UNL A   1      54.123 -46.285 -47.349  0.00  0.00    +0.016 A 
ATOM     22  N   UNL A   1      59.124 -46.577 -47.618  0.00  0.00    -0.378 NA
ATOM     23  C   UNL A   1      59.146 -45.042 -47.713  0.00  0.00    -0.014 C 
ATOM     24  C   UNL A   1      59.320 -47.175 -49.013  0.00  0.00    -0.014 C 
ATOM     25  C   UNL A   1      60.282 -46.971 -46.692  0.00  0.00    +0.062 C 
ATOM     26  C   UNL A   1      60.249 -48.430 -46.347  0.00  0.00    +0.180 C 
ATOM     27  O   UNL A   1      61.195 -49.172 -46.574  0.00  0.00    -0.290 OA
ENDROOT
TORSDOF 0
ENDMDL
MODEL 20
REMARK VINA RESULT:    -6.191     19.436     20.068
REMARK INTER + INTRA:          -6.191
REMARK INTER:                  -6.191
REMARK INTRA:                   0.000
REMARK UNBOUND:                 0.000
REMARK  Name = cpd110.pdb
REMARK  3 active torsions:
REMARK  status: ('A' for Active; 'I' for Inactive)
REMARK    1  A    between atoms: C_1  and  N_2
REMARK    2  A    between atoms: N_22  and  C_23
REMARK    3  A    between atoms: N_22  and  C_24
REMARK                            x       y       z     vdW  Elec       q    Type
REMARK                         _______ _______ _______ _____ _____    ______ ____
ROOT
ATOM      1  C   UNL A   1      37.786 -15.927 -36.870  0.00  0.00    +0.011 C 
ATOM      2  N   UNL A   1      38.986 -16.738 -37.099  0.00  0.00    -0.356 N 
ATOM      3  C   UNL A   1      39.236 -17.303 -38.352  0.00  0.00    +0.005 A 
ATOM      4  C   UNL A   1      40.349 -17.999 -38.644  0.00  0.00    -0.036 A 
ATOM      5  C   UNL A   1      41.363 -18.168 -37.591  0.00  0.00    +0.015 A 
ATOM      6  C   UNL A   1      42.508 -18.859 -37.794  0.00  0.00    +0.082 A 
ATOM      7  N   UNL A   1      42.744 -19.433 -39.017  0.00  0.00    -0.246 NA
ATOM      8  C   UNL A   1      43.834 -20.087 -39.259  0.00  0.00    +0.073 A 
ATOM      9  C   UNL A   1      43.996 -20.669 -40.618  0.00  0.00    -0.022 A 
ATOM     10  C   UNL A   1      45.089 -21.371 -40.945  0.00  0.00    +0.020 A 
ATOM     11 BR   UNL A   1      45.296 -22.107 -42.650  0.00  0.00    -0.050 Br
ATOM     12  C   UNL A   1      46.152 -21.592 -39.994  0.00  0.00    -0.047 A 
ATOM     13  C   UNL A   1      46.097 -21.103 -38.747  0.00  0.00    -0.051 A 
ATOM     14  C   UNL A   1      44.959 -20.320 -38.292  0.00  0.00    +0.012 A 
ATOM     15  C   UNL A   1      44.762 -19.775 -37.075  0.00  0.00    +0.039 A 
ATOM     16  C   UNL A   1      43.526 -19.040 -36.735  0.00  0.00    +0.036 A 
ATOM     17  C   UNL A   1      43.322 -18.518 -35.491  0.00  0.00    +0.074 A 
ATOM     18  C   UNL A   1      42.110 -17.642 -35.215  0.00  0.00    +0.208 A 
ATOM     19  O   UNL A   1      41.983 -17.035 -34.156  0.00  0.00    -0.285 OA
ATOM     20  C   UNL A   1      41.115 -17.546 -36.297  0.00  0.00    +0.049 A 
ATOM     21  C   UNL A   1      39.966 -16.865 -36.111  0.00  0.00    +0.016 A 
ATOM     22  N   UNL A   1      44.309 -18.684 -34.378  0.00  0.00    -0.378 NA
ATOM     23  C   UNL A   1      43.604 -18.910 -33.030  0.00  0.00    -0.014 C 
ATOM     24  C   UNL A   1      45.161 -17.415 -34.299  0.00  0.00    -0.014 C 
ATOM     25  C   UNL A   1      45.192 -19.915 -34.619  0.00  0.00    +0.062 C 
ATOM     26  C   UNL A   1      45.780 -19.920 -35.999  0.00  0.00    +0.180 C 
ATOM     27  O   UNL A   1      46.987 -19.974 -36.190  0.00  0.00    -0.290 OA
ENDROOT
TORSDOF 0
ENDMDL
