@<TRIPOS>MOLECULE
*****
 27 31 0 0 0
SMALL
GASTEIGER

@<TRIPOS>ATOM
      1 C           4.2667    4.3164    0.0000 C.3     1  UNL1        0.1305
      2 N           3.4181    3.8421    0.0000 N.ar    1  UNL1       -0.3228
      3 C           2.5875    4.3373    0.0000 C.ar    1  UNL1        0.0760
      4 C           1.7434    3.8655    0.0000 C.ar    1  UNL1        0.0203
      5 C           1.7299    2.8986    0.0000 C.ar    1  UNL1        0.0241
      6 C           0.8749    2.4257    0.0000 C.ar    1  UNL1        0.0871
      7 N           0.0385    2.9209    0.0000 N.ar    1  UNL1       -0.2451
      8 C          -0.8045    2.4479    0.0000 C.ar    1  UNL1        0.0818
      9 C          -1.6363    2.9429    0.0000 C.ar    1  UNL1        0.0258
     10 C          -2.4809    2.4700    0.0000 C.ar    1  UNL1        0.0361
     11 BR         -3.3163    2.9672    0.0000 Br      1  UNL1       -0.0489
     12 C          -2.4937    1.5021    0.0000 C.ar    1  UNL1        0.0068
     13 C          -1.6618    1.0071    0.0000 C.ar    1  UNL1        0.0021
     14 C          -0.8173    1.4800    0.0000 C.ar    1  UNL1        0.0209
     15 C           0.0128    0.9736    0.0000 C.ar    1  UNL1        0.0500
     16 C           0.8621    1.4579    0.0000 C.ar    1  UNL1        0.0814
     17 C           1.7042    0.9513    0.0000 C.ar    1  UNL1        0.2066
     18 C           2.5477    1.4356    0.0000 C.ar    1  UNL1        0.2539
     19 O           3.3843    0.9438    0.0000 O.2     1  UNL1       -0.2804
     20 C           2.5604    2.4035    0.0000 C.ar    1  UNL1        0.0634
     21 C           3.4046    2.8752    0.0000 C.ar    1  UNL1        0.0794
     22 N           1.6913   -0.0223    0.0000 N.pl3   1  UNL1       -0.3065
     23 C           2.5279   -0.5141    0.0000 C.3     1  UNL1        0.3356
     24 C           1.6785   -0.9927    0.0000 C.3     1  UNL1        0.3356
     25 C           0.8480   -0.4896    0.0000 C.3     1  UNL1        0.3260
     26 C           0.0000    0.0000    0.0000 C.2     1  UNL1        0.2448
     27 O          -0.8436   -0.4797    0.0000 O.2     1  UNL1       -0.2842
@<TRIPOS>UNITY_ATOM_ATTR
22 1
charge 1
@<TRIPOS>BOND
     1     1     2    1
     2     2     3   ar
     3     3     4   ar
     4     4     5   ar
     5     5     6   ar
     6     6     7   ar
     7     7     8   ar
     8     8     9   ar
     9     9    10   ar
    10    10    11    1
    11    10    12   ar
    12    12    13   ar
    13    13    14   ar
    14     8    14   ar
    15    14    15   ar
    16    15    16   ar
    17     6    16   ar
    18    16    17   ar
    19    17    18   ar
    20    18    19    2
    21    18    20   ar
    22     5    20    1
    23    20    21   ar
    24     2    21   ar
    25    17    22    1
    26    22    23    1
    27    22    24    1
    28    22    25    1
    29    25    26    1
    30    15    26    1
    31    26    27    2
