@<TRIPOS>MOLECULE
*****
 27 30 0 0 0
SMALL
GASTEIGER

@<TRIPOS>ATOM
      1 O           0.9706   -2.4945    0.0000 O.2     1  UNL1       -0.2833
      2 C           0.9706   -1.4945    0.0000 C.2     1  UNL1        0.2299
      3 C           1.8366   -0.9945    0.0000 C.2     1  UNL1        0.0452
      4 C           1.8366    0.0055    0.0000 C.2     1  UNL1        0.0038
      5 C           2.7026    0.5055    0.0000 C.ar    1  UNL1        0.0123
      6 C           3.5686    0.0055    0.0000 C.ar    1  UNL1        0.0758
      7 C           4.4347    0.5055    0.0000 C.ar    1  UNL1        0.2904
      8 N           4.4347    1.5055    0.0000 N.ar    1  UNL1       -0.1555
      9 C           5.3007    2.0055    0.0000 C.3     1  UNL1        0.3506
     10 C           6.1667    1.5055    0.0000 C.ar    1  UNL1        0.0617
     11 C           6.1667    0.5055    0.0000 C.ar    1  UNL1        0.0030
     12 C           7.0327    0.0055    0.0000 C.ar    1  UNL1       -0.0001
     13 C           7.8988    0.5055    0.0000 C.ar    1  UNL1        0.0005
     14 C           7.8988    1.5055    0.0000 C.ar    1  UNL1        0.0066
     15 C           7.0327    2.0055    0.0000 C.ar    1  UNL1        0.0371
     16 BR          7.0327    3.0055    0.0000 Br      1  UNL1       -0.0491
     17 C           3.5686    2.0055    0.0000 C.ar    1  UNL1        0.2904
     18 C           2.7026    1.5055    0.0000 C.ar    1  UNL1        0.0758
     19 C           0.1045   -0.9945    0.0000 C.ar    1  UNL1        0.1840
     20 C          -0.8090   -1.4013    0.0000 C.ar    1  UNL1        0.0438
     21 C          -1.4781   -0.6581    0.0000 C.ar    1  UNL1        0.0377
     22 C          -2.4781   -0.6581    0.0000 C.ar    1  UNL1        0.0031
     23 C          -2.9781    0.2079    0.0000 C.ar    1  UNL1        0.0002
     24 C          -2.4781    1.0739    0.0000 C.ar    1  UNL1        0.0031
     25 C          -1.4781    1.0739    0.0000 C.ar    1  UNL1        0.0375
     26 C          -0.9781    0.2079    0.0000 C.ar    1  UNL1        0.1454
     27 O           0.0000    0.0000    0.0000 O.2     1  UNL1       -0.4503
@<TRIPOS>UNITY_ATOM_ATTR
8 1
charge 1
@<TRIPOS>BOND
     1     1     2    2
     2     2     3    1
     3     3     4    2
     4     4     5    1
     5     5     6   ar
     6     6     7   ar
     7     7     8   ar
     8     8     9    1
     9     9    10    1
    10    10    11   ar
    11    11    12   ar
    12    12    13   ar
    13    13    14   ar
    14    14    15   ar
    15    10    15   ar
    16    15    16    1
    17     8    17   ar
    18    17    18   ar
    19     5    18   ar
    20     2    19    1
    21    19    20   ar
    22    20    21   ar
    23    21    22   ar
    24    22    23   ar
    25    23    24   ar
    26    24    25   ar
    27    25    26   ar
    28    21    26   ar
    29    26    27   ar
    30    19    27   ar
