MODEL 1
REMARK VINA RESULT:    -9.198      0.000      0.000
REMARK INTER + INTRA:         -12.416
REMARK INTER:                 -11.886
REMARK INTRA:                  -0.530
REMARK UNBOUND:                -0.530
REMARK  Name = cpd138.pdb
REMARK  5 active torsions:
REMARK  status: ('A' for Active; 'I' for Inactive)
REMARK    1  A    between atoms: C_2  and  C_3
REMARK    2  A    between atoms: C_2  and  C_19
REMARK    3  A    between atoms: C_4  and  C_5
REMARK    4  A    between atoms: N_8  and  C_9
REMARK    5  A    between atoms: C_9  and  C_10
REMARK                            x       y       z     vdW  Elec       q    Type
REMARK                         _______ _______ _______ _____ _____    ______ ____
ROOT
ATOM      1  C   UNL A   1      38.757 -36.974 -30.095  0.00  0.00    -0.022 A 
ATOM      2  C   UNL A   1      37.989 -37.937 -29.440  0.00  0.00    -0.038 A 
ATOM      3  C   UNL A   1      36.601 -37.873 -29.501  0.00  0.00    +0.005 A 
ATOM      4  N   UNL A   1      35.983 -36.886 -30.193  0.00  0.00    -0.349 N 
ATOM      5  C   UNL A   1      36.706 -35.959 -30.859  0.00  0.00    +0.005 A 
ATOM      6  C   UNL A   1      38.097 -35.986 -30.825  0.00  0.00    -0.038 A 
ENDROOT
BRANCH   1   8
ATOM      7  C   UNL A   1      40.980 -36.615 -31.140  0.00  0.00    -0.011 C 
ATOM      8  C   UNL A   1      40.226 -36.999 -30.098  0.00  0.00    -0.051 C 
BRANCH   7  10
ATOM      9  O   UNL A   1      43.017 -35.681 -31.724  0.00  0.00    -0.284 OA
ATOM     10  C   UNL A   1      42.475 -36.663 -31.214  0.00  0.00    +0.221 C 
BRANCH  10  11
ATOM     11  C   UNL A   1      43.230 -37.790 -30.706  0.00  0.00    +0.176 A 
ATOM     12  C   UNL A   1      42.908 -39.135 -30.682  0.00  0.00    -0.005 A 
ATOM     13  C   UNL A   1      44.006 -39.819 -30.102  0.00  0.00    +0.021 A 
ATOM     14  C   UNL A   1      44.309 -41.155 -29.791  0.00  0.00    -0.051 A 
ATOM     15  C   UNL A   1      45.550 -41.445 -29.206  0.00  0.00    -0.061 A 
ATOM     16  C   UNL A   1      46.474 -40.432 -28.938  0.00  0.00    -0.058 A 
ATOM     17  C   UNL A   1      46.191 -39.096 -29.242  0.00  0.00    -0.019 A 
ATOM     18  C   UNL A   1      44.950 -38.840 -29.819  0.00  0.00    +0.136 A 
ATOM     19  O   UNL A   1      44.486 -37.615 -30.188  0.00  0.00    -0.452 OA
ENDBRANCH  10  11
ENDBRANCH   7  10
ENDBRANCH   1   8
BRANCH   4  20
ATOM     20  C   UNL A   1      34.497 -36.858 -30.257  0.00  0.00    +0.049 C 
BRANCH  20  21
ATOM     21  C   UNL A   1      33.938 -35.455 -30.292  0.00  0.00    -0.014 A 
ATOM     22  C   UNL A   1      34.112 -34.584 -29.198  0.00  0.00    -0.056 A 
ATOM     23  C   UNL A   1      33.624 -33.274 -29.234  0.00  0.00    -0.061 A 
ATOM     24  C   UNL A   1      32.972 -32.804 -30.367  0.00  0.00    -0.061 A 
ATOM     25  C   UNL A   1      32.814 -33.635 -31.472  0.00  0.00    -0.047 A 
ATOM     26  C   UNL A   1      33.300 -34.947 -31.440  0.00  0.00    +0.023 A 
ATOM     27 BR   UNL A   1      33.070 -35.982 -33.018  0.00  0.00    -0.050 Br
ENDBRANCH  20  21
ENDBRANCH   4  20
TORSDOF 5
ENDMDL
MODEL 2
REMARK VINA RESULT:    -8.291      1.888      2.900
REMARK INTER + INTRA:         -11.244
REMARK INTER:                 -10.544
REMARK INTRA:                  -0.700
REMARK UNBOUND:                -0.530
REMARK  Name = cpd138.pdb
REMARK  5 active torsions:
REMARK  status: ('A' for Active; 'I' for Inactive)
REMARK    1  A    between atoms: C_2  and  C_3
REMARK    2  A    between atoms: C_2  and  C_19
REMARK    3  A    between atoms: C_4  and  C_5
REMARK    4  A    between atoms: N_8  and  C_9
REMARK    5  A    between atoms: C_9  and  C_10
REMARK                            x       y       z     vdW  Elec       q    Type
REMARK                         _______ _______ _______ _____ _____    ______ ____
ROOT
ATOM      1  C   UNL A   1      38.604 -36.947 -30.229  0.00  0.00    -0.022 A 
ATOM      2  C   UNL A   1      37.692 -36.142 -30.910  0.00  0.00    -0.038 A 
ATOM      3  C   UNL A   1      36.334 -36.436 -30.856  0.00  0.00    +0.005 A 
ATOM      4  N   UNL A   1      35.884 -37.498 -30.146  0.00  0.00    -0.349 N 
ATOM      5  C   UNL A   1      36.746 -38.277 -29.455  0.00  0.00    +0.005 A 
ATOM      6  C   UNL A   1      38.112 -38.017 -29.481  0.00  0.00    -0.038 A 
ENDROOT
BRANCH   1   8
ATOM      7  C   UNL A   1      40.911 -37.179 -31.115  0.00  0.00    -0.011 C 
ATOM      8  C   UNL A   1      40.048 -36.676 -30.219  0.00  0.00    -0.051 C 
BRANCH   7  10
ATOM      9  O   UNL A   1      42.784 -35.902 -31.593  0.00  0.00    -0.284 OA
ATOM     10  C   UNL A   1      42.395 -36.974 -31.125  0.00  0.00    +0.221 C 
BRANCH  10  11
ATOM     11  C   UNL A   1      43.308 -37.971 -30.606  0.00  0.00    +0.176 A 
ATOM     12  C   UNL A   1      43.140 -39.337 -30.462  0.00  0.00    -0.005 A 
ATOM     13  C   UNL A   1      44.350 -39.853 -29.931  0.00  0.00    +0.021 A 
ATOM     14  C   UNL A   1      44.822 -41.122 -29.555  0.00  0.00    -0.051 A 
ATOM     15  C   UNL A   1      46.129 -41.233 -29.058  0.00  0.00    -0.061 A 
ATOM     16  C   UNL A   1      46.952 -40.109 -28.939  0.00  0.00    -0.058 A 
ATOM     17  C   UNL A   1      46.499 -38.839 -29.310  0.00  0.00    -0.019 A 
ATOM     18  C   UNL A   1      45.197 -38.761 -29.797  0.00  0.00    +0.136 A 
ATOM     19  O   UNL A   1      44.572 -37.625 -30.209  0.00  0.00    -0.452 OA
ENDBRANCH  10  11
ENDBRANCH   7  10
ENDBRANCH   1   8
BRANCH   4  20
ATOM     20  C   UNL A   1      34.422 -37.774 -30.089  0.00  0.00    +0.049 C 
BRANCH  20  21
ATOM     21  C   UNL A   1      33.893 -38.394 -31.362  0.00  0.00    -0.014 A 
ATOM     22  C   UNL A   1      34.414 -39.613 -31.839  0.00  0.00    -0.056 A 
ATOM     23  C   UNL A   1      33.910 -40.209 -32.999  0.00  0.00    -0.061 A 
ATOM     24  C   UNL A   1      32.865 -39.611 -33.692  0.00  0.00    -0.061 A 
ATOM     25  C   UNL A   1      32.312 -38.422 -33.224  0.00  0.00    -0.047 A 
ATOM     26  C   UNL A   1      32.815 -37.822 -32.064  0.00  0.00    +0.023 A 
ATOM     27 BR   UNL A   1      31.959 -36.225 -31.489  0.00  0.00    -0.050 Br
ENDBRANCH  20  21
ENDBRANCH   4  20
TORSDOF 5
ENDMDL
MODEL 3
REMARK VINA RESULT:    -8.080      3.840      6.289
REMARK INTER + INTRA:         -10.971
REMARK INTER:                 -10.224
REMARK INTRA:                  -0.747
REMARK UNBOUND:                -0.530
REMARK  Name = cpd138.pdb
REMARK  5 active torsions:
REMARK  status: ('A' for Active; 'I' for Inactive)
REMARK    1  A    between atoms: C_2  and  C_3
REMARK    2  A    between atoms: C_2  and  C_19
REMARK    3  A    between atoms: C_4  and  C_5
REMARK    4  A    between atoms: N_8  and  C_9
REMARK    5  A    between atoms: C_9  and  C_10
REMARK                            x       y       z     vdW  Elec       q    Type
REMARK                         _______ _______ _______ _____ _____    ______ ____
ROOT
ATOM      1  C   UNL A   1      34.272 -33.805 -29.792  0.00  0.00    -0.022 A 
ATOM      2  C   UNL A   1      33.102 -33.907 -29.040  0.00  0.00    -0.038 A 
ATOM      3  C   UNL A   1      32.121 -32.928 -29.149  0.00  0.00    +0.005 A 
ATOM      4  N   UNL A   1      32.287 -31.873 -29.982  0.00  0.00    -0.349 N 
ATOM      5  C   UNL A   1      33.400 -31.767 -30.743  0.00  0.00    +0.005 A 
ATOM      6  C   UNL A   1      34.406 -32.725 -30.664  0.00  0.00    -0.038 A 
ENDROOT
BRANCH   1   8
ATOM      7  C   UNL A   1      35.107 -36.141 -29.699  0.00  0.00    -0.011 C 
ATOM      8  C   UNL A   1      35.335 -34.820 -29.748  0.00  0.00    -0.051 C 
BRANCH   7  10
ATOM      9  O   UNL A   1      35.781 -38.271 -29.086  0.00  0.00    -0.284 OA
ATOM     10  C   UNL A   1      36.147 -37.215 -29.606  0.00  0.00    +0.221 C 
BRANCH  10  11
ATOM     11  C   UNL A   1      37.492 -37.022 -30.107  0.00  0.00    +0.176 A 
ATOM     12  C   UNL A   1      38.707 -37.348 -29.532  0.00  0.00    -0.005 A 
ATOM     13  C   UNL A   1      39.719 -36.973 -30.451  0.00  0.00    +0.021 A 
ATOM     14  C   UNL A   1      41.124 -37.023 -30.477  0.00  0.00    -0.051 A 
ATOM     15  C   UNL A   1      41.793 -36.540 -31.611  0.00  0.00    -0.061 A 
ATOM     16  C   UNL A   1      41.085 -36.022 -32.699  0.00  0.00    -0.058 A 
ATOM     17  C   UNL A   1      39.687 -35.966 -32.692  0.00  0.00    -0.019 A 
ATOM     18  C   UNL A   1      39.052 -36.449 -31.550  0.00  0.00    +0.136 A 
ATOM     19  O   UNL A   1      37.707 -36.484 -31.348  0.00  0.00    -0.452 OA
ENDBRANCH  10  11
ENDBRANCH   7  10
ENDBRANCH   1   8
BRANCH   4  20
ATOM     20  C   UNL A   1      31.210 -30.852 -30.094  0.00  0.00    +0.049 C 
BRANCH  20  21
ATOM     21  C   UNL A   1      29.935 -31.407 -30.685  0.00  0.00    -0.014 A 
ATOM     22  C   UNL A   1      29.919 -31.939 -31.990  0.00  0.00    -0.056 A 
ATOM     23  C   UNL A   1      28.751 -32.481 -32.533  0.00  0.00    -0.061 A 
ATOM     24  C   UNL A   1      27.584 -32.523 -31.779  0.00  0.00    -0.061 A 
ATOM     25  C   UNL A   1      27.583 -32.032 -30.477  0.00  0.00    -0.047 A 
ATOM     26  C   UNL A   1      28.749 -31.487 -29.929  0.00  0.00    +0.023 A 
ATOM     27 BR   UNL A   1      28.648 -30.886 -28.129  0.00  0.00    -0.050 Br
ENDBRANCH  20  21
ENDBRANCH   4  20
TORSDOF 5
ENDMDL
MODEL 4
REMARK VINA RESULT:    -8.051      5.062      6.967
REMARK INTER + INTRA:         -10.934
REMARK INTER:                 -10.214
REMARK INTRA:                  -0.719
REMARK UNBOUND:                -0.530
REMARK  Name = cpd138.pdb
REMARK  5 active torsions:
REMARK  status: ('A' for Active; 'I' for Inactive)
REMARK    1  A    between atoms: C_2  and  C_3
REMARK    2  A    between atoms: C_2  and  C_19
REMARK    3  A    between atoms: C_4  and  C_5
REMARK    4  A    between atoms: N_8  and  C_9
REMARK    5  A    between atoms: C_9  and  C_10
REMARK                            x       y       z     vdW  Elec       q    Type
REMARK                         _______ _______ _______ _____ _____    ______ ____
ROOT
ATOM      1  C   UNL A   1      33.868 -36.894 -28.133  0.00  0.00    -0.022 A 
ATOM      2  C   UNL A   1      33.009 -35.900 -27.666  0.00  0.00    -0.038 A 
ATOM      3  C   UNL A   1      32.345 -36.071 -26.456  0.00  0.00    +0.005 A 
ATOM      4  N   UNL A   1      32.524 -37.195 -25.722  0.00  0.00    -0.349 N 
ATOM      5  C   UNL A   1      33.373 -38.161 -26.140  0.00  0.00    +0.005 A 
ATOM      6  C   UNL A   1      34.058 -38.028 -27.344  0.00  0.00    -0.038 A 
ENDROOT
BRANCH   1   8
ATOM      7  C   UNL A   1      35.739 -36.028 -29.515  0.00  0.00    -0.011 C 
ATOM      8  C   UNL A   1      34.625 -36.764 -29.386  0.00  0.00    -0.051 C 
BRANCH   7  10
ATOM      9  O   UNL A   1      35.913 -35.285 -31.703  0.00  0.00    -0.284 OA
ATOM     10  C   UNL A   1      36.522 -35.823 -30.775  0.00  0.00    +0.221 C 
BRANCH  10  11
ATOM     11  C   UNL A   1      37.910 -36.221 -30.887  0.00  0.00    +0.176 A 
ATOM     12  C   UNL A   1      38.657 -37.069 -30.087  0.00  0.00    -0.005 A 
ATOM     13  C   UNL A   1      39.955 -37.141 -30.651  0.00  0.00    +0.021 A 
ATOM     14  C   UNL A   1      41.155 -37.801 -30.334  0.00  0.00    -0.051 A 
ATOM     15  C   UNL A   1      42.265 -37.619 -31.172  0.00  0.00    -0.061 A 
ATOM     16  C   UNL A   1      42.187 -36.803 -32.303  0.00  0.00    -0.058 A 
ATOM     17  C   UNL A   1      41.001 -36.139 -32.636  0.00  0.00    -0.019 A 
ATOM     18  C   UNL A   1      39.918 -36.338 -31.783  0.00  0.00    +0.136 A 
ATOM     19  O   UNL A   1      38.683 -35.786 -31.931  0.00  0.00    -0.452 OA
ENDBRANCH  10  11
ENDBRANCH   7  10
ENDBRANCH   1   8
BRANCH   4  20
ATOM     20  C   UNL A   1      31.816 -37.340 -24.421  0.00  0.00    +0.049 C 
BRANCH  20  21
ATOM     21  C   UNL A   1      32.757 -37.592 -23.266  0.00  0.00    -0.014 A 
ATOM     22  C   UNL A   1      33.682 -36.607 -22.864  0.00  0.00    -0.056 A 
ATOM     23  C   UNL A   1      34.535 -36.820 -21.777  0.00  0.00    -0.061 A 
ATOM     24  C   UNL A   1      34.469 -38.009 -21.061  0.00  0.00    -0.061 A 
ATOM     25  C   UNL A   1      33.543 -38.984 -21.419  0.00  0.00    -0.047 A 
ATOM     26  C   UNL A   1      32.687 -38.776 -22.507  0.00  0.00    +0.023 A 
ATOM     27 BR   UNL A   1      31.433 -40.153 -22.883  0.00  0.00    -0.050 Br
ENDBRANCH  20  21
ENDBRANCH   4  20
TORSDOF 5
ENDMDL
MODEL 5
REMARK VINA RESULT:    -7.737      3.487      5.633
REMARK INTER + INTRA:         -10.528
REMARK INTER:                  -9.819
REMARK INTRA:                  -0.709
REMARK UNBOUND:                -0.530
REMARK  Name = cpd138.pdb
REMARK  5 active torsions:
REMARK  status: ('A' for Active; 'I' for Inactive)
REMARK    1  A    between atoms: C_2  and  C_3
REMARK    2  A    between atoms: C_2  and  C_19
REMARK    3  A    between atoms: C_4  and  C_5
REMARK    4  A    between atoms: N_8  and  C_9
REMARK    5  A    between atoms: C_9  and  C_10
REMARK                            x       y       z     vdW  Elec       q    Type
REMARK                         _______ _______ _______ _____ _____    ______ ____
ROOT
ATOM      1  C   UNL A   1      33.798 -36.064 -29.888  0.00  0.00    -0.022 A 
ATOM      2  C   UNL A   1      32.855 -35.868 -28.880  0.00  0.00    -0.038 A 
ATOM      3  C   UNL A   1      31.697 -35.145 -29.147  0.00  0.00    +0.005 A 
ATOM      4  N   UNL A   1      31.472 -34.630 -30.379  0.00  0.00    -0.349 N 
ATOM      5  C   UNL A   1      32.359 -34.830 -31.380  0.00  0.00    +0.005 A 
ATOM      6  C   UNL A   1      33.529 -35.548 -31.155  0.00  0.00    -0.038 A 
ENDROOT
BRANCH   1   8
ATOM      7  C   UNL A   1      35.937 -36.572 -28.735  0.00  0.00    -0.011 C 
ATOM      8  C   UNL A   1      35.028 -36.843 -29.683  0.00  0.00    -0.051 C 
BRANCH   7  10
ATOM      9  O   UNL A   1      37.252 -38.057 -27.538  0.00  0.00    -0.284 OA
ATOM     10  C   UNL A   1      37.226 -37.301 -28.511  0.00  0.00    +0.221 C 
BRANCH  10  11
ATOM     11  C   UNL A   1      38.363 -37.133 -29.393  0.00  0.00    +0.176 A 
ATOM     12  C   UNL A   1      39.630 -37.684 -29.321  0.00  0.00    -0.005 A 
ATOM     13  C   UNL A   1      40.353 -37.220 -30.449  0.00  0.00    +0.021 A 
ATOM     14  C   UNL A   1      41.654 -37.394 -30.951  0.00  0.00    -0.051 A 
ATOM     15  C   UNL A   1      42.006 -36.748 -32.145  0.00  0.00    -0.061 A 
ATOM     16  C   UNL A   1      41.086 -35.948 -32.830  0.00  0.00    -0.058 A 
ATOM     17  C   UNL A   1      39.787 -35.765 -32.346  0.00  0.00    -0.019 A 
ATOM     18  C   UNL A   1      39.469 -36.417 -31.157  0.00  0.00    +0.136 A 
ATOM     19  O   UNL A   1      38.265 -36.368 -30.525  0.00  0.00    -0.452 OA
ENDBRANCH  10  11
ENDBRANCH   7  10
ENDBRANCH   1   8
BRANCH   4  20
ATOM     20  C   UNL A   1      30.214 -33.879 -30.639  0.00  0.00    +0.049 C 
BRANCH  20  21
ATOM     21  C   UNL A   1      30.162 -32.553 -29.918  0.00  0.00    -0.014 A 
ATOM     22  C   UNL A   1      30.883 -31.443 -30.400  0.00  0.00    -0.056 A 
ATOM     23  C   UNL A   1      30.817 -30.204 -29.756  0.00  0.00    -0.061 A 
ATOM     24  C   UNL A   1      30.016 -30.044 -28.632  0.00  0.00    -0.061 A 
ATOM     25  C   UNL A   1      29.269 -31.117 -28.154  0.00  0.00    -0.047 A 
ATOM     26  C   UNL A   1      29.333 -32.359 -28.795  0.00  0.00    +0.023 A 
ATOM     27 BR   UNL A   1      28.241 -33.744 -28.086  0.00  0.00    -0.050 Br
ENDBRANCH  20  21
ENDBRANCH   4  20
TORSDOF 5
ENDMDL
MODEL 6
REMARK VINA RESULT:    -7.632     16.688     20.151
REMARK INTER + INTRA:         -10.393
REMARK INTER:                  -9.776
REMARK INTRA:                  -0.617
REMARK UNBOUND:                -0.530
REMARK  Name = cpd138.pdb
REMARK  5 active torsions:
REMARK  status: ('A' for Active; 'I' for Inactive)
REMARK    1  A    between atoms: C_2  and  C_3
REMARK    2  A    between atoms: C_2  and  C_19
REMARK    3  A    between atoms: C_4  and  C_5
REMARK    4  A    between atoms: N_8  and  C_9
REMARK    5  A    between atoms: C_9  and  C_10
REMARK                            x       y       z     vdW  Elec       q    Type
REMARK                         _______ _______ _______ _____ _____    ______ ____
ROOT
ATOM      1  C   UNL A   1      43.134 -20.854 -36.743  0.00  0.00    -0.022 A 
ATOM      2  C   UNL A   1      42.871 -21.205 -38.066  0.00  0.00    -0.038 A 
ATOM      3  C   UNL A   1      43.779 -20.869 -39.065  0.00  0.00    +0.005 A 
ATOM      4  N   UNL A   1      44.921 -20.205 -38.767  0.00  0.00    -0.349 N 
ATOM      5  C   UNL A   1      45.211 -19.878 -37.487  0.00  0.00    +0.005 A 
ATOM      6  C   UNL A   1      44.330 -20.196 -36.458  0.00  0.00    -0.038 A 
ENDROOT
BRANCH   1   8
ATOM      7  C   UNL A   1      41.123 -21.945 -35.779  0.00  0.00    -0.011 C 
ATOM      8  C   UNL A   1      42.233 -21.204 -35.635  0.00  0.00    -0.051 C 
BRANCH   7  10
ATOM      9  O   UNL A   1      40.228 -23.439 -34.252  0.00  0.00    -0.284 OA
ATOM     10  C   UNL A   1      40.147 -22.292 -34.698  0.00  0.00    +0.221 C 
BRANCH  10  11
ATOM     11  C   UNL A   1      39.180 -21.334 -34.203  0.00  0.00    +0.176 A 
ATOM     12  C   UNL A   1      37.831 -21.491 -33.940  0.00  0.00    -0.005 A 
ATOM     13  C   UNL A   1      37.354 -20.251 -33.445  0.00  0.00    +0.021 A 
ATOM     14  C   UNL A   1      36.115 -19.751 -33.010  0.00  0.00    -0.051 A 
ATOM     15  C   UNL A   1      36.043 -18.421 -32.571  0.00  0.00    -0.061 A 
ATOM     16  C   UNL A   1      37.176 -17.604 -32.560  0.00  0.00    -0.058 A 
ATOM     17  C   UNL A   1      38.418 -18.085 -32.987  0.00  0.00    -0.019 A 
ATOM     18  C   UNL A   1      38.457 -19.408 -33.420  0.00  0.00    +0.136 A 
ATOM     19  O   UNL A   1      39.562 -20.061 -33.871  0.00  0.00    -0.452 OA
ENDBRANCH  10  11
ENDBRANCH   7  10
ENDBRANCH   1   8
BRANCH   4  20
ATOM     20  C   UNL A   1      45.883 -19.879 -39.854  0.00  0.00    +0.049 C 
BRANCH  20  21
ATOM     21  C   UNL A   1      46.203 -21.067 -40.730  0.00  0.00    -0.014 A 
ATOM     22  C   UNL A   1      47.077 -22.078 -40.281  0.00  0.00    -0.056 A 
ATOM     23  C   UNL A   1      47.355 -23.196 -41.072  0.00  0.00    -0.061 A 
ATOM     24  C   UNL A   1      46.752 -23.336 -42.317  0.00  0.00    -0.061 A 
ATOM     25  C   UNL A   1      45.862 -22.367 -42.770  0.00  0.00    -0.047 A 
ATOM     26  C   UNL A   1      45.582 -21.246 -41.981  0.00  0.00    +0.023 A 
ATOM     27 BR   UNL A   1      44.320 -20.007 -42.676  0.00  0.00    -0.050 Br
ENDBRANCH  20  21
ENDBRANCH   4  20
TORSDOF 5
ENDMDL
MODEL 7
REMARK VINA RESULT:    -7.624     17.401     20.346
REMARK INTER + INTRA:         -10.383
REMARK INTER:                  -9.778
REMARK INTRA:                  -0.605
REMARK UNBOUND:                -0.530
REMARK  Name = cpd138.pdb
REMARK  5 active torsions:
REMARK  status: ('A' for Active; 'I' for Inactive)
REMARK    1  A    between atoms: C_2  and  C_3
REMARK    2  A    between atoms: C_2  and  C_19
REMARK    3  A    between atoms: C_4  and  C_5
REMARK    4  A    between atoms: N_8  and  C_9
REMARK    5  A    between atoms: C_9  and  C_10
REMARK                            x       y       z     vdW  Elec       q    Type
REMARK                         _______ _______ _______ _____ _____    ______ ____
ROOT
ATOM      1  C   UNL A   1      45.035 -19.028 -37.073  0.00  0.00    -0.022 A 
ATOM      2  C   UNL A   1      46.403 -19.273 -37.177  0.00  0.00    -0.038 A 
ATOM      3  C   UNL A   1      46.991 -19.394 -38.432  0.00  0.00    +0.005 A 
ATOM      4  N   UNL A   1      46.248 -19.275 -39.558  0.00  0.00    -0.349 N 
ATOM      5  C   UNL A   1      44.924 -19.010 -39.482  0.00  0.00    +0.005 A 
ATOM      6  C   UNL A   1      44.297 -18.880 -38.247  0.00  0.00    -0.038 A 
ENDROOT
BRANCH   1   8
ATOM      7  C   UNL A   1      43.842 -19.872 -35.065  0.00  0.00    -0.011 C 
ATOM      8  C   UNL A   1      44.355 -18.859 -35.780  0.00  0.00    -0.051 C 
BRANCH   7  10
ATOM      9  O   UNL A   1      43.688 -19.146 -32.871  0.00  0.00    -0.284 OA
ATOM     10  C   UNL A   1      43.101 -19.753 -33.769  0.00  0.00    +0.221 C 
BRANCH  10  11
ATOM     11  C   UNL A   1      41.774 -20.306 -33.593  0.00  0.00    +0.176 A 
ATOM     12  C   UNL A   1      40.676 -19.783 -32.934  0.00  0.00    -0.005 A 
ATOM     13  C   UNL A   1      39.616 -20.713 -33.084  0.00  0.00    +0.021 A 
ATOM     14  C   UNL A   1      38.277 -20.789 -32.664  0.00  0.00    -0.051 A 
ATOM     15  C   UNL A   1      37.520 -21.911 -33.031  0.00  0.00    -0.061 A 
ATOM     16  C   UNL A   1      38.076 -22.935 -33.802  0.00  0.00    -0.058 A 
ATOM     17  C   UNL A   1      39.407 -22.876 -34.230  0.00  0.00    -0.019 A 
ATOM     18  C   UNL A   1      40.133 -21.751 -33.847  0.00  0.00    +0.136 A 
ATOM     19  O   UNL A   1      41.434 -21.505 -34.161  0.00  0.00    -0.452 OA
ENDBRANCH  10  11
ENDBRANCH   7  10
ENDBRANCH   1   8
BRANCH   4  20
ATOM     20  C   UNL A   1      46.909 -19.388 -40.886  0.00  0.00    +0.049 C 
BRANCH  20  21
ATOM     21  C   UNL A   1      46.997 -20.814 -41.378  0.00  0.00    -0.014 A 
ATOM     22  C   UNL A   1      48.013 -21.674 -40.916  0.00  0.00    -0.056 A 
ATOM     23  C   UNL A   1      48.084 -23.003 -41.343  0.00  0.00    -0.061 A 
ATOM     24  C   UNL A   1      47.132 -23.504 -42.222  0.00  0.00    -0.061 A 
ATOM     25  C   UNL A   1      46.100 -22.684 -42.669  0.00  0.00    -0.047 A 
ATOM     26  C   UNL A   1      46.027 -21.353 -42.245  0.00  0.00    +0.023 A 
ATOM     27 BR   UNL A   1      44.554 -20.334 -42.882  0.00  0.00    -0.050 Br
ENDBRANCH  20  21
ENDBRANCH   4  20
TORSDOF 5
ENDMDL
MODEL 8
REMARK VINA RESULT:    -7.414      6.088      8.291
REMARK INTER + INTRA:         -10.111
REMARK INTER:                  -9.560
REMARK INTRA:                  -0.551
REMARK UNBOUND:                -0.530
REMARK  Name = cpd138.pdb
REMARK  5 active torsions:
REMARK  status: ('A' for Active; 'I' for Inactive)
REMARK    1  A    between atoms: C_2  and  C_3
REMARK    2  A    between atoms: C_2  and  C_19
REMARK    3  A    between atoms: C_4  and  C_5
REMARK    4  A    between atoms: N_8  and  C_9
REMARK    5  A    between atoms: C_9  and  C_10
REMARK                            x       y       z     vdW  Elec       q    Type
REMARK                         _______ _______ _______ _____ _____    ______ ____
ROOT
ATOM      1  C   UNL A   1      34.988 -40.805 -31.212  0.00  0.00    -0.022 A 
ATOM      2  C   UNL A   1      35.236 -41.021 -32.567  0.00  0.00    -0.038 A 
ATOM      3  C   UNL A   1      34.387 -41.840 -33.304  0.00  0.00    +0.005 A 
ATOM      4  N   UNL A   1      33.318 -42.431 -32.720  0.00  0.00    -0.349 N 
ATOM      5  C   UNL A   1      33.040 -42.214 -31.415  0.00  0.00    +0.005 A 
ATOM      6  C   UNL A   1      33.863 -41.401 -30.642  0.00  0.00    -0.038 A 
ENDROOT
BRANCH   1   8
ATOM      7  C   UNL A   1      35.762 -38.587 -30.408  0.00  0.00    -0.011 C 
ATOM      8  C   UNL A   1      35.826 -39.927 -30.382  0.00  0.00    -0.051 C 
BRANCH   7  10
ATOM      9  O   UNL A   1      36.233 -37.395 -28.479  0.00  0.00    -0.284 OA
ATOM     10  C   UNL A   1      36.621 -37.646 -29.621  0.00  0.00    +0.221 C 
BRANCH  10  11
ATOM     11  C   UNL A   1      37.836 -37.080 -30.170  0.00  0.00    +0.176 A 
ATOM     12  C   UNL A   1      38.014 -35.951 -30.951  0.00  0.00    -0.005 A 
ATOM     13  C   UNL A   1      39.406 -35.825 -31.193  0.00  0.00    +0.021 A 
ATOM     14  C   UNL A   1      40.227 -34.929 -31.897  0.00  0.00    -0.051 A 
ATOM     15  C   UNL A   1      41.613 -35.145 -31.898  0.00  0.00    -0.061 A 
ATOM     16  C   UNL A   1      42.174 -36.226 -31.212  0.00  0.00    -0.058 A 
ATOM     17  C   UNL A   1      41.372 -37.127 -30.504  0.00  0.00    -0.019 A 
ATOM     18  C   UNL A   1      40.000 -36.887 -30.525  0.00  0.00    +0.136 A 
ATOM     19  O   UNL A   1      39.055 -37.642 -29.902  0.00  0.00    -0.452 OA
ENDBRANCH  10  11
ENDBRANCH   7  10
ENDBRANCH   1   8
BRANCH   4  20
ATOM     20  C   UNL A   1      32.415 -43.284 -33.540  0.00  0.00    +0.049 C 
BRANCH  20  21
ATOM     21  C   UNL A   1      33.078 -44.559 -34.006  0.00  0.00    -0.014 A 
ATOM     22  C   UNL A   1      33.890 -44.569 -35.159  0.00  0.00    -0.056 A 
ATOM     23  C   UNL A   1      34.530 -45.737 -35.580  0.00  0.00    -0.061 A 
ATOM     24  C   UNL A   1      34.390 -46.912 -34.851  0.00  0.00    -0.061 A 
ATOM     25  C   UNL A   1      33.619 -46.921 -33.693  0.00  0.00    -0.047 A 
ATOM     26  C   UNL A   1      32.975 -45.754 -33.267  0.00  0.00    +0.023 A 
ATOM     27 BR   UNL A   1      31.983 -45.866 -31.650  0.00  0.00    -0.050 Br
ENDBRANCH  20  21
ENDBRANCH   4  20
TORSDOF 5
ENDMDL
MODEL 9
REMARK VINA RESULT:    -7.381     17.060     18.702
REMARK INTER + INTRA:         -10.068
REMARK INTER:                  -9.425
REMARK INTRA:                  -0.644
REMARK UNBOUND:                -0.530
REMARK  Name = cpd138.pdb
REMARK  5 active torsions:
REMARK  status: ('A' for Active; 'I' for Inactive)
REMARK    1  A    between atoms: C_2  and  C_3
REMARK    2  A    between atoms: C_2  and  C_19
REMARK    3  A    between atoms: C_4  and  C_5
REMARK    4  A    between atoms: N_8  and  C_9
REMARK    5  A    between atoms: C_9  and  C_10
REMARK                            x       y       z     vdW  Elec       q    Type
REMARK                         _______ _______ _______ _____ _____    ______ ____
ROOT
ATOM      1  C   UNL A   1      42.893 -20.381 -36.522  0.00  0.00    -0.022 A 
ATOM      2  C   UNL A   1      41.688 -21.048 -36.308  0.00  0.00    -0.038 A 
ATOM      3  C   UNL A   1      41.127 -21.071 -35.035  0.00  0.00    +0.005 A 
ATOM      4  N   UNL A   1      41.738 -20.450 -33.998  0.00  0.00    -0.349 N 
ATOM      5  C   UNL A   1      42.893 -19.774 -34.188  0.00  0.00    +0.005 A 
ATOM      6  C   UNL A   1      43.488 -19.725 -35.445  0.00  0.00    -0.038 A 
ENDROOT
BRANCH   1   8
ATOM      7  C   UNL A   1      44.434 -19.363 -38.181  0.00  0.00    -0.011 C 
ATOM      8  C   UNL A   1      43.525 -20.292 -37.846  0.00  0.00    -0.051 C 
BRANCH   7  10
ATOM      9  O   UNL A   1      45.059 -18.053 -39.987  0.00  0.00    -0.284 OA
ATOM     10  C   UNL A   1      45.074 -19.196 -39.524  0.00  0.00    +0.221 C 
BRANCH  10  11
ATOM     11  C   UNL A   1      45.682 -20.308 -40.225  0.00  0.00    +0.176 A 
ATOM     12  C   UNL A   1      45.238 -21.006 -41.335  0.00  0.00    -0.005 A 
ATOM     13  C   UNL A   1      46.221 -21.982 -41.636  0.00  0.00    +0.021 A 
ATOM     14  C   UNL A   1      46.376 -22.988 -42.605  0.00  0.00    -0.051 A 
ATOM     15  C   UNL A   1      47.536 -23.777 -42.576  0.00  0.00    -0.061 A 
ATOM     16  C   UNL A   1      48.524 -23.570 -41.609  0.00  0.00    -0.058 A 
ATOM     17  C   UNL A   1      48.387 -22.572 -40.638  0.00  0.00    -0.019 A 
ATOM     18  C   UNL A   1      47.224 -21.809 -40.691  0.00  0.00    +0.136 A 
ATOM     19  O   UNL A   1      46.904 -20.795 -39.843  0.00  0.00    -0.452 OA
ENDBRANCH  10  11
ENDBRANCH   7  10
ENDBRANCH   1   8
BRANCH   4  20
ATOM     20  C   UNL A   1      41.102 -20.475 -32.653  0.00  0.00    +0.049 C 
BRANCH  20  21
ATOM     21  C   UNL A   1      39.600 -20.322 -32.712  0.00  0.00    -0.014 A 
ATOM     22  C   UNL A   1      38.760 -21.454 -32.682  0.00  0.00    -0.056 A 
ATOM     23  C   UNL A   1      37.369 -21.321 -32.706  0.00  0.00    -0.061 A 
ATOM     24  C   UNL A   1      36.789 -20.058 -32.740  0.00  0.00    -0.061 A 
ATOM     25  C   UNL A   1      37.597 -18.925 -32.740  0.00  0.00    -0.047 A 
ATOM     26  C   UNL A   1      38.990 -19.053 -32.717  0.00  0.00    +0.023 A 
ATOM     27 BR   UNL A   1      39.996 -17.441 -32.674  0.00  0.00    -0.050 Br
ENDBRANCH  20  21
ENDBRANCH   4  20
TORSDOF 5
ENDMDL
MODEL 10
REMARK VINA RESULT:    -7.380     31.354     34.087
REMARK INTER + INTRA:         -10.067
REMARK INTER:                  -9.352
REMARK INTRA:                  -0.715
REMARK UNBOUND:                -0.530
REMARK  Name = cpd138.pdb
REMARK  5 active torsions:
REMARK  status: ('A' for Active; 'I' for Inactive)
REMARK    1  A    between atoms: C_2  and  C_3
REMARK    2  A    between atoms: C_2  and  C_19
REMARK    3  A    between atoms: C_4  and  C_5
REMARK    4  A    between atoms: N_8  and  C_9
REMARK    5  A    between atoms: C_9  and  C_10
REMARK                            x       y       z     vdW  Elec       q    Type
REMARK                         _______ _______ _______ _____ _____    ______ ____
ROOT
ATOM      1  C   UNL A   1      61.606 -18.843  -9.929  0.00  0.00    -0.022 A 
ATOM      2  C   UNL A   1      60.290 -18.730  -9.485  0.00  0.00    -0.038 A 
ATOM      3  C   UNL A   1      59.353 -18.055 -10.260  0.00  0.00    +0.005 A 
ATOM      4  N   UNL A   1      59.705 -17.506 -11.448  0.00  0.00    -0.349 N 
ATOM      5  C   UNL A   1      60.968 -17.627 -11.913  0.00  0.00    +0.005 A 
ATOM      6  C   UNL A   1      61.936 -18.295 -11.169  0.00  0.00    -0.038 A 
ENDROOT
BRANCH   1   8
ATOM      7  C   UNL A   1      62.531 -20.854  -8.805  0.00  0.00    -0.011 C 
ATOM      8  C   UNL A   1      62.638 -19.569  -9.175  0.00  0.00    -0.051 C 
BRANCH   7  10
ATOM      9  O   UNL A   1      64.553 -21.019  -7.686  0.00  0.00    -0.284 OA
ATOM     10  C   UNL A   1      63.527 -21.628  -7.997  0.00  0.00    +0.221 C 
BRANCH  10  11
ATOM     11  C   UNL A   1      63.289 -23.000  -7.600  0.00  0.00    +0.176 A 
ATOM     12  C   UNL A   1      62.492 -23.968  -8.187  0.00  0.00    -0.005 A 
ATOM     13  C   UNL A   1      62.635 -25.150  -7.418  0.00  0.00    +0.021 A 
ATOM     14  C   UNL A   1      62.110 -26.453  -7.469  0.00  0.00    -0.051 A 
ATOM     15  C   UNL A   1      62.512 -27.379  -6.495  0.00  0.00    -0.061 A 
ATOM     16  C   UNL A   1      63.418 -27.022  -5.493  0.00  0.00    -0.058 A 
ATOM     17  C   UNL A   1      63.953 -25.731  -5.428  0.00  0.00    -0.019 A 
ATOM     18  C   UNL A   1      63.532 -24.834  -6.407  0.00  0.00    +0.136 A 
ATOM     19  O   UNL A   1      63.933 -23.539  -6.518  0.00  0.00    -0.452 OA
ENDBRANCH  10  11
ENDBRANCH   7  10
ENDBRANCH   1   8
BRANCH   4  20
ATOM     20  C   UNL A   1      58.675 -16.809 -12.265  0.00  0.00    +0.049 C 
BRANCH  20  21
ATOM     21  C   UNL A   1      57.627 -17.749 -12.814  0.00  0.00    -0.014 A 
ATOM     22  C   UNL A   1      57.970 -18.736 -13.760  0.00  0.00    -0.056 A 
ATOM     23  C   UNL A   1      57.013 -19.629 -14.251  0.00  0.00    -0.061 A 
ATOM     24  C   UNL A   1      55.702 -19.567 -13.793  0.00  0.00    -0.061 A 
ATOM     25  C   UNL A   1      55.345 -18.621 -12.836  0.00  0.00    -0.047 A 
ATOM     26  C   UNL A   1      56.300 -17.725 -12.343  0.00  0.00    +0.023 A 
ATOM     27 BR   UNL A   1      55.716 -16.504 -11.008  0.00  0.00    -0.050 Br
ENDBRANCH  20  21
ENDBRANCH   4  20
TORSDOF 5
ENDMDL
MODEL 11
REMARK VINA RESULT:    -7.379      7.246      9.804
REMARK INTER + INTRA:         -10.066
REMARK INTER:                  -9.414
REMARK INTRA:                  -0.652
REMARK UNBOUND:                -0.530
REMARK  Name = cpd138.pdb
REMARK  5 active torsions:
REMARK  status: ('A' for Active; 'I' for Inactive)
REMARK    1  A    between atoms: C_2  and  C_3
REMARK    2  A    between atoms: C_2  and  C_19
REMARK    3  A    between atoms: C_4  and  C_5
REMARK    4  A    between atoms: N_8  and  C_9
REMARK    5  A    between atoms: C_9  and  C_10
REMARK                            x       y       z     vdW  Elec       q    Type
REMARK                         _______ _______ _______ _____ _____    ______ ____
ROOT
ATOM      1  C   UNL A   1      34.784 -40.632 -31.689  0.00  0.00    -0.022 A 
ATOM      2  C   UNL A   1      35.562 -40.994 -30.591  0.00  0.00    -0.038 A 
ATOM      3  C   UNL A   1      36.117 -40.009 -29.781  0.00  0.00    +0.005 A 
ATOM      4  N   UNL A   1      35.908 -38.698 -30.045  0.00  0.00    -0.349 N 
ATOM      5  C   UNL A   1      35.133 -38.322 -31.088  0.00  0.00    +0.005 A 
ATOM      6  C   UNL A   1      34.559 -39.276 -31.922  0.00  0.00    -0.038 A 
ENDROOT
BRANCH   1   8
ATOM      7  C   UNL A   1      33.862 -41.402 -33.862  0.00  0.00    -0.011 C 
ATOM      8  C   UNL A   1      34.143 -41.621 -32.568  0.00  0.00    -0.051 C 
BRANCH   7  10
ATOM      9  O   UNL A   1      32.371 -41.846 -35.578  0.00  0.00    -0.284 OA
ATOM     10  C   UNL A   1      33.171 -42.353 -34.789  0.00  0.00    +0.221 C 
BRANCH  10  11
ATOM     11  C   UNL A   1      33.438 -43.777 -34.764  0.00  0.00    +0.176 A 
ATOM     12  C   UNL A   1      34.385 -44.513 -35.453  0.00  0.00    -0.005 A 
ATOM     13  C   UNL A   1      34.243 -45.864 -35.046  0.00  0.00    +0.021 A 
ATOM     14  C   UNL A   1      34.871 -47.081 -35.360  0.00  0.00    -0.051 A 
ATOM     15  C   UNL A   1      34.435 -48.249 -34.718  0.00  0.00    -0.061 A 
ATOM     16  C   UNL A   1      33.399 -48.211 -33.781  0.00  0.00    -0.058 A 
ATOM     17  C   UNL A   1      32.763 -47.009 -33.454  0.00  0.00    -0.019 A 
ATOM     18  C   UNL A   1      33.217 -45.868 -34.111  0.00  0.00    +0.136 A 
ATOM     19  O   UNL A   1      32.733 -44.608 -33.934  0.00  0.00    -0.452 OA
ENDBRANCH  10  11
ENDBRANCH   7  10
ENDBRANCH   1   8
BRANCH   4  20
ATOM     20  C   UNL A   1      36.497 -37.667 -29.147  0.00  0.00    +0.049 C 
BRANCH  20  21
ATOM     21  C   UNL A   1      38.007 -37.703 -29.125  0.00  0.00    -0.014 A 
ATOM     22  C   UNL A   1      38.694 -38.482 -28.172  0.00  0.00    -0.056 A 
ATOM     23  C   UNL A   1      40.091 -38.544 -28.163  0.00  0.00    -0.061 A 
ATOM     24  C   UNL A   1      40.826 -37.848 -29.114  0.00  0.00    -0.061 A 
ATOM     25  C   UNL A   1      40.170 -37.097 -30.085  0.00  0.00    -0.047 A 
ATOM     26  C   UNL A   1      38.772 -37.031 -30.097  0.00  0.00    +0.023 A 
ATOM     27 BR   UNL A   1      37.977 -36.012 -31.491  0.00  0.00    -0.050 Br
ENDBRANCH  20  21
ENDBRANCH   4  20
TORSDOF 5
ENDMDL
MODEL 12
REMARK VINA RESULT:    -7.355      5.880      9.704
REMARK INTER + INTRA:         -10.035
REMARK INTER:                  -9.285
REMARK INTRA:                  -0.750
REMARK UNBOUND:                -0.530
REMARK  Name = cpd138.pdb
REMARK  5 active torsions:
REMARK  status: ('A' for Active; 'I' for Inactive)
REMARK    1  A    between atoms: C_2  and  C_3
REMARK    2  A    between atoms: C_2  and  C_19
REMARK    3  A    between atoms: C_4  and  C_5
REMARK    4  A    between atoms: N_8  and  C_9
REMARK    5  A    between atoms: C_9  and  C_10
REMARK                            x       y       z     vdW  Elec       q    Type
REMARK                         _______ _______ _______ _____ _____    ______ ____
ROOT
ATOM      1  C   UNL A   1      30.503 -31.608 -30.469  0.00  0.00    -0.022 A 
ATOM      2  C   UNL A   1      29.267 -32.253 -30.521  0.00  0.00    -0.038 A 
ATOM      3  C   UNL A   1      28.135 -31.620 -30.019  0.00  0.00    +0.005 A 
ATOM      4  N   UNL A   1      28.217 -30.380 -29.480  0.00  0.00    -0.349 N 
ATOM      5  C   UNL A   1      29.398 -29.724 -29.444  0.00  0.00    +0.005 A 
ATOM      6  C   UNL A   1      30.555 -30.320 -29.936  0.00  0.00    -0.038 A 
ENDROOT
BRANCH   1   8
ATOM      7  C   UNL A   1      32.968 -31.862 -30.612  0.00  0.00    -0.011 C 
ATOM      8  C   UNL A   1      31.733 -32.205 -31.008  0.00  0.00    -0.051 C 
BRANCH   7  10
ATOM      9  O   UNL A   1      34.733 -31.783 -32.110  0.00  0.00    -0.284 OA
ATOM     10  C   UNL A   1      34.253 -32.403 -31.158  0.00  0.00    +0.221 C 
BRANCH  10  11
ATOM     11  C   UNL A   1      34.893 -33.572 -30.592  0.00  0.00    +0.176 A 
ATOM     12  C   UNL A   1      34.494 -34.380 -29.542  0.00  0.00    -0.005 A 
ATOM     13  C   UNL A   1      35.464 -35.406 -29.412  0.00  0.00    +0.021 A 
ATOM     14  C   UNL A   1      35.651 -36.511 -28.564  0.00  0.00    -0.051 A 
ATOM     15  C   UNL A   1      36.775 -37.327 -28.761  0.00  0.00    -0.061 A 
ATOM     16  C   UNL A   1      37.693 -37.055 -29.779  0.00  0.00    -0.058 A 
ATOM     17  C   UNL A   1      37.522 -35.961 -30.633  0.00  0.00    -0.019 A 
ATOM     18  C   UNL A   1      36.398 -35.169 -30.411  0.00  0.00    +0.136 A 
ATOM     19  O   UNL A   1      36.053 -34.066 -31.128  0.00  0.00    -0.452 OA
ENDBRANCH  10  11
ENDBRANCH   7  10
ENDBRANCH   1   8
BRANCH   4  20
ATOM     20  C   UNL A   1      26.984 -29.721 -28.971  0.00  0.00    +0.049 C 
BRANCH  20  21
ATOM     21  C   UNL A   1      27.134 -29.207 -27.559  0.00  0.00    -0.014 A 
ATOM     22  C   UNL A   1      27.210 -30.101 -26.472  0.00  0.00    -0.056 A 
ATOM     23  C   UNL A   1      27.379 -29.635 -25.165  0.00  0.00    -0.061 A 
ATOM     24  C   UNL A   1      27.495 -28.272 -24.920  0.00  0.00    -0.061 A 
ATOM     25  C   UNL A   1      27.453 -27.371 -25.980  0.00  0.00    -0.047 A 
ATOM     26  C   UNL A   1      27.284 -27.833 -27.290  0.00  0.00    +0.023 A 
ATOM     27 BR   UNL A   1      27.285 -26.521 -28.665  0.00  0.00    -0.050 Br
ENDBRANCH  20  21
ENDBRANCH   4  20
TORSDOF 5
ENDMDL
MODEL 13
REMARK VINA RESULT:    -7.290     16.913     18.597
REMARK INTER + INTRA:          -9.951
REMARK INTER:                  -9.564
REMARK INTRA:                  -0.387
REMARK UNBOUND:                -0.530
REMARK  Name = cpd138.pdb
REMARK  5 active torsions:
REMARK  status: ('A' for Active; 'I' for Inactive)
REMARK    1  A    between atoms: C_2  and  C_3
REMARK    2  A    between atoms: C_2  and  C_19
REMARK    3  A    between atoms: C_4  and  C_5
REMARK    4  A    between atoms: N_8  and  C_9
REMARK    5  A    between atoms: C_9  and  C_10
REMARK                            x       y       z     vdW  Elec       q    Type
REMARK                         _______ _______ _______ _____ _____    ______ ____
ROOT
ATOM      1  C   UNL A   1      43.077 -20.298 -36.460  0.00  0.00    -0.022 A 
ATOM      2  C   UNL A   1      41.743 -20.656 -36.271  0.00  0.00    -0.038 A 
ATOM      3  C   UNL A   1      41.185 -20.603 -34.999  0.00  0.00    +0.005 A 
ATOM      4  N   UNL A   1      41.924 -20.206 -33.935  0.00  0.00    -0.349 N 
ATOM      5  C   UNL A   1      43.212 -19.827 -34.097  0.00  0.00    +0.005 A 
ATOM      6  C   UNL A   1      43.808 -19.864 -35.354  0.00  0.00    -0.038 A 
ENDROOT
BRANCH   1   8
ATOM      7  C   UNL A   1      44.195 -19.201 -38.385  0.00  0.00    -0.011 C 
ATOM      8  C   UNL A   1      43.720 -20.301 -37.781  0.00  0.00    -0.051 C 
BRANCH   7  10
ATOM      9  O   UNL A   1      44.551 -18.134 -40.410  0.00  0.00    -0.284 OA
ATOM     10  C   UNL A   1      44.815 -19.138 -39.747  0.00  0.00    +0.221 C 
BRANCH  10  11
ATOM     11  C   UNL A   1      45.681 -20.189 -40.242  0.00  0.00    +0.176 A 
ATOM     12  C   UNL A   1      46.908 -20.623 -39.770  0.00  0.00    -0.005 A 
ATOM     13  C   UNL A   1      47.317 -21.699 -40.598  0.00  0.00    +0.021 A 
ATOM     14  C   UNL A   1      48.434 -22.550 -40.662  0.00  0.00    -0.051 A 
ATOM     15  C   UNL A   1      48.473 -23.534 -41.660  0.00  0.00    -0.061 A 
ATOM     16  C   UNL A   1      47.425 -23.674 -42.574  0.00  0.00    -0.058 A 
ATOM     17  C   UNL A   1      46.305 -22.837 -42.525  0.00  0.00    -0.019 A 
ATOM     18  C   UNL A   1      46.298 -21.869 -41.525  0.00  0.00    +0.136 A 
ATOM     19  O   UNL A   1      45.306 -20.962 -41.308  0.00  0.00    -0.452 OA
ENDBRANCH  10  11
ENDBRANCH   7  10
ENDBRANCH   1   8
BRANCH   4  20
ATOM     20  C   UNL A   1      41.293 -20.139 -32.589  0.00  0.00    +0.049 C 
BRANCH  20  21
ATOM     21  C   UNL A   1      39.798 -20.357 -32.631  0.00  0.00    -0.014 A 
ATOM     22  C   UNL A   1      38.914 -19.264 -32.735  0.00  0.00    -0.056 A 
ATOM     23  C   UNL A   1      37.532 -19.459 -32.805  0.00  0.00    -0.061 A 
ATOM     24  C   UNL A   1      37.007 -20.745 -32.791  0.00  0.00    -0.061 A 
ATOM     25  C   UNL A   1      37.861 -21.842 -32.719  0.00  0.00    -0.047 A 
ATOM     26  C   UNL A   1      39.245 -21.652 -32.649  0.00  0.00    +0.023 A 
ATOM     27 BR   UNL A   1      40.321 -23.218 -32.598  0.00  0.00    -0.050 Br
ENDBRANCH  20  21
ENDBRANCH   4  20
TORSDOF 5
ENDMDL
MODEL 14
REMARK VINA RESULT:    -7.102      5.803      7.732
REMARK INTER + INTRA:          -9.708
REMARK INTER:                  -8.970
REMARK INTRA:                  -0.738
REMARK UNBOUND:                -0.530
REMARK  Name = cpd138.pdb
REMARK  5 active torsions:
REMARK  status: ('A' for Active; 'I' for Inactive)
REMARK    1  A    between atoms: C_2  and  C_3
REMARK    2  A    between atoms: C_2  and  C_19
REMARK    3  A    between atoms: C_4  and  C_5
REMARK    4  A    between atoms: N_8  and  C_9
REMARK    5  A    between atoms: C_9  and  C_10
REMARK                            x       y       z     vdW  Elec       q    Type
REMARK                         _______ _______ _______ _____ _____    ______ ____
ROOT
ATOM      1  C   UNL A   1      34.438 -40.333 -31.473  0.00  0.00    -0.022 A 
ATOM      2  C   UNL A   1      33.180 -40.754 -31.045  0.00  0.00    -0.038 A 
ATOM      3  C   UNL A   1      32.529 -41.784 -31.716  0.00  0.00    +0.005 A 
ATOM      4  N   UNL A   1      33.106 -42.387 -32.784  0.00  0.00    -0.349 N 
ATOM      5  C   UNL A   1      34.337 -42.015 -33.200  0.00  0.00    +0.005 A 
ATOM      6  C   UNL A   1      35.023 -40.990 -32.556  0.00  0.00    -0.038 A 
ENDROOT
BRANCH   1   8
ATOM      7  C   UNL A   1      36.193 -39.503 -29.927  0.00  0.00    -0.011 C 
ATOM      8  C   UNL A   1      35.194 -39.273 -30.792  0.00  0.00    -0.051 C 
BRANCH   7  10
ATOM      9  O   UNL A   1      36.676 -38.349 -27.977  0.00  0.00    -0.284 OA
ATOM     10  C   UNL A   1      36.964 -38.466 -29.170  0.00  0.00    +0.221 C 
BRANCH  10  11
ATOM     11  C   UNL A   1      37.991 -37.664 -29.803  0.00  0.00    +0.176 A 
ATOM     12  C   UNL A   1      37.876 -36.661 -30.749  0.00  0.00    -0.005 A 
ATOM     13  C   UNL A   1      39.183 -36.180 -31.011  0.00  0.00    +0.021 A 
ATOM     14  C   UNL A   1      39.746 -35.201 -31.848  0.00  0.00    -0.051 A 
ATOM     15  C   UNL A   1      41.135 -35.009 -31.818  0.00  0.00    -0.061 A 
ATOM     16  C   UNL A   1      41.950 -35.769 -30.974  0.00  0.00    -0.058 A 
ATOM     17  C   UNL A   1      41.407 -36.746 -30.133  0.00  0.00    -0.019 A 
ATOM     18  C   UNL A   1      40.025 -36.915 -30.188  0.00  0.00    +0.136 A 
ATOM     19  O   UNL A   1      39.308 -37.807 -29.453  0.00  0.00    -0.452 OA
ENDBRANCH  10  11
ENDBRANCH   7  10
ENDBRANCH   1   8
BRANCH   4  20
ATOM     20  C   UNL A   1      32.394 -43.500 -33.468  0.00  0.00    +0.049 C 
BRANCH  20  21
ATOM     21  C   UNL A   1      32.152 -43.229 -34.934  0.00  0.00    -0.014 A 
ATOM     22  C   UNL A   1      31.177 -42.295 -35.342  0.00  0.00    -0.056 A 
ATOM     23  C   UNL A   1      30.967 -42.016 -36.695  0.00  0.00    -0.061 A 
ATOM     24  C   UNL A   1      31.738 -42.646 -37.665  0.00  0.00    -0.061 A 
ATOM     25  C   UNL A   1      32.727 -43.549 -37.286  0.00  0.00    -0.047 A 
ATOM     26  C   UNL A   1      32.940 -43.832 -35.933  0.00  0.00    +0.023 A 
ATOM     27 BR   UNL A   1      34.345 -45.046 -35.525  0.00  0.00    -0.050 Br
ENDBRANCH  20  21
ENDBRANCH   4  20
TORSDOF 5
ENDMDL
MODEL 15
REMARK VINA RESULT:    -7.099     17.134     18.838
REMARK INTER + INTRA:          -9.704
REMARK INTER:                  -9.087
REMARK INTRA:                  -0.617
REMARK UNBOUND:                -0.530
REMARK  Name = cpd138.pdb
REMARK  5 active torsions:
REMARK  status: ('A' for Active; 'I' for Inactive)
REMARK    1  A    between atoms: C_2  and  C_3
REMARK    2  A    between atoms: C_2  and  C_19
REMARK    3  A    between atoms: C_4  and  C_5
REMARK    4  A    between atoms: N_8  and  C_9
REMARK    5  A    between atoms: C_9  and  C_10
REMARK                            x       y       z     vdW  Elec       q    Type
REMARK                         _______ _______ _______ _____ _____    ______ ____
ROOT
ATOM      1  C   UNL A   1      42.642 -19.653 -36.607  0.00  0.00    -0.022 A 
ATOM      2  C   UNL A   1      42.929 -18.761 -35.575  0.00  0.00    -0.038 A 
ATOM      3  C   UNL A   1      42.345 -18.938 -34.325  0.00  0.00    +0.005 A 
ATOM      4  N   UNL A   1      41.500 -19.971 -34.097  0.00  0.00    -0.349 N 
ATOM      5  C   UNL A   1      41.228 -20.865 -35.074  0.00  0.00    +0.005 A 
ATOM      6  C   UNL A   1      41.792 -20.726 -36.338  0.00  0.00    -0.038 A 
ENDROOT
BRANCH   1   8
ATOM      7  C   UNL A   1      44.565 -19.409 -38.158  0.00  0.00    -0.011 C 
ATOM      8  C   UNL A   1      43.248 -19.543 -37.942  0.00  0.00    -0.051 C 
BRANCH   7  10
ATOM      9  O   UNL A   1      45.118 -18.136 -40.012  0.00  0.00    -0.284 OA
ATOM     10  C   UNL A   1      45.231 -19.246 -39.489  0.00  0.00    +0.221 C 
BRANCH  10  11
ATOM     11  C   UNL A   1      45.970 -20.325 -40.112  0.00  0.00    +0.176 A 
ATOM     12  C   UNL A   1      47.180 -20.894 -39.753  0.00  0.00    -0.005 A 
ATOM     13  C   UNL A   1      47.444 -21.935 -40.679  0.00  0.00    +0.021 A 
ATOM     14  C   UNL A   1      48.475 -22.869 -40.875  0.00  0.00    -0.051 A 
ATOM     15  C   UNL A   1      48.368 -23.775 -41.940  0.00  0.00    -0.061 A 
ATOM     16  C   UNL A   1      47.260 -23.759 -42.791  0.00  0.00    -0.058 A 
ATOM     17  C   UNL A   1      46.223 -22.838 -42.610  0.00  0.00    -0.019 A 
ATOM     18  C   UNL A   1      46.360 -21.949 -41.546  0.00  0.00    +0.136 A 
ATOM     19  O   UNL A   1      45.466 -20.983 -41.203  0.00  0.00    -0.452 OA
ENDBRANCH  10  11
ENDBRANCH   7  10
ENDBRANCH   1   8
BRANCH   4  20
ATOM     20  C   UNL A   1      40.908 -20.147 -32.743  0.00  0.00    +0.049 C 
BRANCH  20  21
ATOM     21  C   UNL A   1      39.399 -20.221 -32.767  0.00  0.00    -0.014 A 
ATOM     22  C   UNL A   1      38.740 -21.467 -32.748  0.00  0.00    -0.056 A 
ATOM     23  C   UNL A   1      37.344 -21.544 -32.741  0.00  0.00    -0.061 A 
ATOM     24  C   UNL A   1      36.581 -20.382 -32.732  0.00  0.00    -0.061 A 
ATOM     25  C   UNL A   1      37.209 -19.140 -32.720  0.00  0.00    -0.047 A 
ATOM     26  C   UNL A   1      38.606 -19.058 -32.729  0.00  0.00    +0.023 A 
ATOM     27 BR   UNL A   1      39.359 -17.314 -32.667  0.00  0.00    -0.050 Br
ENDBRANCH  20  21
ENDBRANCH   4  20
TORSDOF 5
ENDMDL
MODEL 16
REMARK VINA RESULT:    -7.077      6.372     13.024
REMARK INTER + INTRA:          -9.676
REMARK INTER:                  -9.208
REMARK INTRA:                  -0.468
REMARK UNBOUND:                -0.530
REMARK  Name = cpd138.pdb
REMARK  5 active torsions:
REMARK  status: ('A' for Active; 'I' for Inactive)
REMARK    1  A    between atoms: C_2  and  C_3
REMARK    2  A    between atoms: C_2  and  C_19
REMARK    3  A    between atoms: C_4  and  C_5
REMARK    4  A    between atoms: N_8  and  C_9
REMARK    5  A    between atoms: C_9  and  C_10
REMARK                            x       y       z     vdW  Elec       q    Type
REMARK                         _______ _______ _______ _____ _____    ______ ____
ROOT
ATOM      1  C   UNL A   1      32.614 -32.789 -31.054  0.00  0.00    -0.022 A 
ATOM      2  C   UNL A   1      33.712 -32.276 -30.366  0.00  0.00    -0.038 A 
ATOM      3  C   UNL A   1      34.910 -32.982 -30.349  0.00  0.00    +0.005 A 
ATOM      4  N   UNL A   1      35.024 -34.166 -30.998  0.00  0.00    -0.349 N 
ATOM      5  C   UNL A   1      33.981 -34.670 -31.695  0.00  0.00    +0.005 A 
ATOM      6  C   UNL A   1      32.766 -33.995 -31.738  0.00  0.00    -0.038 A 
ENDROOT
BRANCH   1   8
ATOM      7  C   UNL A   1      31.164 -30.788 -30.817  0.00  0.00    -0.011 C 
ATOM      8  C   UNL A   1      31.328 -32.080 -31.138  0.00  0.00    -0.051 C 
BRANCH   7  10
ATOM      9  O   UNL A   1      29.670 -29.346 -31.844  0.00  0.00    -0.284 OA
ATOM     10  C   UNL A   1      29.872 -30.030 -30.838  0.00  0.00    +0.221 C 
BRANCH  10  11
ATOM     11  C   UNL A   1      28.920 -30.109 -29.750  0.00  0.00    +0.176 A 
ATOM     12  C   UNL A   1      27.942 -31.055 -29.494  0.00  0.00    -0.005 A 
ATOM     13  C   UNL A   1      27.305 -30.681 -28.284  0.00  0.00    +0.021 A 
ATOM     14  C   UNL A   1      26.259 -31.194 -27.498  0.00  0.00    -0.051 A 
ATOM     15  C   UNL A   1      25.910 -30.518 -26.320  0.00  0.00    -0.061 A 
ATOM     16  C   UNL A   1      26.585 -29.360 -25.927  0.00  0.00    -0.058 A 
ATOM     17  C   UNL A   1      27.629 -28.835 -26.696  0.00  0.00    -0.019 A 
ATOM     18  C   UNL A   1      27.951 -29.527 -27.861  0.00  0.00    +0.136 A 
ATOM     19  O   UNL A   1      28.930 -29.183 -28.740  0.00  0.00    -0.452 OA
ENDBRANCH  10  11
ENDBRANCH   7  10
ENDBRANCH   1   8
BRANCH   4  20
ATOM     20  C   UNL A   1      36.326 -34.887 -30.980  0.00  0.00    +0.049 C 
BRANCH  20  21
ATOM     21  C   UNL A   1      36.443 -35.856 -29.826  0.00  0.00    -0.014 A 
ATOM     22  C   UNL A   1      35.378 -36.028 -28.919  0.00  0.00    -0.056 A 
ATOM     23  C   UNL A   1      35.467 -36.944 -27.867  0.00  0.00    -0.061 A 
ATOM     24  C   UNL A   1      36.610 -37.719 -27.712  0.00  0.00    -0.061 A 
ATOM     25  C   UNL A   1      37.663 -37.590 -28.613  0.00  0.00    -0.047 A 
ATOM     26  C   UNL A   1      37.579 -36.674 -29.667  0.00  0.00    +0.023 A 
ATOM     27 BR   UNL A   1      39.054 -36.609 -30.863  0.00  0.00    -0.050 Br
ENDBRANCH  20  21
ENDBRANCH   4  20
TORSDOF 5
ENDMDL
MODEL 17
REMARK VINA RESULT:    -7.051      6.050      8.388
REMARK INTER + INTRA:          -9.642
REMARK INTER:                  -9.053
REMARK INTRA:                  -0.589
REMARK UNBOUND:                -0.530
REMARK  Name = cpd138.pdb
REMARK  5 active torsions:
REMARK  status: ('A' for Active; 'I' for Inactive)
REMARK    1  A    between atoms: C_2  and  C_3
REMARK    2  A    between atoms: C_2  and  C_19
REMARK    3  A    between atoms: C_4  and  C_5
REMARK    4  A    between atoms: N_8  and  C_9
REMARK    5  A    between atoms: C_9  and  C_10
REMARK                            x       y       z     vdW  Elec       q    Type
REMARK                         _______ _______ _______ _____ _____    ______ ____
ROOT
ATOM      1  C   UNL A   1      33.694 -37.443 -26.437  0.00  0.00    -0.022 A 
ATOM      2  C   UNL A   1      33.268 -36.666 -25.360  0.00  0.00    -0.038 A 
ATOM      3  C   UNL A   1      32.781 -37.282 -24.212  0.00  0.00    +0.005 A 
ATOM      4  N   UNL A   1      32.717 -38.632 -24.126  0.00  0.00    -0.349 N 
ATOM      5  C   UNL A   1      33.150 -39.407 -25.146  0.00  0.00    +0.005 A 
ATOM      6  C   UNL A   1      33.645 -38.831 -26.312  0.00  0.00    -0.038 A 
ENDROOT
BRANCH   1   8
ATOM      7  C   UNL A   1      34.600 -37.575 -28.744  0.00  0.00    -0.011 C 
ATOM      8  C   UNL A   1      34.247 -36.858 -27.667  0.00  0.00    -0.051 C 
BRANCH   7  10
ATOM      9  O   UNL A   1      34.414 -36.637 -30.854  0.00  0.00    -0.284 OA
ATOM     10  C   UNL A   1      35.210 -37.039 -30.003  0.00  0.00    +0.221 C 
BRANCH  10  11
ATOM     11  C   UNL A   1      36.644 -36.988 -30.195  0.00  0.00    +0.176 A 
ATOM     12  C   UNL A   1      37.655 -37.631 -29.503  0.00  0.00    -0.005 A 
ATOM     13  C   UNL A   1      38.881 -37.260 -30.113  0.00  0.00    +0.021 A 
ATOM     14  C   UNL A   1      40.239 -37.549 -29.897  0.00  0.00    -0.051 A 
ATOM     15  C   UNL A   1      41.193 -36.973 -30.749  0.00  0.00    -0.061 A 
ATOM     16  C   UNL A   1      40.808 -36.130 -31.795  0.00  0.00    -0.058 A 
ATOM     17  C   UNL A   1      39.461 -35.832 -32.026  0.00  0.00    -0.019 A 
ATOM     18  C   UNL A   1      38.539 -36.418 -31.162  0.00  0.00    +0.136 A 
ATOM     19  O   UNL A   1      37.189 -36.256 -31.217  0.00  0.00    -0.452 OA
ENDBRANCH  10  11
ENDBRANCH   7  10
ENDBRANCH   1   8
BRANCH   4  20
ATOM     20  C   UNL A   1      32.212 -39.263 -22.876  0.00  0.00    +0.049 C 
BRANCH  20  21
ATOM     21  C   UNL A   1      33.240 -40.144 -22.207  0.00  0.00    -0.014 A 
ATOM     22  C   UNL A   1      33.258 -41.534 -22.441  0.00  0.00    -0.056 A 
ATOM     23  C   UNL A   1      34.224 -42.353 -21.849  0.00  0.00    -0.061 A 
ATOM     24  C   UNL A   1      35.202 -41.799 -21.031  0.00  0.00    -0.061 A 
ATOM     25  C   UNL A   1      35.224 -40.425 -20.809  0.00  0.00    -0.047 A 
ATOM     26  C   UNL A   1      34.258 -39.602 -21.398  0.00  0.00    +0.023 A 
ATOM     27 BR   UNL A   1      34.406 -37.737 -21.065  0.00  0.00    -0.050 Br
ENDBRANCH  20  21
ENDBRANCH   4  20
TORSDOF 5
ENDMDL
MODEL 18
REMARK VINA RESULT:    -6.975      7.138      9.971
REMARK INTER + INTRA:          -9.544
REMARK INTER:                  -8.862
REMARK INTRA:                  -0.682
REMARK UNBOUND:                -0.530
REMARK  Name = cpd138.pdb
REMARK  5 active torsions:
REMARK  status: ('A' for Active; 'I' for Inactive)
REMARK    1  A    between atoms: C_2  and  C_3
REMARK    2  A    between atoms: C_2  and  C_19
REMARK    3  A    between atoms: C_4  and  C_5
REMARK    4  A    between atoms: N_8  and  C_9
REMARK    5  A    between atoms: C_9  and  C_10
REMARK                            x       y       z     vdW  Elec       q    Type
REMARK                         _______ _______ _______ _____ _____    ______ ____
ROOT
ATOM      1  C   UNL A   1      34.236 -39.234 -31.654  0.00  0.00    -0.022 A 
ATOM      2  C   UNL A   1      34.146 -37.845 -31.734  0.00  0.00    -0.038 A 
ATOM      3  C   UNL A   1      35.107 -37.052 -31.115  0.00  0.00    +0.005 A 
ATOM      4  N   UNL A   1      36.134 -37.615 -30.434  0.00  0.00    -0.349 N 
ATOM      5  C   UNL A   1      36.258 -38.960 -30.366  0.00  0.00    +0.005 A 
ATOM      6  C   UNL A   1      35.319 -39.789 -30.972  0.00  0.00    -0.038 A 
ENDROOT
BRANCH   1   8
ATOM      7  C   UNL A   1      33.505 -40.754 -33.476  0.00  0.00    -0.011 C 
ATOM      8  C   UNL A   1      33.273 -40.130 -32.310  0.00  0.00    -0.051 C 
BRANCH   7  10
ATOM      9  O   UNL A   1      31.429 -41.159 -34.421  0.00  0.00    -0.284 OA
ATOM     10  C   UNL A   1      32.546 -41.638 -34.211  0.00  0.00    +0.221 C 
BRANCH  10  11
ATOM     11  C   UNL A   1      32.916 -42.966 -34.655  0.00  0.00    +0.176 A 
ATOM     12  C   UNL A   1      34.169 -43.507 -34.883  0.00  0.00    -0.005 A 
ATOM     13  C   UNL A   1      33.977 -44.855 -35.278  0.00  0.00    +0.021 A 
ATOM     14  C   UNL A   1      34.812 -45.923 -35.649  0.00  0.00    -0.051 A 
ATOM     15  C   UNL A   1      34.224 -47.153 -35.979  0.00  0.00    -0.061 A 
ATOM     16  C   UNL A   1      32.837 -47.322 -35.939  0.00  0.00    -0.058 A 
ATOM     17  C   UNL A   1      31.991 -46.271 -35.571  0.00  0.00    -0.019 A 
ATOM     18  C   UNL A   1      32.605 -45.062 -35.252  0.00  0.00    +0.136 A 
ATOM     19  O   UNL A   1      31.962 -43.925 -34.870  0.00  0.00    -0.452 OA
ENDBRANCH  10  11
ENDBRANCH   7  10
ENDBRANCH   1   8
BRANCH   4  20
ATOM     20  C   UNL A   1      37.158 -36.741 -29.801  0.00  0.00    +0.049 C 
BRANCH  20  21
ATOM     21  C   UNL A   1      38.388 -36.562 -30.659  0.00  0.00    -0.014 A 
ATOM     22  C   UNL A   1      38.346 -35.765 -31.821  0.00  0.00    -0.056 A 
ATOM     23  C   UNL A   1      39.486 -35.570 -32.605  0.00  0.00    -0.061 A 
ATOM     24  C   UNL A   1      40.694 -36.149 -32.234  0.00  0.00    -0.061 A 
ATOM     25  C   UNL A   1      40.769 -36.915 -31.075  0.00  0.00    -0.047 A 
ATOM     26  C   UNL A   1      39.630 -37.114 -30.288  0.00  0.00    +0.023 A 
ATOM     27 BR   UNL A   1      39.853 -38.140 -28.704  0.00  0.00    -0.050 Br
ENDBRANCH  20  21
ENDBRANCH   4  20
TORSDOF 5
ENDMDL
MODEL 19
REMARK VINA RESULT:    -6.963     17.879     20.831
REMARK INTER + INTRA:          -9.529
REMARK INTER:                  -8.803
REMARK INTRA:                  -0.726
REMARK UNBOUND:                -0.530
REMARK  Name = cpd138.pdb
REMARK  5 active torsions:
REMARK  status: ('A' for Active; 'I' for Inactive)
REMARK    1  A    between atoms: C_2  and  C_3
REMARK    2  A    between atoms: C_2  and  C_19
REMARK    3  A    between atoms: C_4  and  C_5
REMARK    4  A    between atoms: N_8  and  C_9
REMARK    5  A    between atoms: C_9  and  C_10
REMARK                            x       y       z     vdW  Elec       q    Type
REMARK                         _______ _______ _______ _____ _____    ______ ____
ROOT
ATOM      1  C   UNL A   1      44.277 -18.245 -36.675  0.00  0.00    -0.022 A 
ATOM      2  C   UNL A   1      44.983 -19.443 -36.772  0.00  0.00    -0.038 A 
ATOM      3  C   UNL A   1      45.762 -19.699 -37.896  0.00  0.00    +0.005 A 
ATOM      4  N   UNL A   1      45.844 -18.794 -38.901  0.00  0.00    -0.349 N 
ATOM      5  C   UNL A   1      45.191 -17.613 -38.816  0.00  0.00    +0.005 A 
ATOM      6  C   UNL A   1      44.403 -17.317 -37.709  0.00  0.00    -0.038 A 
ENDROOT
BRANCH   1   8
ATOM      7  C   UNL A   1      43.114 -18.773 -34.547  0.00  0.00    -0.011 C 
ATOM      8  C   UNL A   1      43.461 -17.898 -35.503  0.00  0.00    -0.051 C 
BRANCH   7  10
ATOM      9  O   UNL A   1      42.719 -17.707 -32.529  0.00  0.00    -0.284 OA
ATOM     10  C   UNL A   1      42.248 -18.487 -33.359  0.00  0.00    +0.221 C 
BRANCH  10  11
ATOM     11  C   UNL A   1      40.936 -19.082 -33.207  0.00  0.00    +0.176 A 
ATOM     12  C   UNL A   1      39.730 -18.495 -32.871  0.00  0.00    -0.005 A 
ATOM     13  C   UNL A   1      38.747 -19.517 -32.888  0.00  0.00    +0.021 A 
ATOM     14  C   UNL A   1      37.366 -19.589 -32.640  0.00  0.00    -0.051 A 
ATOM     15  C   UNL A   1      36.723 -20.828 -32.771  0.00  0.00    -0.061 A 
ATOM     16  C   UNL A   1      37.434 -21.973 -33.142  0.00  0.00    -0.058 A 
ATOM     17  C   UNL A   1      38.809 -21.920 -33.393  0.00  0.00    -0.019 A 
ATOM     18  C   UNL A   1      39.418 -20.676 -33.253  0.00  0.00    +0.136 A 
ATOM     19  O   UNL A   1      40.739 -20.415 -33.452  0.00  0.00    -0.452 OA
ENDBRANCH  10  11
ENDBRANCH   7  10
ENDBRANCH   1   8
BRANCH   4  20
ATOM     20  C   UNL A   1      46.703 -19.086 -40.080  0.00  0.00    +0.049 C 
BRANCH  20  21
ATOM     21  C   UNL A   1      46.087 -20.099 -41.017  0.00  0.00    -0.014 A 
ATOM     22  C   UNL A   1      45.077 -19.720 -41.925  0.00  0.00    -0.056 A 
ATOM     23  C   UNL A   1      44.523 -20.643 -42.815  0.00  0.00    -0.061 A 
ATOM     24  C   UNL A   1      44.978 -21.957 -42.831  0.00  0.00    -0.061 A 
ATOM     25  C   UNL A   1      45.995 -22.348 -41.966  0.00  0.00    -0.047 A 
ATOM     26  C   UNL A   1      46.552 -21.427 -41.072  0.00  0.00    +0.023 A 
ATOM     27 BR   UNL A   1      47.964 -22.057 -39.966  0.00  0.00    -0.050 Br
ENDBRANCH  20  21
ENDBRANCH   4  20
TORSDOF 5
ENDMDL
MODEL 20
REMARK VINA RESULT:    -6.878     17.593     20.630
REMARK INTER + INTRA:          -9.419
REMARK INTER:                  -8.754
REMARK INTRA:                  -0.664
REMARK UNBOUND:                -0.530
REMARK  Name = cpd138.pdb
REMARK  5 active torsions:
REMARK  status: ('A' for Active; 'I' for Inactive)
REMARK    1  A    between atoms: C_2  and  C_3
REMARK    2  A    between atoms: C_2  and  C_19
REMARK    3  A    between atoms: C_4  and  C_5
REMARK    4  A    between atoms: N_8  and  C_9
REMARK    5  A    between atoms: C_9  and  C_10
REMARK                            x       y       z     vdW  Elec       q    Type
REMARK                         _______ _______ _______ _____ _____    ______ ____
ROOT
ATOM      1  C   UNL A   1      42.657 -19.376 -37.898  0.00  0.00    -0.022 A 
ATOM      2  C   UNL A   1      43.165 -18.254 -38.551  0.00  0.00    -0.038 A 
ATOM      3  C   UNL A   1      43.680 -18.375 -39.837  0.00  0.00    +0.005 A 
ATOM      4  N   UNL A   1      43.693 -19.573 -40.467  0.00  0.00    -0.349 N 
ATOM      5  C   UNL A   1      43.180 -20.671 -39.865  0.00  0.00    +0.005 A 
ATOM      6  C   UNL A   1      42.654 -20.593 -38.580  0.00  0.00    -0.038 A 
ENDROOT
BRANCH   1   8
ATOM      7  C   UNL A   1      42.791 -19.212 -35.425  0.00  0.00    -0.011 C 
ATOM      8  C   UNL A   1      42.070 -19.313 -36.552  0.00  0.00    -0.051 C 
BRANCH   7  10
ATOM      9  O   UNL A   1      43.013 -18.754 -33.165  0.00  0.00    -0.284 OA
ATOM     10  C   UNL A   1      42.250 -19.191 -34.029  0.00  0.00    +0.221 C 
BRANCH  10  11
ATOM     11  C   UNL A   1      40.909 -19.645 -33.721  0.00  0.00    +0.176 A 
ATOM     12  C   UNL A   1      39.783 -18.917 -33.378  0.00  0.00    -0.005 A 
ATOM     13  C   UNL A   1      38.722 -19.842 -33.209  0.00  0.00    +0.021 A 
ATOM     14  C   UNL A   1      37.362 -19.761 -32.864  0.00  0.00    -0.051 A 
ATOM     15  C   UNL A   1      36.612 -20.945 -32.803  0.00  0.00    -0.061 A 
ATOM     16  C   UNL A   1      37.197 -22.183 -33.080  0.00  0.00    -0.058 A 
ATOM     17  C   UNL A   1      38.549 -22.283 -33.427  0.00  0.00    -0.019 A 
ATOM     18  C   UNL A   1      39.267 -21.091 -33.476  0.00  0.00    +0.136 A 
ATOM     19  O   UNL A   1      40.585 -20.974 -33.791  0.00  0.00    -0.452 OA
ENDBRANCH  10  11
ENDBRANCH   7  10
ENDBRANCH   1   8
BRANCH   4  20
ATOM     20  C   UNL A   1      44.231 -19.667 -41.851  0.00  0.00    +0.049 C 
BRANCH  20  21
ATOM     21  C   UNL A   1      45.420 -20.593 -41.957  0.00  0.00    -0.014 A 
ATOM     22  C   UNL A   1      45.282 -21.881 -42.512  0.00  0.00    -0.056 A 
ATOM     23  C   UNL A   1      46.383 -22.732 -42.641  0.00  0.00    -0.061 A 
ATOM     24  C   UNL A   1      47.644 -22.309 -42.237  0.00  0.00    -0.061 A 
ATOM     25  C   UNL A   1      47.811 -21.030 -41.714  0.00  0.00    -0.047 A 
ATOM     26  C   UNL A   1      46.712 -20.174 -41.582  0.00  0.00    +0.023 A 
ATOM     27 BR   UNL A   1      47.059 -18.436 -40.897  0.00  0.00    -0.050 Br
ENDBRANCH  20  21
ENDBRANCH   4  20
TORSDOF 5
ENDMDL
