REMARK  Name = cpd138.pdb
REMARK  5 active torsions:
REMARK  status: ('A' for Active; 'I' for Inactive)
REMARK    1  A    between atoms: C_2  and  C_3
REMARK    2  A    between atoms: C_2  and  C_19
REMARK    3  A    between atoms: C_4  and  C_5
REMARK    4  A    between atoms: N_8  and  C_9
REMARK    5  A    between atoms: C_9  and  C_10
REMARK                            x       y       z     vdW  Elec       q    Type
REMARK                         _______ _______ _______ _____ _____    ______ ____
ROOT
ATOM      1  C   UNL A   1       2.852   0.501  -0.025  0.00  0.00    -0.022 A 
ATOM      2  C   UNL A   1       3.743   0.367   1.039  0.00  0.00    -0.038 A 
ATOM      3  C   UNL A   1       4.910   1.123   1.064  0.00  0.00    +0.005 A 
ATOM      4  N   UNL A   1       5.192   1.993   0.065  0.00  0.00    -0.349 N 
ATOM      5  C   UNL A   1       4.330   2.161  -0.963  0.00  0.00    +0.005 A 
ATOM      6  C   UNL A   1       3.151   1.425  -1.026  0.00  0.00    -0.038 A 
ENDROOT
BRANCH   1   8
ATOM      7  C   UNL A   1       1.436  -1.507   0.328  0.00  0.00    -0.011 C 
ATOM      8  C   UNL A   1       1.587  -0.244  -0.099  0.00  0.00    -0.051 C 
BRANCH   7  10
ATOM      9  O   UNL A   1       0.349  -3.550   0.223  0.00  0.00    -0.284 OA
ATOM     10  C   UNL A   1       0.187  -2.328   0.235  0.00  0.00    +0.221 C 
BRANCH  10  11
ATOM     11  C   UNL A   1      -1.126  -1.719   0.176  0.00  0.00    +0.176 A 
ATOM     12  C   UNL A   1      -2.358  -2.292  -0.086  0.00  0.00    -0.005 A 
ATOM     13  C   UNL A   1      -3.327  -1.261   0.006  0.00  0.00    +0.021 A 
ATOM     14  C   UNL A   1      -4.721  -1.174  -0.149  0.00  0.00    -0.051 A 
ATOM     15  C   UNL A   1      -5.342   0.070   0.036  0.00  0.00    -0.061 A 
ATOM     16  C   UNL A   1      -4.597   1.204   0.371  0.00  0.00    -0.058 A 
ATOM     17  C   UNL A   1      -3.209   1.136   0.531  0.00  0.00    -0.019 A 
ATOM     18  C   UNL A   1      -2.622  -0.112   0.338  0.00  0.00    +0.136 A 
ATOM     19  O   UNL A   1      -1.294  -0.387   0.447  0.00  0.00    -0.452 OA
ENDBRANCH  10  11
ENDBRANCH   7  10
ENDBRANCH   1   8
BRANCH   4  20
ATOM     20  C   UNL A   1       6.438   2.804   0.131  0.00  0.00    +0.049 C 
BRANCH  20  21
ATOM     21  C   UNL A   1       7.685   1.983  -0.100  0.00  0.00    -0.014 A 
ATOM     22  C   UNL A   1       7.679   0.905  -1.008  0.00  0.00    -0.056 A 
ATOM     23  C   UNL A   1       8.836   0.159  -1.250  0.00  0.00    -0.061 A 
ATOM     24  C   UNL A   1      10.024   0.486  -0.607  0.00  0.00    -0.061 A 
ATOM     25  C   UNL A   1      10.063   1.565   0.271  0.00  0.00    -0.047 A 
ATOM     26  C   UNL A   1       8.907   2.314   0.517  0.00  0.00    +0.023 A 
ATOM     27 BR   UNL A   1       9.082   3.792   1.699  0.00  0.00    -0.050 Br
ENDBRANCH  20  21
ENDBRANCH   4  20
TORSDOF 5
