REMARK  Name = cpd139.pdb
REMARK  9 active torsions:
REMARK  status: ('A' for Active; 'I' for Inactive)
REMARK    1  A    between atoms: C_1  and  C_2
REMARK    2  A    between atoms: C_2  and  C_4
REMARK    3  A    between atoms: C_4  and  C_5
REMARK    4  A    between atoms: N_7  and  C_8
REMARK    5  A    between atoms: C_8  and  C_9
REMARK    6  A    between atoms: C_9  and  C_10
REMARK    7  A    between atoms: C_10  and  C_11
REMARK    8  A    between atoms: C_11  and  N_12
REMARK    9  A    between atoms: N_12  and  C_13
REMARK                            x       y       z     vdW  Elec       q    Type
REMARK                         _______ _______ _______ _____ _____    ______ ____
ROOT
ATOM      1  N   UNL A   1       1.807  -0.380  -1.190  0.00  0.00    -0.343 N 
ATOM      2  H   UNL A   1       1.515  -0.678  -2.082  0.00  0.00    +0.000 HD
ENDROOT
BRANCH   1   3
ATOM      3  C   UNL A   1       1.622   0.944  -0.689  0.00  0.00    +0.041 A 
ATOM      4  C   UNL A   1       0.413   1.307  -0.058  0.00  0.00    -0.005 A 
ATOM      5  C   UNL A   1       0.316   2.603   0.456  0.00  0.00    +0.047 A 
ATOM      6  N   UNL A   1       1.336   3.493   0.425  0.00  0.00    -0.251 NA
ATOM      7  C   UNL A   1       2.488   3.142  -0.162  0.00  0.00    +0.073 A 
ATOM      8  C   UNL A   1       3.518   4.074  -0.196  0.00  0.00    -0.036 A 
ATOM      9  C   UNL A   1       4.746   3.800  -0.802  0.00  0.00    -0.060 A 
ATOM     10  C   UNL A   1       4.953   2.565  -1.399  0.00  0.00    -0.061 A 
ATOM     11  C   UNL A   1       3.934   1.615  -1.374  0.00  0.00    -0.051 A 
ATOM     12  C   UNL A   1       2.693   1.877  -0.745  0.00  0.00    +0.021 A 
ATOM     13  C   UNL A   1      -0.930   3.094   1.147  0.00  0.00    -0.010 C 
ATOM     14  C   UNL A   1      -2.171   2.282   0.799  0.00  0.00    -0.047 C 
ATOM     15  C   UNL A   1      -1.874   0.799   0.960  0.00  0.00    -0.049 C 
ATOM     16  C   UNL A   1      -0.769   0.367  -0.002  0.00  0.00    -0.024 C 
ENDBRANCH   1   3
BRANCH   1  17
ATOM     17  C   UNL A   1       2.486  -1.245  -0.215  0.00  0.00    +0.009 C 
BRANCH  17  18
ATOM     18  C   UNL A   1       2.560  -2.664  -0.780  0.00  0.00    -0.036 C 
BRANCH  18  19
ATOM     19  C   UNL A   1       3.329  -3.601   0.151  0.00  0.00    -0.036 C 
BRANCH  19  20
ATOM     20  C   UNL A   1       3.329  -5.030  -0.386  0.00  0.00    +0.012 C 
BRANCH  20  23
ATOM     21  C   UNL A   1       5.455  -6.080   0.306  0.00  0.00    +0.220 C 
ATOM     22  O   UNL A   1       6.100  -5.506  -0.564  0.00  0.00    -0.275 OA
ATOM     23  N   UNL A   1       4.093  -5.919   0.465  0.00  0.00    -0.315 N 
ATOM     24  H   UNL A   1       3.630  -6.421   1.174  0.00  0.00    +0.000 HD
BRANCH  21  25
ATOM     25  C   UNL A   1       6.070  -7.018   1.310  0.00  0.00    +0.082 C 
BRANCH  25  27
ATOM     26  C   UNL A   1       7.482  -8.241  -0.480  0.00  0.00    -0.006 C 
ATOM     27  C   UNL A   1       7.385  -7.622   0.891  0.00  0.00    +0.139 C 
ATOM     28  O   UNL A   1       8.328  -7.690   1.683  0.00  0.00    -0.297 OA
ENDBRANCH  25  27
ENDBRANCH  21  25
ENDBRANCH  20  23
ENDBRANCH  19  20
ENDBRANCH  18  19
ENDBRANCH  17  18
ENDBRANCH   1  17
TORSDOF 8
