MODEL 1
REMARK VINA RESULT:    -7.744      0.000      0.000
REMARK INTER + INTRA:         -13.017
REMARK INTER:                 -11.365
REMARK INTRA:                  -1.652
REMARK UNBOUND:                -1.652
REMARK  Name = cpd139.pdb
REMARK  9 active torsions:
REMARK  status: ('A' for Active; 'I' for Inactive)
REMARK    1  A    between atoms: C_1  and  C_2
REMARK    2  A    between atoms: C_2  and  C_4
REMARK    3  A    between atoms: C_4  and  C_5
REMARK    4  A    between atoms: N_7  and  C_8
REMARK    5  A    between atoms: C_8  and  C_9
REMARK    6  A    between atoms: C_9  and  C_10
REMARK    7  A    between atoms: C_10  and  C_11
REMARK    8  A    between atoms: C_11  and  N_12
REMARK    9  A    between atoms: N_12  and  C_13
REMARK                            x       y       z     vdW  Elec       q    Type
REMARK                         _______ _______ _______ _____ _____    ______ ____
ROOT
ATOM      1  N   UNL A   1      36.738 -34.914 -31.686  0.00  0.00    -0.343 N 
ATOM      2  H   UNL A   1      36.242 -35.160 -32.501  0.00  0.00    +0.000 HD
ENDROOT
BRANCH   1   3
ATOM      3  C   UNL A   1      37.555 -35.819 -30.943  0.00  0.00    +0.041 A 
ATOM      4  C   UNL A   1      38.882 -36.080 -31.346  0.00  0.00    -0.005 A 
ATOM      5  C   UNL A   1      39.644 -36.936 -30.546  0.00  0.00    +0.047 A 
ATOM      6  N   UNL A   1      39.189 -37.472 -29.389  0.00  0.00    -0.251 NA
ATOM      7  C   UNL A   1      37.934 -37.212 -29.000  0.00  0.00    +0.073 A 
ATOM      8  C   UNL A   1      37.482 -37.782 -27.817  0.00  0.00    -0.036 A 
ATOM      9  C   UNL A   1      36.183 -37.579 -27.345  0.00  0.00    -0.060 A 
ATOM     10  C   UNL A   1      35.306 -36.792 -28.076  0.00  0.00    -0.061 A 
ATOM     11  C   UNL A   1      35.740 -36.208 -29.264  0.00  0.00    -0.051 A 
ATOM     12  C   UNL A   1      37.060 -36.392 -29.740  0.00  0.00    +0.021 A 
ATOM     13  C   UNL A   1      41.070 -37.283 -30.886  0.00  0.00    -0.010 C 
ATOM     14  C   UNL A   1      41.414 -37.049 -32.351  0.00  0.00    -0.047 C 
ATOM     15  C   UNL A   1      40.962 -35.658 -32.768  0.00  0.00    -0.049 C 
ATOM     16  C   UNL A   1      39.446 -35.526 -32.634  0.00  0.00    -0.024 C 
ENDBRANCH   1   3
BRANCH   1  17
ATOM     17  C   UNL A   1      36.725 -33.571 -31.090  0.00  0.00    +0.009 C 
BRANCH  17  18
ATOM     18  C   UNL A   1      35.345 -32.948 -31.303  0.00  0.00    -0.036 C 
BRANCH  18  19
ATOM     19  C   UNL A   1      34.729 -32.481 -29.985  0.00  0.00    -0.036 C 
BRANCH  19  20
ATOM     20  C   UNL A   1      33.459 -33.266 -29.664  0.00  0.00    +0.012 C 
BRANCH  20  23
ATOM     21  C   UNL A   1      31.962 -34.255 -31.362  0.00  0.00    +0.220 C 
ATOM     22  O   UNL A   1      31.062 -33.455 -31.133  0.00  0.00    -0.275 OA
ATOM     23  N   UNL A   1      33.167 -34.248 -30.688  0.00  0.00    -0.315 N 
ATOM     24  H   UNL A   1      33.844 -34.928 -30.909  0.00  0.00    +0.000 HD
BRANCH  21  25
ATOM     25  C   UNL A   1      31.867 -35.330 -32.411  0.00  0.00    +0.082 C 
BRANCH  25  27
ATOM     26  C   UNL A   1      33.377 -37.409 -32.108  0.00  0.00    -0.006 C 
ATOM     27  C   UNL A   1      33.161 -36.043 -32.708  0.00  0.00    +0.139 C 
ATOM     28  O   UNL A   1      34.056 -35.485 -33.347  0.00  0.00    -0.297 OA
ENDBRANCH  25  27
ENDBRANCH  21  25
ENDBRANCH  20  23
ENDBRANCH  19  20
ENDBRANCH  18  19
ENDBRANCH  17  18
ENDBRANCH   1  17
TORSDOF 8
ENDMDL
MODEL 2
REMARK VINA RESULT:    -7.642      2.127      3.266
REMARK INTER + INTRA:         -12.868
REMARK INTER:                 -11.882
REMARK INTRA:                  -0.987
REMARK UNBOUND:                -1.652
REMARK  Name = cpd139.pdb
REMARK  9 active torsions:
REMARK  status: ('A' for Active; 'I' for Inactive)
REMARK    1  A    between atoms: C_1  and  C_2
REMARK    2  A    between atoms: C_2  and  C_4
REMARK    3  A    between atoms: C_4  and  C_5
REMARK    4  A    between atoms: N_7  and  C_8
REMARK    5  A    between atoms: C_8  and  C_9
REMARK    6  A    between atoms: C_9  and  C_10
REMARK    7  A    between atoms: C_10  and  C_11
REMARK    8  A    between atoms: C_11  and  N_12
REMARK    9  A    between atoms: N_12  and  C_13
REMARK                            x       y       z     vdW  Elec       q    Type
REMARK                         _______ _______ _______ _____ _____    ______ ____
ROOT
ATOM      1  N   UNL A   1      36.425 -34.891 -31.582  0.00  0.00    -0.343 N 
ATOM      2  H   UNL A   1      35.882 -35.148 -32.362  0.00  0.00    +0.000 HD
ENDROOT
BRANCH   1   3
ATOM      3  C   UNL A   1      37.254 -35.795 -30.852  0.00  0.00    +0.041 A 
ATOM      4  C   UNL A   1      38.584 -36.034 -31.259  0.00  0.00    -0.005 A 
ATOM      5  C   UNL A   1      39.357 -36.890 -30.471  0.00  0.00    +0.047 A 
ATOM      6  N   UNL A   1      38.911 -37.446 -29.320  0.00  0.00    -0.251 NA
ATOM      7  C   UNL A   1      37.653 -37.207 -28.926  0.00  0.00    +0.073 A 
ATOM      8  C   UNL A   1      37.209 -37.798 -27.750  0.00  0.00    -0.036 A 
ATOM      9  C   UNL A   1      35.909 -37.617 -27.274  0.00  0.00    -0.060 A 
ATOM     10  C   UNL A   1      35.021 -36.831 -27.994  0.00  0.00    -0.061 A 
ATOM     11  C   UNL A   1      35.446 -36.227 -29.176  0.00  0.00    -0.051 A 
ATOM     12  C   UNL A   1      36.768 -36.389 -29.655  0.00  0.00    +0.021 A 
ATOM     13  C   UNL A   1      40.788 -37.215 -30.816  0.00  0.00    -0.010 C 
ATOM     14  C   UNL A   1      41.127 -36.959 -32.279  0.00  0.00    -0.047 C 
ATOM     15  C   UNL A   1      40.657 -35.568 -32.677  0.00  0.00    -0.049 C 
ATOM     16  C   UNL A   1      39.139 -35.457 -32.541  0.00  0.00    -0.024 C 
ENDBRANCH   1   3
BRANCH   1  17
ATOM     17  C   UNL A   1      36.481 -33.529 -31.032  0.00  0.00    +0.009 C 
BRANCH  17  18
ATOM     18  C   UNL A   1      35.070 -32.939 -31.029  0.00  0.00    -0.036 C 
BRANCH  18  19
ATOM     19  C   UNL A   1      34.588 -32.639 -29.610  0.00  0.00    -0.036 C 
BRANCH  19  20
ATOM     20  C   UNL A   1      33.098 -32.936 -29.462  0.00  0.00    +0.012 C 
BRANCH  20  23
ATOM     21  C   UNL A   1      31.376 -31.508 -30.510  0.00  0.00    +0.220 C 
ATOM     22  O   UNL A   1      31.171 -32.305 -31.419  0.00  0.00    -0.275 OA
ATOM     23  N   UNL A   1      32.306 -31.724 -29.513  0.00  0.00    -0.315 N 
ATOM     24  H   UNL A   1      32.434 -31.037 -28.820  0.00  0.00    +0.000 HD
BRANCH  21  25
ATOM     25  C   UNL A   1      30.632 -30.207 -30.367  0.00  0.00    +0.082 C 
BRANCH  25  27
ATOM     26  C   UNL A   1      28.903 -28.879 -28.974  0.00  0.00    -0.006 C 
ATOM     27  C   UNL A   1      29.620 -30.175 -29.251  0.00  0.00    +0.139 C 
ATOM     28  O   UNL A   1      29.452 -31.157 -28.524  0.00  0.00    -0.297 OA
ENDBRANCH  25  27
ENDBRANCH  21  25
ENDBRANCH  20  23
ENDBRANCH  19  20
ENDBRANCH  18  19
ENDBRANCH  17  18
ENDBRANCH   1  17
TORSDOF 8
ENDMDL
MODEL 3
REMARK VINA RESULT:    -7.250      2.017      4.650
REMARK INTER + INTRA:         -12.293
REMARK INTER:                 -11.467
REMARK INTRA:                  -0.826
REMARK UNBOUND:                -1.652
REMARK  Name = cpd139.pdb
REMARK  9 active torsions:
REMARK  status: ('A' for Active; 'I' for Inactive)
REMARK    1  A    between atoms: C_1  and  C_2
REMARK    2  A    between atoms: C_2  and  C_4
REMARK    3  A    between atoms: C_4  and  C_5
REMARK    4  A    between atoms: N_7  and  C_8
REMARK    5  A    between atoms: C_8  and  C_9
REMARK    6  A    between atoms: C_9  and  C_10
REMARK    7  A    between atoms: C_10  and  C_11
REMARK    8  A    between atoms: C_11  and  N_12
REMARK    9  A    between atoms: N_12  and  C_13
REMARK                            x       y       z     vdW  Elec       q    Type
REMARK                         _______ _______ _______ _____ _____    ______ ____
ROOT
ATOM      1  N   UNL A   1      36.683 -34.889 -31.709  0.00  0.00    -0.343 N 
ATOM      2  H   UNL A   1      36.235 -35.143 -32.548  0.00  0.00    +0.000 HD
ENDROOT
BRANCH   1   3
ATOM      3  C   UNL A   1      37.505 -35.769 -30.942  0.00  0.00    +0.041 A 
ATOM      4  C   UNL A   1      36.978 -36.439 -29.817  0.00  0.00    -0.005 A 
ATOM      5  C   UNL A   1      37.821 -37.326 -29.141  0.00  0.00    +0.047 A 
ATOM      6  N   UNL A   1      39.082 -37.609 -29.545  0.00  0.00    -0.251 NA
ATOM      7  C   UNL A   1      39.575 -36.982 -30.622  0.00  0.00    +0.073 A 
ATOM      8  C   UNL A   1      40.875 -37.275 -31.013  0.00  0.00    -0.036 A 
ATOM      9  C   UNL A   1      41.476 -36.657 -32.113  0.00  0.00    -0.060 A 
ATOM     10  C   UNL A   1      40.764 -35.714 -32.839  0.00  0.00    -0.061 A 
ATOM     11  C   UNL A   1      39.457 -35.407 -32.465  0.00  0.00    -0.051 A 
ATOM     12  C   UNL A   1      38.834 -36.043 -31.365  0.00  0.00    +0.021 A 
ATOM     13  C   UNL A   1      37.361 -38.092 -27.927  0.00  0.00    -0.010 C 
ATOM     14  C   UNL A   1      36.152 -37.466 -27.243  0.00  0.00    -0.047 C 
ATOM     15  C   UNL A   1      35.076 -37.169 -28.276  0.00  0.00    -0.049 C 
ATOM     16  C   UNL A   1      35.585 -36.159 -29.304  0.00  0.00    -0.024 C 
ENDBRANCH   1   3
BRANCH   1  17
ATOM     17  C   UNL A   1      36.585 -33.557 -31.095  0.00  0.00    +0.009 C 
BRANCH  17  18
ATOM     18  C   UNL A   1      35.164 -33.026 -31.288  0.00  0.00    -0.036 C 
BRANCH  18  19
ATOM     19  C   UNL A   1      34.435 -32.873 -29.954  0.00  0.00    -0.036 C 
BRANCH  19  20
ATOM     20  C   UNL A   1      33.020 -33.440 -30.034  0.00  0.00    +0.012 C 
BRANCH  20  23
ATOM     21  C   UNL A   1      31.335 -32.350 -28.593  0.00  0.00    +0.220 C 
ATOM     22  O   UNL A   1      31.504 -33.146 -27.677  0.00  0.00    -0.275 OA
ATOM     23  N   UNL A   1      32.022 -32.418 -29.789  0.00  0.00    -0.315 N 
ATOM     24  H   UNL A   1      31.829 -31.757 -30.492  0.00  0.00    +0.000 HD
BRANCH  21  25
ATOM     25  C   UNL A   1      30.369 -31.197 -28.521  0.00  0.00    +0.082 C 
BRANCH  25  27
ATOM     26  C   UNL A   1      28.551 -31.279 -30.361  0.00  0.00    -0.006 C 
ATOM     27  C   UNL A   1      29.855 -30.717 -29.853  0.00  0.00    +0.139 C 
ATOM     28  O   UNL A   1      30.528 -29.954 -30.551  0.00  0.00    -0.297 OA
ENDBRANCH  25  27
ENDBRANCH  21  25
ENDBRANCH  20  23
ENDBRANCH  19  20
ENDBRANCH  18  19
ENDBRANCH  17  18
ENDBRANCH   1  17
TORSDOF 8
ENDMDL
MODEL 4
REMARK VINA RESULT:    -7.227      3.832      7.418
REMARK INTER + INTRA:         -12.259
REMARK INTER:                 -12.310
REMARK INTRA:                   0.051
REMARK UNBOUND:                -1.652
REMARK  Name = cpd139.pdb
REMARK  9 active torsions:
REMARK  status: ('A' for Active; 'I' for Inactive)
REMARK    1  A    between atoms: C_1  and  C_2
REMARK    2  A    between atoms: C_2  and  C_4
REMARK    3  A    between atoms: C_4  and  C_5
REMARK    4  A    between atoms: N_7  and  C_8
REMARK    5  A    between atoms: C_8  and  C_9
REMARK    6  A    between atoms: C_9  and  C_10
REMARK    7  A    between atoms: C_10  and  C_11
REMARK    8  A    between atoms: C_11  and  N_12
REMARK    9  A    between atoms: N_12  and  C_13
REMARK                            x       y       z     vdW  Elec       q    Type
REMARK                         _______ _______ _______ _____ _____    ______ ____
ROOT
ATOM      1  N   UNL A   1      37.765 -34.646 -31.540  0.00  0.00    -0.343 N 
ATOM      2  H   UNL A   1      37.970 -33.684 -31.603  0.00  0.00    +0.000 HD
ENDROOT
BRANCH   1   3
ATOM      3  C   UNL A   1      36.881 -35.212 -30.573  0.00  0.00    +0.041 A 
ATOM      4  C   UNL A   1      37.281 -36.327 -29.805  0.00  0.00    -0.005 A 
ATOM      5  C   UNL A   1      36.388 -36.801 -28.840  0.00  0.00    +0.047 A 
ATOM      6  N   UNL A   1      35.198 -36.211 -28.575  0.00  0.00    -0.251 NA
ATOM      7  C   UNL A   1      34.826 -35.144 -29.295  0.00  0.00    +0.073 A 
ATOM      8  C   UNL A   1      33.596 -34.562 -29.018  0.00  0.00    -0.036 A 
ATOM      9  C   UNL A   1      33.121 -33.458 -29.729  0.00  0.00    -0.060 A 
ATOM     10  C   UNL A   1      33.889 -32.923 -30.753  0.00  0.00    -0.061 A 
ATOM     11  C   UNL A   1      35.127 -33.490 -31.046  0.00  0.00    -0.051 A 
ATOM     12  C   UNL A   1      35.625 -34.597 -30.317  0.00  0.00    +0.021 A 
ATOM     13  C   UNL A   1      36.714 -37.986 -27.968  0.00  0.00    -0.010 C 
ATOM     14  C   UNL A   1      37.806 -38.877 -28.546  0.00  0.00    -0.047 C 
ATOM     15  C   UNL A   1      38.994 -38.024 -28.964  0.00  0.00    -0.049 C 
ATOM     16  C   UNL A   1      38.588 -37.041 -30.060  0.00  0.00    -0.024 C 
ENDBRANCH   1   3
BRANCH   1  17
ATOM     17  C   UNL A   1      38.333 -35.669 -32.429  0.00  0.00    +0.009 C 
BRANCH  17  18
ATOM     18  C   UNL A   1      39.736 -35.232 -32.853  0.00  0.00    -0.036 C 
BRANCH  18  19
ATOM     19  C   UNL A   1      40.693 -36.421 -32.939  0.00  0.00    -0.036 C 
BRANCH  19  20
ATOM     20  C   UNL A   1      41.705 -36.396 -31.797  0.00  0.00    +0.012 C 
BRANCH  20  23
ATOM     21  C   UNL A   1      43.005 -38.101 -30.571  0.00  0.00    +0.220 C 
ATOM     22  O   UNL A   1      44.019 -37.413 -30.553  0.00  0.00    -0.275 OA
ATOM     23  N   UNL A   1      41.827 -37.693 -31.164  0.00  0.00    -0.315 N 
ATOM     24  H   UNL A   1      41.051 -38.299 -31.158  0.00  0.00    +0.000 HD
BRANCH  21  25
ATOM     25  C   UNL A   1      42.918 -39.465 -29.939  0.00  0.00    +0.082 C 
BRANCH  25  27
ATOM     26  C   UNL A   1      45.029 -40.949 -30.121  0.00  0.00    -0.006 C 
ATOM     27  C   UNL A   1      44.203 -39.965 -29.332  0.00  0.00    +0.139 C 
ATOM     28  O   UNL A   1      44.522 -39.650 -28.183  0.00  0.00    -0.297 OA
ENDBRANCH  25  27
ENDBRANCH  21  25
ENDBRANCH  20  23
ENDBRANCH  19  20
ENDBRANCH  18  19
ENDBRANCH  17  18
ENDBRANCH   1  17
TORSDOF 8
ENDMDL
MODEL 5
REMARK VINA RESULT:    -7.011      1.079      3.794
REMARK INTER + INTRA:         -11.942
REMARK INTER:                 -10.661
REMARK INTRA:                  -1.281
REMARK UNBOUND:                -1.652
REMARK  Name = cpd139.pdb
REMARK  9 active torsions:
REMARK  status: ('A' for Active; 'I' for Inactive)
REMARK    1  A    between atoms: C_1  and  C_2
REMARK    2  A    between atoms: C_2  and  C_4
REMARK    3  A    between atoms: C_4  and  C_5
REMARK    4  A    between atoms: N_7  and  C_8
REMARK    5  A    between atoms: C_8  and  C_9
REMARK    6  A    between atoms: C_9  and  C_10
REMARK    7  A    between atoms: C_10  and  C_11
REMARK    8  A    between atoms: C_11  and  N_12
REMARK    9  A    between atoms: N_12  and  C_13
REMARK                            x       y       z     vdW  Elec       q    Type
REMARK                         _______ _______ _______ _____ _____    ______ ____
ROOT
ATOM      1  N   UNL A   1      36.073 -34.522 -31.385  0.00  0.00    -0.343 N 
ATOM      2  H   UNL A   1      35.330 -34.763 -31.985  0.00  0.00    +0.000 HD
ENDROOT
BRANCH   1   3
ATOM      3  C   UNL A   1      36.854 -35.470 -30.658  0.00  0.00    +0.041 A 
ATOM      4  C   UNL A   1      36.301 -36.160 -29.559  0.00  0.00    -0.005 A 
ATOM      5  C   UNL A   1      37.102 -37.113 -28.923  0.00  0.00    +0.047 A 
ATOM      6  N   UNL A   1      38.347 -37.437 -29.346  0.00  0.00    -0.251 NA
ATOM      7  C   UNL A   1      38.866 -36.792 -30.399  0.00  0.00    +0.073 A 
ATOM      8  C   UNL A   1      40.150 -37.129 -30.808  0.00  0.00    -0.036 A 
ATOM      9  C   UNL A   1      40.775 -36.496 -31.885  0.00  0.00    -0.060 A 
ATOM     10  C   UNL A   1      40.107 -35.491 -32.569  0.00  0.00    -0.061 A 
ATOM     11  C   UNL A   1      38.817 -35.139 -32.176  0.00  0.00    -0.051 A 
ATOM     12  C   UNL A   1      38.168 -35.789 -31.099  0.00  0.00    +0.021 A 
ATOM     13  C   UNL A   1      36.610 -37.904 -27.739  0.00  0.00    -0.010 C 
ATOM     14  C   UNL A   1      35.435 -37.251 -27.024  0.00  0.00    -0.047 C 
ATOM     15  C   UNL A   1      34.371 -36.862 -28.039  0.00  0.00    -0.049 C 
ATOM     16  C   UNL A   1      34.924 -35.836 -29.027  0.00  0.00    -0.024 C 
ENDBRANCH   1   3
BRANCH   1  17
ATOM     17  C   UNL A   1      36.509 -33.142 -31.129  0.00  0.00    +0.009 C 
BRANCH  17  18
ATOM     18  C   UNL A   1      35.337 -32.196 -31.391  0.00  0.00    -0.036 C 
BRANCH  18  19
ATOM     19  C   UNL A   1      34.168 -32.473 -30.446  0.00  0.00    -0.036 C 
BRANCH  19  20
ATOM     20  C   UNL A   1      32.836 -32.426 -31.191  0.00  0.00    +0.012 C 
BRANCH  20  23
ATOM     21  C   UNL A   1      32.534 -34.614 -32.297  0.00  0.00    +0.220 C 
ATOM     22  O   UNL A   1      33.318 -34.342 -33.199  0.00  0.00    -0.275 OA
ATOM     23  N   UNL A   1      32.226 -33.737 -31.276  0.00  0.00    -0.315 N 
ATOM     24  H   UNL A   1      31.576 -34.010 -30.589  0.00  0.00    +0.000 HD
BRANCH  21  25
ATOM     25  C   UNL A   1      31.824 -35.936 -32.187  0.00  0.00    +0.082 C 
BRANCH  25  27
ATOM     26  C   UNL A   1      33.468 -37.897 -32.570  0.00  0.00    -0.006 C 
ATOM     27  C   UNL A   1      32.357 -37.019 -33.089  0.00  0.00    +0.139 C 
ATOM     28  O   UNL A   1      31.960 -37.124 -34.251  0.00  0.00    -0.297 OA
ENDBRANCH  25  27
ENDBRANCH  21  25
ENDBRANCH  20  23
ENDBRANCH  19  20
ENDBRANCH  18  19
ENDBRANCH  17  18
ENDBRANCH   1  17
TORSDOF 8
ENDMDL
MODEL 6
REMARK VINA RESULT:    -6.763      3.073      5.359
REMARK INTER + INTRA:         -11.578
REMARK INTER:                 -10.682
REMARK INTRA:                  -0.896
REMARK UNBOUND:                -1.652
REMARK  Name = cpd139.pdb
REMARK  9 active torsions:
REMARK  status: ('A' for Active; 'I' for Inactive)
REMARK    1  A    between atoms: C_1  and  C_2
REMARK    2  A    between atoms: C_2  and  C_4
REMARK    3  A    between atoms: C_4  and  C_5
REMARK    4  A    between atoms: N_7  and  C_8
REMARK    5  A    between atoms: C_8  and  C_9
REMARK    6  A    between atoms: C_9  and  C_10
REMARK    7  A    between atoms: C_10  and  C_11
REMARK    8  A    between atoms: C_11  and  N_12
REMARK    9  A    between atoms: N_12  and  C_13
REMARK                            x       y       z     vdW  Elec       q    Type
REMARK                         _______ _______ _______ _____ _____    ______ ____
ROOT
ATOM      1  N   UNL A   1      37.731 -37.951 -28.199  0.00  0.00    -0.343 N 
ATOM      2  H   UNL A   1      37.609 -37.688 -27.258  0.00  0.00    +0.000 HD
ENDROOT
BRANCH   1   3
ATOM      3  C   UNL A   1      37.873 -37.026 -29.276  0.00  0.00    +0.041 A 
ATOM      4  C   UNL A   1      39.071 -36.975 -30.022  0.00  0.00    -0.005 A 
ATOM      5  C   UNL A   1      39.126 -36.082 -31.096  0.00  0.00    +0.047 A 
ATOM      6  N   UNL A   1      38.077 -35.317 -31.481  0.00  0.00    -0.251 NA
ATOM      7  C   UNL A   1      36.937 -35.377 -30.781  0.00  0.00    +0.073 A 
ATOM      8  C   UNL A   1      35.876 -34.574 -31.183  0.00  0.00    -0.036 A 
ATOM      9  C   UNL A   1      34.657 -34.559 -30.502  0.00  0.00    -0.060 A 
ATOM     10  C   UNL A   1      34.490 -35.361 -29.382  0.00  0.00    -0.061 A 
ATOM     11  C   UNL A   1      35.540 -36.176 -28.963  0.00  0.00    -0.051 A 
ATOM     12  C   UNL A   1      36.772 -36.212 -29.659  0.00  0.00    +0.021 A 
ATOM     13  C   UNL A   1      40.356 -35.947 -31.956  0.00  0.00    -0.010 C 
ATOM     14  C   UNL A   1      41.622 -36.455 -31.280  0.00  0.00    -0.047 C 
ATOM     15  C   UNL A   1      41.374 -37.842 -30.705  0.00  0.00    -0.049 C 
ATOM     16  C   UNL A   1      40.283 -37.791 -29.637  0.00  0.00    -0.024 C 
ENDBRANCH   1   3
BRANCH   1  17
ATOM     17  C   UNL A   1      37.789 -39.345 -28.663  0.00  0.00    +0.009 C 
BRANCH  17  18
ATOM     18  C   UNL A   1      36.429 -39.728 -29.248  0.00  0.00    -0.036 C 
BRANCH  18  19
ATOM     19  C   UNL A   1      35.877 -41.000 -28.604  0.00  0.00    -0.036 C 
BRANCH  19  20
ATOM     20  C   UNL A   1      34.577 -40.717 -27.857  0.00  0.00    +0.012 C 
BRANCH  20  23
ATOM     21  C   UNL A   1      33.895 -38.574 -26.833  0.00  0.00    +0.220 C 
ATOM     22  O   UNL A   1      32.967 -38.416 -27.619  0.00  0.00    -0.275 OA
ATOM     23  N   UNL A   1      34.743 -39.663 -26.877  0.00  0.00    -0.315 N 
ATOM     24  H   UNL A   1      35.480 -39.724 -26.227  0.00  0.00    +0.000 HD
BRANCH  21  25
ATOM     25  C   UNL A   1      34.212 -37.610 -25.722  0.00  0.00    +0.082 C 
BRANCH  25  27
ATOM     26  C   UNL A   1      32.332 -35.863 -25.393  0.00  0.00    -0.006 C 
ATOM     27  C   UNL A   1      33.018 -37.127 -24.941  0.00  0.00    +0.139 C 
ATOM     28  O   UNL A   1      32.669 -37.700 -23.906  0.00  0.00    -0.297 OA
ENDBRANCH  25  27
ENDBRANCH  21  25
ENDBRANCH  20  23
ENDBRANCH  19  20
ENDBRANCH  18  19
ENDBRANCH  17  18
ENDBRANCH   1  17
TORSDOF 8
ENDMDL
MODEL 7
REMARK VINA RESULT:    -6.609      1.405      4.082
REMARK INTER + INTRA:         -11.351
REMARK INTER:                  -9.667
REMARK INTRA:                  -1.684
REMARK UNBOUND:                -1.652
REMARK  Name = cpd139.pdb
REMARK  9 active torsions:
REMARK  status: ('A' for Active; 'I' for Inactive)
REMARK    1  A    between atoms: C_1  and  C_2
REMARK    2  A    between atoms: C_2  and  C_4
REMARK    3  A    between atoms: C_4  and  C_5
REMARK    4  A    between atoms: N_7  and  C_8
REMARK    5  A    between atoms: C_8  and  C_9
REMARK    6  A    between atoms: C_9  and  C_10
REMARK    7  A    between atoms: C_10  and  C_11
REMARK    8  A    between atoms: C_11  and  N_12
REMARK    9  A    between atoms: N_12  and  C_13
REMARK                            x       y       z     vdW  Elec       q    Type
REMARK                         _______ _______ _______ _____ _____    ______ ____
ROOT
ATOM      1  N   UNL A   1      35.540 -35.312 -30.754  0.00  0.00    -0.343 N 
ATOM      2  H   UNL A   1      35.023 -35.677 -31.507  0.00  0.00    +0.000 HD
ENDROOT
BRANCH   1   3
ATOM      3  C   UNL A   1      36.073 -36.103 -29.691  0.00  0.00    +0.041 A 
ATOM      4  C   UNL A   1      35.255 -36.486 -28.606  0.00  0.00    -0.005 A 
ATOM      5  C   UNL A   1      35.824 -37.303 -27.625  0.00  0.00    +0.047 A 
ATOM      6  N   UNL A   1      37.089 -37.781 -27.698  0.00  0.00    -0.251 NA
ATOM      7  C   UNL A   1      37.859 -37.428 -28.736  0.00  0.00    +0.073 A 
ATOM      8  C   UNL A   1      39.158 -37.917 -28.785  0.00  0.00    -0.036 A 
ATOM      9  C   UNL A   1      40.036 -37.587 -29.820  0.00  0.00    -0.060 A 
ATOM     10  C   UNL A   1      39.611 -36.738 -30.832  0.00  0.00    -0.061 A 
ATOM     11  C   UNL A   1      38.311 -36.238 -30.802  0.00  0.00    -0.051 A 
ATOM     12  C   UNL A   1      37.409 -36.582 -29.768  0.00  0.00    +0.021 A 
ATOM     13  C   UNL A   1      35.041 -37.769 -26.425  0.00  0.00    -0.010 C 
ATOM     14  C   UNL A   1      33.820 -36.906 -26.131  0.00  0.00    -0.047 C 
ATOM     15  C   UNL A   1      33.012 -36.711 -27.405  0.00  0.00    -0.049 C 
ATOM     16  C   UNL A   1      33.840 -35.976 -28.457  0.00  0.00    -0.024 C 
ENDBRANCH   1   3
BRANCH   1  17
ATOM     17  C   UNL A   1      35.857 -33.886 -30.587  0.00  0.00    +0.009 C 
BRANCH  17  18
ATOM     18  C   UNL A   1      34.740 -33.055 -31.220  0.00  0.00    -0.036 C 
BRANCH  18  19
ATOM     19  C   UNL A   1      34.124 -32.082 -30.215  0.00  0.00    -0.036 C 
BRANCH  19  20
ATOM     20  C   UNL A   1      32.695 -32.486 -29.865  0.00  0.00    +0.012 C 
BRANCH  20  23
ATOM     21  C   UNL A   1      31.268 -33.517 -31.597  0.00  0.00    +0.220 C 
ATOM     22  O   UNL A   1      30.684 -32.467 -31.838  0.00  0.00    -0.275 OA
ATOM     23  N   UNL A   1      32.258 -33.628 -30.642  0.00  0.00    -0.315 N 
ATOM     24  H   UNL A   1      32.678 -34.505 -30.485  0.00  0.00    +0.000 HD
BRANCH  21  25
ATOM     25  C   UNL A   1      30.983 -34.807 -32.319  0.00  0.00    +0.082 C 
BRANCH  25  27
ATOM     26  C   UNL A   1      31.109 -37.052 -31.039  0.00  0.00    -0.006 C 
ATOM     27  C   UNL A   1      31.797 -35.987 -31.855  0.00  0.00    +0.139 C 
ATOM     28  O   UNL A   1      33.013 -36.033 -32.058  0.00  0.00    -0.297 OA
ENDBRANCH  25  27
ENDBRANCH  21  25
ENDBRANCH  20  23
ENDBRANCH  19  20
ENDBRANCH  18  19
ENDBRANCH  17  18
ENDBRANCH   1  17
TORSDOF 8
ENDMDL
MODEL 8
REMARK VINA RESULT:    -6.599      1.988      2.419
REMARK INTER + INTRA:         -11.338
REMARK INTER:                 -10.024
REMARK INTRA:                  -1.314
REMARK UNBOUND:                -1.652
REMARK  Name = cpd139.pdb
REMARK  9 active torsions:
REMARK  status: ('A' for Active; 'I' for Inactive)
REMARK    1  A    between atoms: C_1  and  C_2
REMARK    2  A    between atoms: C_2  and  C_4
REMARK    3  A    between atoms: C_4  and  C_5
REMARK    4  A    between atoms: N_7  and  C_8
REMARK    5  A    between atoms: C_8  and  C_9
REMARK    6  A    between atoms: C_9  and  C_10
REMARK    7  A    between atoms: C_10  and  C_11
REMARK    8  A    between atoms: C_11  and  N_12
REMARK    9  A    between atoms: N_12  and  C_13
REMARK                            x       y       z     vdW  Elec       q    Type
REMARK                         _______ _______ _______ _____ _____    ______ ____
ROOT
ATOM      1  N   UNL A   1      36.424 -35.218 -31.705  0.00  0.00    -0.343 N 
ATOM      2  H   UNL A   1      36.031 -35.389 -32.592  0.00  0.00    +0.000 HD
ENDROOT
BRANCH   1   3
ATOM      3  C   UNL A   1      37.365 -36.082 -31.068  0.00  0.00    +0.041 A 
ATOM      4  C   UNL A   1      38.749 -35.813 -31.146  0.00  0.00    -0.005 A 
ATOM      5  C   UNL A   1      39.613 -36.668 -30.457  0.00  0.00    +0.047 A 
ATOM      6  N   UNL A   1      39.184 -37.694 -29.684  0.00  0.00    -0.251 NA
ATOM      7  C   UNL A   1      37.869 -37.939 -29.600  0.00  0.00    +0.073 A 
ATOM      8  C   UNL A   1      37.449 -39.004 -28.813  0.00  0.00    -0.036 A 
ATOM      9  C   UNL A   1      36.101 -39.342 -28.681  0.00  0.00    -0.060 A 
ATOM     10  C   UNL A   1      35.142 -38.604 -29.359  0.00  0.00    -0.061 A 
ATOM     11  C   UNL A   1      35.541 -37.530 -30.152  0.00  0.00    -0.051 A 
ATOM     12  C   UNL A   1      36.904 -37.168 -30.275  0.00  0.00    +0.021 A 
ATOM     13  C   UNL A   1      41.107 -36.473 -30.475  0.00  0.00    -0.010 C 
ATOM     14  C   UNL A   1      41.591 -35.633 -31.649  0.00  0.00    -0.047 C 
ATOM     15  C   UNL A   1      40.763 -34.360 -31.743  0.00  0.00    -0.049 C 
ATOM     16  C   UNL A   1      39.295 -34.694 -32.002  0.00  0.00    -0.024 C 
ENDBRANCH   1   3
BRANCH   1  17
ATOM     17  C   UNL A   1      36.111 -34.044 -30.879  0.00  0.00    +0.009 C 
BRANCH  17  18
ATOM     18  C   UNL A   1      34.594 -33.853 -30.846  0.00  0.00    -0.036 C 
BRANCH  18  19
ATOM     19  C   UNL A   1      34.215 -32.374 -30.777  0.00  0.00    -0.036 C 
BRANCH  19  20
ATOM     20  C   UNL A   1      32.971 -32.165 -29.917  0.00  0.00    +0.012 C 
BRANCH  20  23
ATOM     21  C   UNL A   1      31.682 -33.317 -28.153  0.00  0.00    +0.220 C 
ATOM     22  O   UNL A   1      30.973 -32.340 -27.939  0.00  0.00    -0.275 OA
ATOM     23  N   UNL A   1      32.693 -33.324 -29.093  0.00  0.00    -0.315 N 
ATOM     24  H   UNL A   1      33.238 -34.136 -29.206  0.00  0.00    +0.000 HD
BRANCH  21  25
ATOM     25  C   UNL A   1      31.530 -34.627 -27.426  0.00  0.00    +0.082 C 
BRANCH  25  27
ATOM     26  C   UNL A   1      33.484 -36.294 -27.115  0.00  0.00    -0.006 C 
ATOM     27  C   UNL A   1      32.365 -35.755 -27.971  0.00  0.00    +0.139 C 
ATOM     28  O   UNL A   1      32.198 -36.165 -29.122  0.00  0.00    -0.297 OA
ENDBRANCH  25  27
ENDBRANCH  21  25
ENDBRANCH  20  23
ENDBRANCH  19  20
ENDBRANCH  18  19
ENDBRANCH  17  18
ENDBRANCH   1  17
TORSDOF 8
ENDMDL
MODEL 9
REMARK VINA RESULT:    -6.474      2.476      5.338
REMARK INTER + INTRA:         -11.154
REMARK INTER:                  -9.837
REMARK INTRA:                  -1.316
REMARK UNBOUND:                -1.652
REMARK  Name = cpd139.pdb
REMARK  9 active torsions:
REMARK  status: ('A' for Active; 'I' for Inactive)
REMARK    1  A    between atoms: C_1  and  C_2
REMARK    2  A    between atoms: C_2  and  C_4
REMARK    3  A    between atoms: C_4  and  C_5
REMARK    4  A    between atoms: N_7  and  C_8
REMARK    5  A    between atoms: C_8  and  C_9
REMARK    6  A    between atoms: C_9  and  C_10
REMARK    7  A    between atoms: C_10  and  C_11
REMARK    8  A    between atoms: C_11  and  N_12
REMARK    9  A    between atoms: N_12  and  C_13
REMARK                            x       y       z     vdW  Elec       q    Type
REMARK                         _______ _______ _______ _____ _____    ______ ____
ROOT
ATOM      1  N   UNL A   1      37.650 -37.833 -27.991  0.00  0.00    -0.343 N 
ATOM      2  H   UNL A   1      37.560 -37.473 -27.079  0.00  0.00    +0.000 HD
ENDROOT
BRANCH   1   3
ATOM      3  C   UNL A   1      37.701 -37.025 -29.167  0.00  0.00    +0.041 A 
ATOM      4  C   UNL A   1      36.617 -36.189 -29.508  0.00  0.00    -0.005 A 
ATOM      5  C   UNL A   1      36.752 -35.385 -30.643  0.00  0.00    +0.047 A 
ATOM      6  N   UNL A   1      37.882 -35.335 -31.387  0.00  0.00    -0.251 NA
ATOM      7  C   UNL A   1      38.916 -36.119 -31.054  0.00  0.00    +0.073 A 
ATOM      8  C   UNL A   1      40.062 -36.063 -31.838  0.00  0.00    -0.036 A 
ATOM      9  C   UNL A   1      41.180 -36.858 -31.575  0.00  0.00    -0.060 A 
ATOM     10  C   UNL A   1      41.154 -37.740 -30.505  0.00  0.00    -0.061 A 
ATOM     11  C   UNL A   1      40.016 -37.811 -29.705  0.00  0.00    -0.051 A 
ATOM     12  C   UNL A   1      38.886 -36.995 -29.952  0.00  0.00    +0.021 A 
ATOM     13  C   UNL A   1      35.655 -34.457 -31.097  0.00  0.00    -0.010 C 
ATOM     14  C   UNL A   1      34.285 -34.830 -30.546  0.00  0.00    -0.047 C 
ATOM     15  C   UNL A   1      34.379 -35.047 -29.044  0.00  0.00    -0.049 C 
ATOM     16  C   UNL A   1      35.322 -36.207 -28.729  0.00  0.00    -0.024 C 
ENDBRANCH   1   3
BRANCH   1  17
ATOM     17  C   UNL A   1      37.746 -39.265 -28.305  0.00  0.00    +0.009 C 
BRANCH  17  18
ATOM     18  C   UNL A   1      36.589 -39.648 -29.229  0.00  0.00    -0.036 C 
BRANCH  18  19
ATOM     19  C   UNL A   1      35.915 -40.944 -28.780  0.00  0.00    -0.036 C 
BRANCH  19  20
ATOM     20  C   UNL A   1      34.433 -40.721 -28.492  0.00  0.00    +0.012 C 
BRANCH  20  23
ATOM     21  C   UNL A   1      32.927 -38.934 -29.294  0.00  0.00    +0.220 C 
ATOM     22  O   UNL A   1      32.638 -38.575 -28.158  0.00  0.00    -0.275 OA
ATOM     23  N   UNL A   1      33.788 -39.981 -29.557  0.00  0.00    -0.315 N 
ATOM     24  H   UNL A   1      33.968 -40.231 -30.492  0.00  0.00    +0.000 HD
BRANCH  21  25
ATOM     25  C   UNL A   1      32.389 -38.272 -30.534  0.00  0.00    +0.082 C 
BRANCH  25  27
ATOM     26  C   UNL A   1      32.716 -38.803 -33.045  0.00  0.00    -0.006 C 
ATOM     27  C   UNL A   1      33.298 -38.340 -31.734  0.00  0.00    +0.139 C 
ATOM     28  O   UNL A   1      34.505 -38.111 -31.624  0.00  0.00    -0.297 OA
ENDBRANCH  25  27
ENDBRANCH  21  25
ENDBRANCH  20  23
ENDBRANCH  19  20
ENDBRANCH  18  19
ENDBRANCH  17  18
ENDBRANCH   1  17
TORSDOF 8
ENDMDL
MODEL 10
REMARK VINA RESULT:    -6.447      2.884      5.728
REMARK INTER + INTRA:         -11.114
REMARK INTER:                  -9.742
REMARK INTRA:                  -1.372
REMARK UNBOUND:                -1.652
REMARK  Name = cpd139.pdb
REMARK  9 active torsions:
REMARK  status: ('A' for Active; 'I' for Inactive)
REMARK    1  A    between atoms: C_1  and  C_2
REMARK    2  A    between atoms: C_2  and  C_4
REMARK    3  A    between atoms: C_4  and  C_5
REMARK    4  A    between atoms: N_7  and  C_8
REMARK    5  A    between atoms: C_8  and  C_9
REMARK    6  A    between atoms: C_9  and  C_10
REMARK    7  A    between atoms: C_10  and  C_11
REMARK    8  A    between atoms: C_11  and  N_12
REMARK    9  A    between atoms: N_12  and  C_13
REMARK                            x       y       z     vdW  Elec       q    Type
REMARK                         _______ _______ _______ _____ _____    ______ ____
ROOT
ATOM      1  N   UNL A   1      37.362 -37.704 -28.346  0.00  0.00    -0.343 N 
ATOM      2  H   UNL A   1      37.334 -37.424 -27.402  0.00  0.00    +0.000 HD
ENDROOT
BRANCH   1   3
ATOM      3  C   UNL A   1      37.525 -36.805 -29.442  0.00  0.00    +0.041 A 
ATOM      4  C   UNL A   1      36.513 -35.874 -29.760  0.00  0.00    -0.005 A 
ATOM      5  C   UNL A   1      36.757 -34.988 -30.813  0.00  0.00    +0.047 A 
ATOM      6  N   UNL A   1      37.926 -34.948 -31.494  0.00  0.00    -0.251 NA
ATOM      7  C   UNL A   1      38.891 -35.823 -31.182  0.00  0.00    +0.073 A 
ATOM      8  C   UNL A   1      40.078 -35.775 -31.903  0.00  0.00    -0.036 A 
ATOM      9  C   UNL A   1      41.131 -36.660 -31.657  0.00  0.00    -0.060 A 
ATOM     10  C   UNL A   1      40.995 -37.626 -30.671  0.00  0.00    -0.061 A 
ATOM     11  C   UNL A   1      39.813 -37.690 -29.936  0.00  0.00    -0.051 A 
ATOM     12  C   UNL A   1      38.749 -36.785 -30.164  0.00  0.00    +0.021 A 
ATOM     13  C   UNL A   1      35.743 -33.956 -31.235  0.00  0.00    -0.010 C 
ATOM     14  C   UNL A   1      34.325 -34.285 -30.785  0.00  0.00    -0.047 C 
ATOM     15  C   UNL A   1      34.326 -34.634 -29.305  0.00  0.00    -0.049 C 
ATOM     16  C   UNL A   1      35.179 -35.875 -29.048  0.00  0.00    -0.024 C 
ENDBRANCH   1   3
BRANCH   1  17
ATOM     17  C   UNL A   1      37.241 -39.099 -28.793  0.00  0.00    +0.009 C 
BRANCH  17  18
ATOM     18  C   UNL A   1      36.297 -39.152 -29.996  0.00  0.00    -0.036 C 
BRANCH  18  19
ATOM     19  C   UNL A   1      35.072 -40.020 -29.711  0.00  0.00    -0.036 C 
BRANCH  19  20
ATOM     20  C   UNL A   1      34.906 -40.262 -28.213  0.00  0.00    +0.012 C 
BRANCH  20  23
ATOM     21  C   UNL A   1      33.965 -38.519 -26.737  0.00  0.00    +0.220 C 
ATOM     22  O   UNL A   1      35.063 -38.211 -26.288  0.00  0.00    -0.275 OA
ATOM     23  N   UNL A   1      33.786 -39.517 -27.674  0.00  0.00    -0.315 N 
ATOM     24  H   UNL A   1      32.876 -39.727 -27.984  0.00  0.00    +0.000 HD
BRANCH  21  25
ATOM     25  C   UNL A   1      32.684 -37.841 -26.330  0.00  0.00    +0.082 C 
BRANCH  25  27
ATOM     26  C   UNL A   1      31.314 -35.755 -27.012  0.00  0.00    -0.006 C 
ATOM     27  C   UNL A   1      32.030 -37.020 -27.410  0.00  0.00    +0.139 C 
ATOM     28  O   UNL A   1      32.003 -37.421 -28.577  0.00  0.00    -0.297 OA
ENDBRANCH  25  27
ENDBRANCH  21  25
ENDBRANCH  20  23
ENDBRANCH  19  20
ENDBRANCH  18  19
ENDBRANCH  17  18
ENDBRANCH   1  17
TORSDOF 8
ENDMDL
MODEL 11
REMARK VINA RESULT:    -6.410      3.141      5.887
REMARK INTER + INTRA:         -11.060
REMARK INTER:                  -9.942
REMARK INTRA:                  -1.118
REMARK UNBOUND:                -1.652
REMARK  Name = cpd139.pdb
REMARK  9 active torsions:
REMARK  status: ('A' for Active; 'I' for Inactive)
REMARK    1  A    between atoms: C_1  and  C_2
REMARK    2  A    between atoms: C_2  and  C_4
REMARK    3  A    between atoms: C_4  and  C_5
REMARK    4  A    between atoms: N_7  and  C_8
REMARK    5  A    between atoms: C_8  and  C_9
REMARK    6  A    between atoms: C_9  and  C_10
REMARK    7  A    between atoms: C_10  and  C_11
REMARK    8  A    between atoms: C_11  and  N_12
REMARK    9  A    between atoms: N_12  and  C_13
REMARK                            x       y       z     vdW  Elec       q    Type
REMARK                         _______ _______ _______ _____ _____    ______ ____
ROOT
ATOM      1  N   UNL A   1      37.376 -37.954 -28.243  0.00  0.00    -0.343 N 
ATOM      2  H   UNL A   1      37.414 -37.701 -27.293  0.00  0.00    +0.000 HD
ENDROOT
BRANCH   1   3
ATOM      3  C   UNL A   1      37.528 -37.032 -29.323  0.00  0.00    +0.041 A 
ATOM      4  C   UNL A   1      36.491 -36.131 -29.645  0.00  0.00    -0.005 A 
ATOM      5  C   UNL A   1      36.724 -35.221 -30.679  0.00  0.00    +0.047 A 
ATOM      6  N   UNL A   1      37.903 -35.129 -31.338  0.00  0.00    -0.251 NA
ATOM      7  C   UNL A   1      38.892 -35.976 -31.021  0.00  0.00    +0.073 A 
ATOM      8  C   UNL A   1      40.090 -35.876 -31.717  0.00  0.00    -0.036 A 
ATOM      9  C   UNL A   1      41.168 -36.728 -31.466  0.00  0.00    -0.060 A 
ATOM     10  C   UNL A   1      41.047 -37.714 -30.498  0.00  0.00    -0.061 A 
ATOM     11  C   UNL A   1      39.855 -37.830 -29.786  0.00  0.00    -0.051 A 
ATOM     12  C   UNL A   1      38.764 -36.959 -30.021  0.00  0.00    +0.021 A 
ATOM     13  C   UNL A   1      35.683 -34.217 -31.105  0.00  0.00    -0.010 C 
ATOM     14  C   UNL A   1      34.270 -34.601 -30.687  0.00  0.00    -0.047 C 
ATOM     15  C   UNL A   1      34.255 -34.974 -29.213  0.00  0.00    -0.049 C 
ATOM     16  C   UNL A   1      35.145 -36.189 -28.959  0.00  0.00    -0.024 C 
ENDBRANCH   1   3
BRANCH   1  17
ATOM     17  C   UNL A   1      37.156 -39.326 -28.721  0.00  0.00    +0.009 C 
BRANCH  17  18
ATOM     18  C   UNL A   1      35.735 -39.756 -28.356  0.00  0.00    -0.036 C 
BRANCH  18  19
ATOM     19  C   UNL A   1      34.916 -40.106 -29.598  0.00  0.00    -0.036 C 
BRANCH  19  20
ATOM     20  C   UNL A   1      35.733 -39.900 -30.870  0.00  0.00    +0.012 C 
BRANCH  20  23
ATOM     21  C   UNL A   1      34.289 -40.291 -32.836  0.00  0.00    +0.220 C 
ATOM     22  O   UNL A   1      33.766 -39.186 -32.756  0.00  0.00    -0.275 OA
ATOM     23  N   UNL A   1      35.254 -40.734 -31.953  0.00  0.00    -0.315 N 
ATOM     24  H   UNL A   1      35.624 -41.640 -32.062  0.00  0.00    +0.000 HD
BRANCH  21  25
ATOM     25  C   UNL A   1      33.953 -41.291 -33.909  0.00  0.00    +0.082 C 
BRANCH  25  27
ATOM     26  C   UNL A   1      32.508 -43.361 -34.478  0.00  0.00    -0.006 C 
ATOM     27  C   UNL A   1      33.159 -42.482 -33.440  0.00  0.00    +0.139 C 
ATOM     28  O   UNL A   1      32.970 -42.680 -32.237  0.00  0.00    -0.297 OA
ENDBRANCH  25  27
ENDBRANCH  21  25
ENDBRANCH  20  23
ENDBRANCH  19  20
ENDBRANCH  18  19
ENDBRANCH  17  18
ENDBRANCH   1  17
TORSDOF 8
ENDMDL
MODEL 12
REMARK VINA RESULT:    -6.365      2.218      4.046
REMARK INTER + INTRA:         -10.995
REMARK INTER:                  -9.612
REMARK INTRA:                  -1.383
REMARK UNBOUND:                -1.652
REMARK  Name = cpd139.pdb
REMARK  9 active torsions:
REMARK  status: ('A' for Active; 'I' for Inactive)
REMARK    1  A    between atoms: C_1  and  C_2
REMARK    2  A    between atoms: C_2  and  C_4
REMARK    3  A    between atoms: C_4  and  C_5
REMARK    4  A    between atoms: N_7  and  C_8
REMARK    5  A    between atoms: C_8  and  C_9
REMARK    6  A    between atoms: C_9  and  C_10
REMARK    7  A    between atoms: C_10  and  C_11
REMARK    8  A    between atoms: C_11  and  N_12
REMARK    9  A    between atoms: N_12  and  C_13
REMARK                            x       y       z     vdW  Elec       q    Type
REMARK                         _______ _______ _______ _____ _____    ______ ____
ROOT
ATOM      1  N   UNL A   1      37.534 -37.857 -28.200  0.00  0.00    -0.343 N 
ATOM      2  H   UNL A   1      37.390 -37.633 -27.252  0.00  0.00    +0.000 HD
ENDROOT
BRANCH   1   3
ATOM      3  C   UNL A   1      37.672 -36.888 -29.239  0.00  0.00    +0.041 A 
ATOM      4  C   UNL A   1      38.859 -36.820 -30.000  0.00  0.00    -0.005 A 
ATOM      5  C   UNL A   1      38.911 -35.883 -31.035  0.00  0.00    +0.047 A 
ATOM      6  N   UNL A   1      37.867 -35.089 -31.372  0.00  0.00    -0.251 NA
ATOM      7  C   UNL A   1      36.736 -35.164 -30.658  0.00  0.00    +0.073 A 
ATOM      8  C   UNL A   1      35.681 -34.331 -31.009  0.00  0.00    -0.036 A 
ATOM      9  C   UNL A   1      34.472 -34.331 -30.310  0.00  0.00    -0.060 A 
ATOM     10  C   UNL A   1      34.310 -35.178 -29.224  0.00  0.00    -0.061 A 
ATOM     11  C   UNL A   1      35.355 -36.023 -28.856  0.00  0.00    -0.051 A 
ATOM     12  C   UNL A   1      36.577 -36.045 -29.571  0.00  0.00    +0.021 A 
ATOM     13  C   UNL A   1      40.130 -35.726 -31.907  0.00  0.00    -0.010 C 
ATOM     14  C   UNL A   1      41.399 -36.279 -31.272  0.00  0.00    -0.047 C 
ATOM     15  C   UNL A   1      41.141 -37.685 -30.753  0.00  0.00    -0.049 C 
ATOM     16  C   UNL A   1      40.066 -37.667 -29.668  0.00  0.00    -0.024 C 
ENDBRANCH   1   3
BRANCH   1  17
ATOM     17  C   UNL A   1      37.630 -39.230 -28.716  0.00  0.00    +0.009 C 
BRANCH  17  18
ATOM     18  C   UNL A   1      36.255 -39.664 -29.226  0.00  0.00    -0.036 C 
BRANCH  18  19
ATOM     19  C   UNL A   1      35.192 -39.568 -28.131  0.00  0.00    -0.036 C 
BRANCH  19  20
ATOM     20  C   UNL A   1      33.799 -39.398 -28.732  0.00  0.00    +0.012 C 
BRANCH  20  23
ATOM     21  C   UNL A   1      32.976 -38.249 -30.757  0.00  0.00    +0.220 C 
ATOM     22  O   UNL A   1      32.078 -37.677 -30.150  0.00  0.00    -0.275 OA
ATOM     23  N   UNL A   1      33.862 -39.118 -30.152  0.00  0.00    -0.315 N 
ATOM     24  H   UNL A   1      34.552 -39.558 -30.698  0.00  0.00    +0.000 HD
BRANCH  21  25
ATOM     25  C   UNL A   1      33.229 -38.064 -32.230  0.00  0.00    +0.082 C 
BRANCH  25  27
ATOM     26  C   UNL A   1      32.169 -39.749 -33.883  0.00  0.00    -0.006 C 
ATOM     27  C   UNL A   1      33.336 -39.342 -33.020  0.00  0.00    +0.139 C 
ATOM     28  O   UNL A   1      34.315 -40.082 -32.892  0.00  0.00    -0.297 OA
ENDBRANCH  25  27
ENDBRANCH  21  25
ENDBRANCH  20  23
ENDBRANCH  19  20
ENDBRANCH  18  19
ENDBRANCH  17  18
ENDBRANCH   1  17
TORSDOF 8
ENDMDL
MODEL 13
REMARK VINA RESULT:    -6.164     16.108     18.780
REMARK INTER + INTRA:         -10.699
REMARK INTER:                  -9.328
REMARK INTRA:                  -1.370
REMARK UNBOUND:                -1.652
REMARK  Name = cpd139.pdb
REMARK  9 active torsions:
REMARK  status: ('A' for Active; 'I' for Inactive)
REMARK    1  A    between atoms: C_1  and  C_2
REMARK    2  A    between atoms: C_2  and  C_4
REMARK    3  A    between atoms: C_4  and  C_5
REMARK    4  A    between atoms: N_7  and  C_8
REMARK    5  A    between atoms: C_8  and  C_9
REMARK    6  A    between atoms: C_9  and  C_10
REMARK    7  A    between atoms: C_10  and  C_11
REMARK    8  A    between atoms: C_11  and  N_12
REMARK    9  A    between atoms: N_12  and  C_13
REMARK                            x       y       z     vdW  Elec       q    Type
REMARK                         _______ _______ _______ _____ _____    ______ ____
ROOT
ATOM      1  N   UNL A   1      43.086 -19.657 -35.726  0.00  0.00    -0.343 N 
ATOM      2  H   UNL A   1      42.822 -18.709 -35.714  0.00  0.00    +0.000 HD
ENDROOT
BRANCH   1   3
ATOM      3  C   UNL A   1      42.247 -20.716 -36.188  0.00  0.00    +0.041 A 
ATOM      4  C   UNL A   1      41.390 -21.391 -35.293  0.00  0.00    -0.005 A 
ATOM      5  C   UNL A   1      40.557 -22.382 -35.819  0.00  0.00    +0.047 A 
ATOM      6  N   UNL A   1      40.497 -22.679 -37.139  0.00  0.00    -0.251 NA
ATOM      7  C   UNL A   1      41.302 -22.027 -37.989  0.00  0.00    +0.073 A 
ATOM      8  C   UNL A   1      41.235 -22.356 -39.338  0.00  0.00    -0.036 A 
ATOM      9  C   UNL A   1      42.048 -21.740 -40.292  0.00  0.00    -0.060 A 
ATOM     10  C   UNL A   1      42.960 -20.774 -39.891  0.00  0.00    -0.061 A 
ATOM     11  C   UNL A   1      43.041 -20.428 -38.544  0.00  0.00    -0.051 A 
ATOM     12  C   UNL A   1      42.207 -21.033 -37.573  0.00  0.00    +0.021 A 
ATOM     13  C   UNL A   1      39.605 -23.165 -34.952  0.00  0.00    -0.010 C 
ATOM     14  C   UNL A   1      39.979 -23.143 -33.476  0.00  0.00    -0.047 C 
ATOM     15  C   UNL A   1      40.239 -21.711 -33.035  0.00  0.00    -0.049 C 
ATOM     16  C   UNL A   1      41.417 -21.119 -33.807  0.00  0.00    -0.024 C 
ENDBRANCH   1   3
BRANCH   1  17
ATOM     17  C   UNL A   1      44.392 -20.153 -35.270  0.00  0.00    +0.009 C 
BRANCH  17  18
ATOM     18  C   UNL A   1      45.494 -19.315 -35.920  0.00  0.00    -0.036 C 
BRANCH  18  19
ATOM     19  C   UNL A   1      46.364 -20.157 -36.854  0.00  0.00    -0.036 C 
BRANCH  19  20
ATOM     20  C   UNL A   1      46.878 -19.323 -38.025  0.00  0.00    +0.012 C 
BRANCH  20  23
ATOM     21  C   UNL A   1      46.767 -19.770 -40.451  0.00  0.00    +0.220 C 
ATOM     22  O   UNL A   1      46.146 -18.739 -40.682  0.00  0.00    -0.275 OA
ATOM     23  N   UNL A   1      47.160 -20.147 -39.182  0.00  0.00    -0.315 N 
ATOM     24  H   UNL A   1      47.643 -20.996 -39.062  0.00  0.00    +0.000 HD
BRANCH  21  25
ATOM     25  C   UNL A   1      47.185 -20.742 -41.522  0.00  0.00    +0.082 C 
BRANCH  25  27
ATOM     26  C   UNL A   1      45.351 -22.167 -42.663  0.00  0.00    -0.006 C 
ATOM     27  C   UNL A   1      46.380 -22.015 -41.572  0.00  0.00    +0.139 C 
ATOM     28  O   UNL A   1      46.496 -22.869 -40.690  0.00  0.00    -0.297 OA
ENDBRANCH  25  27
ENDBRANCH  21  25
ENDBRANCH  20  23
ENDBRANCH  19  20
ENDBRANCH  18  19
ENDBRANCH  17  18
ENDBRANCH   1  17
TORSDOF 8
ENDMDL
MODEL 14
REMARK VINA RESULT:    -6.097     15.719     18.099
REMARK INTER + INTRA:         -10.601
REMARK INTER:                  -9.475
REMARK INTRA:                  -1.126
REMARK UNBOUND:                -1.652
REMARK  Name = cpd139.pdb
REMARK  9 active torsions:
REMARK  status: ('A' for Active; 'I' for Inactive)
REMARK    1  A    between atoms: C_1  and  C_2
REMARK    2  A    between atoms: C_2  and  C_4
REMARK    3  A    between atoms: C_4  and  C_5
REMARK    4  A    between atoms: N_7  and  C_8
REMARK    5  A    between atoms: C_8  and  C_9
REMARK    6  A    between atoms: C_9  and  C_10
REMARK    7  A    between atoms: C_10  and  C_11
REMARK    8  A    between atoms: C_11  and  N_12
REMARK    9  A    between atoms: N_12  and  C_13
REMARK                            x       y       z     vdW  Elec       q    Type
REMARK                         _______ _______ _______ _____ _____    ______ ____
ROOT
ATOM      1  N   UNL A   1      43.179 -20.617 -40.150  0.00  0.00    -0.343 N 
ATOM      2  H   UNL A   1      42.900 -19.850 -40.700  0.00  0.00    +0.000 HD
ENDROOT
BRANCH   1   3
ATOM      3  C   UNL A   1      44.511 -20.818 -39.676  0.00  0.00    +0.041 A 
ATOM      4  C   UNL A   1      44.887 -20.375 -38.390  0.00  0.00    -0.005 A 
ATOM      5  C   UNL A   1      46.191 -20.649 -37.968  0.00  0.00    +0.047 A 
ATOM      6  N   UNL A   1      47.077 -21.359 -38.705  0.00  0.00    -0.251 NA
ATOM      7  C   UNL A   1      46.714 -21.791 -39.920  0.00  0.00    +0.073 A 
ATOM      8  C   UNL A   1      47.642 -22.506 -40.667  0.00  0.00    -0.036 A 
ATOM      9  C   UNL A   1      47.356 -22.979 -41.949  0.00  0.00    -0.060 A 
ATOM     10  C   UNL A   1      46.112 -22.727 -42.509  0.00  0.00    -0.061 A 
ATOM     11  C   UNL A   1      45.165 -22.014 -41.775  0.00  0.00    -0.051 A 
ATOM     12  C   UNL A   1      45.440 -21.547 -40.467  0.00  0.00    +0.021 A 
ATOM     13  C   UNL A   1      46.696 -20.219 -36.614  0.00  0.00    -0.010 C 
ATOM     14  C   UNL A   1      45.882 -19.087 -36.000  0.00  0.00    -0.047 C 
ATOM     15  C   UNL A   1      44.401 -19.425 -36.069  0.00  0.00    -0.049 C 
ATOM     16  C   UNL A   1      43.952 -19.565 -37.522  0.00  0.00    -0.024 C 
ENDBRANCH   1   3
BRANCH   1  17
ATOM     17  C   UNL A   1      42.276 -21.693 -39.718  0.00  0.00    +0.009 C 
BRANCH  17  18
ATOM     18  C   UNL A   1      40.903 -21.093 -39.414  0.00  0.00    -0.036 C 
BRANCH  18  19
ATOM     19  C   UNL A   1      40.689 -20.907 -37.912  0.00  0.00    -0.036 C 
BRANCH  19  20
ATOM     20  C   UNL A   1      41.391 -22.006 -37.118  0.00  0.00    +0.012 C 
BRANCH  20  23
ATOM     21  C   UNL A   1      39.812 -23.038 -35.523  0.00  0.00    +0.220 C 
ATOM     22  O   UNL A   1      39.306 -23.752 -36.382  0.00  0.00    -0.275 OA
ATOM     23  N   UNL A   1      40.830 -22.144 -35.790  0.00  0.00    -0.315 N 
ATOM     24  H   UNL A   1      41.184 -21.588 -35.059  0.00  0.00    +0.000 HD
BRANCH  21  25
ATOM     25  C   UNL A   1      39.393 -23.057 -34.078  0.00  0.00    +0.082 C 
BRANCH  25  27
ATOM     26  C   UNL A   1      39.120 -20.741 -32.958  0.00  0.00    -0.006 C 
ATOM     27  C   UNL A   1      39.974 -21.952 -33.234  0.00  0.00    +0.139 C 
ATOM     28  O   UNL A   1      41.148 -21.997 -32.858  0.00  0.00    -0.297 OA
ENDBRANCH  25  27
ENDBRANCH  21  25
ENDBRANCH  20  23
ENDBRANCH  19  20
ENDBRANCH  18  19
ENDBRANCH  17  18
ENDBRANCH   1  17
TORSDOF 8
ENDMDL
MODEL 15
REMARK VINA RESULT:    -6.096     15.523     17.644
REMARK INTER + INTRA:         -10.599
REMARK INTER:                  -9.500
REMARK INTRA:                  -1.099
REMARK UNBOUND:                -1.652
REMARK  Name = cpd139.pdb
REMARK  9 active torsions:
REMARK  status: ('A' for Active; 'I' for Inactive)
REMARK    1  A    between atoms: C_1  and  C_2
REMARK    2  A    between atoms: C_2  and  C_4
REMARK    3  A    between atoms: C_4  and  C_5
REMARK    4  A    between atoms: N_7  and  C_8
REMARK    5  A    between atoms: C_8  and  C_9
REMARK    6  A    between atoms: C_9  and  C_10
REMARK    7  A    between atoms: C_10  and  C_11
REMARK    8  A    between atoms: C_11  and  N_12
REMARK    9  A    between atoms: N_12  and  C_13
REMARK                            x       y       z     vdW  Elec       q    Type
REMARK                         _______ _______ _______ _____ _____    ______ ____
ROOT
ATOM      1  N   UNL A   1      42.509 -20.590 -39.654  0.00  0.00    -0.343 N 
ATOM      2  H   UNL A   1      42.149 -19.727 -39.963  0.00  0.00    +0.000 HD
ENDROOT
BRANCH   1   3
ATOM      3  C   UNL A   1      43.898 -20.848 -39.447  0.00  0.00    +0.041 A 
ATOM      4  C   UNL A   1      44.701 -21.327 -40.504  0.00  0.00    -0.005 A 
ATOM      5  C   UNL A   1      46.063 -21.509 -40.249  0.00  0.00    +0.047 A 
ATOM      6  N   UNL A   1      46.646 -21.199 -39.067  0.00  0.00    -0.251 NA
ATOM      7  C   UNL A   1      45.884 -20.731 -38.069  0.00  0.00    +0.073 A 
ATOM      8  C   UNL A   1      46.499 -20.432 -36.859  0.00  0.00    -0.036 A 
ATOM      9  C   UNL A   1      45.780 -19.956 -35.760  0.00  0.00    -0.060 A 
ATOM     10  C   UNL A   1      44.408 -19.781 -35.865  0.00  0.00    -0.061 A 
ATOM     11  C   UNL A   1      43.772 -20.073 -37.070  0.00  0.00    -0.051 A 
ATOM     12  C   UNL A   1      44.496 -20.537 -38.195  0.00  0.00    +0.021 A 
ATOM     13  C   UNL A   1      47.010 -22.017 -41.306  0.00  0.00    -0.010 C 
ATOM     14  C   UNL A   1      46.307 -22.754 -42.439  0.00  0.00    -0.047 C 
ATOM     15  C   UNL A   1      45.143 -21.919 -42.949  0.00  0.00    -0.049 C 
ATOM     16  C   UNL A   1      44.112 -21.706 -41.843  0.00  0.00    -0.024 C 
ENDBRANCH   1   3
BRANCH   1  17
ATOM     17  C   UNL A   1      41.682 -21.766 -39.351  0.00  0.00    +0.009 C 
BRANCH  17  18
ATOM     18  C   UNL A   1      40.237 -21.313 -39.139  0.00  0.00    -0.036 C 
BRANCH  18  19
ATOM     19  C   UNL A   1      39.698 -21.767 -37.782  0.00  0.00    -0.036 C 
BRANCH  19  20
ATOM     20  C   UNL A   1      40.823 -22.289 -36.892  0.00  0.00    +0.012 C 
BRANCH  20  23
ATOM     21  C   UNL A   1      40.538 -21.567 -34.547  0.00  0.00    +0.220 C 
ATOM     22  O   UNL A   1      41.094 -20.492 -34.740  0.00  0.00    -0.275 OA
ATOM     23  N   UNL A   1      40.367 -22.516 -35.536  0.00  0.00    -0.315 N 
ATOM     24  H   UNL A   1      39.925 -23.367 -35.314  0.00  0.00    +0.000 HD
BRANCH  21  25
ATOM     25  C   UNL A   1      39.965 -21.977 -33.217  0.00  0.00    +0.082 C 
BRANCH  25  27
ATOM     26  C   UNL A   1      41.247 -23.948 -32.136  0.00  0.00    -0.006 C 
ATOM     27  C   UNL A   1      40.056 -23.450 -32.914  0.00  0.00    +0.139 C 
ATOM     28  O   UNL A   1      39.225 -24.239 -33.370  0.00  0.00    -0.297 OA
ENDBRANCH  25  27
ENDBRANCH  21  25
ENDBRANCH  20  23
ENDBRANCH  19  20
ENDBRANCH  18  19
ENDBRANCH  17  18
ENDBRANCH   1  17
TORSDOF 8
ENDMDL
MODEL 16
REMARK VINA RESULT:    -6.085      1.961      4.198
REMARK INTER + INTRA:         -10.583
REMARK INTER:                  -9.422
REMARK INTRA:                  -1.161
REMARK UNBOUND:                -1.652
REMARK  Name = cpd139.pdb
REMARK  9 active torsions:
REMARK  status: ('A' for Active; 'I' for Inactive)
REMARK    1  A    between atoms: C_1  and  C_2
REMARK    2  A    between atoms: C_2  and  C_4
REMARK    3  A    between atoms: C_4  and  C_5
REMARK    4  A    between atoms: N_7  and  C_8
REMARK    5  A    between atoms: C_8  and  C_9
REMARK    6  A    between atoms: C_9  and  C_10
REMARK    7  A    between atoms: C_10  and  C_11
REMARK    8  A    between atoms: C_11  and  N_12
REMARK    9  A    between atoms: N_12  and  C_13
REMARK                            x       y       z     vdW  Elec       q    Type
REMARK                         _______ _______ _______ _____ _____    ______ ____
ROOT
ATOM      1  N   UNL A   1      36.397 -34.892 -31.598  0.00  0.00    -0.343 N 
ATOM      2  H   UNL A   1      36.115 -35.003 -32.535  0.00  0.00    +0.000 HD
ENDROOT
BRANCH   1   3
ATOM      3  C   UNL A   1      37.179 -35.847 -30.881  0.00  0.00    +0.041 A 
ATOM      4  C   UNL A   1      36.553 -36.851 -30.112  0.00  0.00    -0.005 A 
ATOM      5  C   UNL A   1      37.375 -37.786 -29.476  0.00  0.00    +0.047 A 
ATOM      6  N   UNL A   1      38.722 -37.803 -29.610  0.00  0.00    -0.251 NA
ATOM      7  C   UNL A   1      39.314 -36.858 -30.352  0.00  0.00    +0.073 A 
ATOM      8  C   UNL A   1      40.699 -36.884 -30.465  0.00  0.00    -0.036 A 
ATOM      9  C   UNL A   1      41.400 -35.929 -31.204  0.00  0.00    -0.060 A 
ATOM     10  C   UNL A   1      40.705 -34.912 -31.841  0.00  0.00    -0.061 A 
ATOM     11  C   UNL A   1      39.316 -34.868 -31.742  0.00  0.00    -0.051 A 
ATOM     12  C   UNL A   1      38.595 -35.844 -31.012  0.00  0.00    +0.021 A 
ATOM     13  C   UNL A   1      36.810 -38.898 -28.630  0.00  0.00    -0.010 C 
ATOM     14  C   UNL A   1      35.394 -38.621 -28.140  0.00  0.00    -0.047 C 
ATOM     15  C   UNL A   1      34.525 -38.181 -29.309  0.00  0.00    -0.049 C 
ATOM     16  C   UNL A   1      35.055 -36.881 -29.910  0.00  0.00    -0.024 C 
ENDBRANCH   1   3
BRANCH   1  17
ATOM     17  C   UNL A   1      36.064 -33.724 -30.771  0.00  0.00    +0.009 C 
BRANCH  17  18
ATOM     18  C   UNL A   1      35.167 -32.786 -31.579  0.00  0.00    -0.036 C 
BRANCH  18  19
ATOM     19  C   UNL A   1      33.703 -32.908 -31.160  0.00  0.00    -0.036 C 
BRANCH  19  20
ATOM     20  C   UNL A   1      33.432 -32.126 -29.877  0.00  0.00    +0.012 C 
BRANCH  20  23
ATOM     21  C   UNL A   1      31.623 -33.277 -28.650  0.00  0.00    +0.220 C 
ATOM     22  O   UNL A   1      30.747 -32.811 -29.369  0.00  0.00    -0.275 OA
ATOM     23  N   UNL A   1      32.964 -32.992 -28.814  0.00  0.00    -0.315 N 
ATOM     24  H   UNL A   1      33.618 -33.387 -28.193  0.00  0.00    +0.000 HD
BRANCH  21  25
ATOM     25  C   UNL A   1      31.345 -34.224 -27.513  0.00  0.00    +0.082 C 
BRANCH  25  27
ATOM     26  C   UNL A   1      31.160 -36.747 -28.055  0.00  0.00    -0.006 C 
ATOM     27  C   UNL A   1      32.006 -35.572 -27.634  0.00  0.00    +0.139 C 
ATOM     28  O   UNL A   1      33.185 -35.727 -27.308  0.00  0.00    -0.297 OA
ENDBRANCH  25  27
ENDBRANCH  21  25
ENDBRANCH  20  23
ENDBRANCH  19  20
ENDBRANCH  18  19
ENDBRANCH  17  18
ENDBRANCH   1  17
TORSDOF 8
ENDMDL
MODEL 17
REMARK VINA RESULT:    -6.002     16.332     18.707
REMARK INTER + INTRA:         -10.462
REMARK INTER:                  -9.028
REMARK INTRA:                  -1.434
REMARK UNBOUND:                -1.652
REMARK  Name = cpd139.pdb
REMARK  9 active torsions:
REMARK  status: ('A' for Active; 'I' for Inactive)
REMARK    1  A    between atoms: C_1  and  C_2
REMARK    2  A    between atoms: C_2  and  C_4
REMARK    3  A    between atoms: C_4  and  C_5
REMARK    4  A    between atoms: N_7  and  C_8
REMARK    5  A    between atoms: C_8  and  C_9
REMARK    6  A    between atoms: C_9  and  C_10
REMARK    7  A    between atoms: C_10  and  C_11
REMARK    8  A    between atoms: C_11  and  N_12
REMARK    9  A    between atoms: N_12  and  C_13
REMARK                            x       y       z     vdW  Elec       q    Type
REMARK                         _______ _______ _______ _____ _____    ______ ____
ROOT
ATOM      1  N   UNL A   1      43.482 -19.523 -36.257  0.00  0.00    -0.343 N 
ATOM      2  H   UNL A   1      43.308 -18.568 -36.426  0.00  0.00    +0.000 HD
ENDROOT
BRANCH   1   3
ATOM      3  C   UNL A   1      42.540 -20.564 -36.514  0.00  0.00    +0.041 A 
ATOM      4  C   UNL A   1      42.373 -21.070 -37.821  0.00  0.00    -0.005 A 
ATOM      5  C   UNL A   1      41.473 -22.125 -37.997  0.00  0.00    +0.047 A 
ATOM      6  N   UNL A   1      40.806 -22.710 -36.974  0.00  0.00    -0.251 NA
ATOM      7  C   UNL A   1      40.976 -22.238 -35.732  0.00  0.00    +0.073 A 
ATOM      8  C   UNL A   1      40.272 -22.843 -34.698  0.00  0.00    -0.036 A 
ATOM      9  C   UNL A   1      40.375 -22.406 -33.375  0.00  0.00    -0.060 A 
ATOM     10  C   UNL A   1      41.197 -21.329 -33.074  0.00  0.00    -0.061 A 
ATOM     11  C   UNL A   1      41.913 -20.709 -34.096  0.00  0.00    -0.051 A 
ATOM     12  C   UNL A   1      41.830 -21.158 -35.436  0.00  0.00    +0.021 A 
ATOM     13  C   UNL A   1      41.219 -22.737 -39.350  0.00  0.00    -0.010 C 
ATOM     14  C   UNL A   1      41.611 -21.827 -40.506  0.00  0.00    -0.047 C 
ATOM     15  C   UNL A   1      43.018 -21.294 -40.283  0.00  0.00    -0.049 C 
ATOM     16  C   UNL A   1      43.076 -20.453 -39.009  0.00  0.00    -0.024 C 
ENDBRANCH   1   3
BRANCH   1  17
ATOM     17  C   UNL A   1      44.741 -20.046 -35.708  0.00  0.00    +0.009 C 
BRANCH  17  18
ATOM     18  C   UNL A   1      45.837 -19.906 -36.765  0.00  0.00    -0.036 C 
BRANCH  18  19
ATOM     19  C   UNL A   1      45.780 -18.544 -37.458  0.00  0.00    -0.036 C 
BRANCH  19  20
ATOM     20  C   UNL A   1      47.016 -18.317 -38.324  0.00  0.00    +0.012 C 
BRANCH  20  23
ATOM     21  C   UNL A   1      46.587 -19.454 -40.474  0.00  0.00    +0.220 C 
ATOM     22  O   UNL A   1      45.797 -18.595 -40.849  0.00  0.00    -0.275 OA
ATOM     23  N   UNL A   1      47.225 -19.411 -39.251  0.00  0.00    -0.315 N 
ATOM     24  H   UNL A   1      47.837 -20.141 -39.002  0.00  0.00    +0.000 HD
BRANCH  21  25
ATOM     25  C   UNL A   1      46.964 -20.651 -41.306  0.00  0.00    +0.082 C 
BRANCH  25  27
ATOM     26  C   UNL A   1      47.908 -23.052 -41.103  0.00  0.00    -0.006 C 
ATOM     27  C   UNL A   1      47.040 -21.951 -40.548  0.00  0.00    +0.139 C 
ATOM     28  O   UNL A   1      46.339 -22.141 -39.551  0.00  0.00    -0.297 OA
ENDBRANCH  25  27
ENDBRANCH  21  25
ENDBRANCH  20  23
ENDBRANCH  19  20
ENDBRANCH  18  19
ENDBRANCH  17  18
ENDBRANCH   1  17
TORSDOF 8
ENDMDL
MODEL 18
REMARK VINA RESULT:    -5.970     17.535     19.935
REMARK INTER + INTRA:         -10.414
REMARK INTER:                  -9.353
REMARK INTRA:                  -1.061
REMARK UNBOUND:                -1.652
REMARK  Name = cpd139.pdb
REMARK  9 active torsions:
REMARK  status: ('A' for Active; 'I' for Inactive)
REMARK    1  A    between atoms: C_1  and  C_2
REMARK    2  A    between atoms: C_2  and  C_4
REMARK    3  A    between atoms: C_4  and  C_5
REMARK    4  A    between atoms: N_7  and  C_8
REMARK    5  A    between atoms: C_8  and  C_9
REMARK    6  A    between atoms: C_9  and  C_10
REMARK    7  A    between atoms: C_10  and  C_11
REMARK    8  A    between atoms: C_11  and  N_12
REMARK    9  A    between atoms: N_12  and  C_13
REMARK                            x       y       z     vdW  Elec       q    Type
REMARK                         _______ _______ _______ _____ _____    ______ ____
ROOT
ATOM      1  N   UNL A   1      46.770 -20.396 -37.878  0.00  0.00    -0.343 N 
ATOM      2  H   UNL A   1      46.906 -20.851 -37.016  0.00  0.00    +0.000 HD
ENDROOT
BRANCH   1   3
ATOM      3  C   UNL A   1      46.075 -20.972 -38.985  0.00  0.00    +0.041 A 
ATOM      4  C   UNL A   1      44.690 -20.759 -39.148  0.00  0.00    -0.005 A 
ATOM      5  C   UNL A   1      44.080 -21.307 -40.280  0.00  0.00    +0.047 A 
ATOM      6  N   UNL A   1      44.762 -21.975 -41.241  0.00  0.00    -0.251 NA
ATOM      7  C   UNL A   1      46.080 -22.164 -41.091  0.00  0.00    +0.073 A 
ATOM      8  C   UNL A   1      46.758 -22.864 -42.081  0.00  0.00    -0.036 A 
ATOM      9  C   UNL A   1      48.128 -23.123 -41.999  0.00  0.00    -0.060 A 
ATOM     10  C   UNL A   1      48.843 -22.678 -40.896  0.00  0.00    -0.061 A 
ATOM     11  C   UNL A   1      48.182 -21.972 -39.893  0.00  0.00    -0.051 A 
ATOM     12  C   UNL A   1      46.797 -21.689 -39.977  0.00  0.00    +0.021 A 
ATOM     13  C   UNL A   1      42.607 -21.141 -40.550  0.00  0.00    -0.010 C 
ATOM     14  C   UNL A   1      41.802 -20.793 -39.304  0.00  0.00    -0.047 C 
ATOM     15  C   UNL A   1      42.468 -19.638 -38.572  0.00  0.00    -0.049 C 
ATOM     16  C   UNL A   1      43.868 -20.035 -38.107  0.00  0.00    -0.024 C 
ENDBRANCH   1   3
BRANCH   1  17
ATOM     17  C   UNL A   1      47.258 -19.043 -38.181  0.00  0.00    +0.009 C 
BRANCH  17  18
ATOM     18  C   UNL A   1      46.841 -18.102 -37.050  0.00  0.00    -0.036 C 
BRANCH  18  19
ATOM     19  C   UNL A   1      47.718 -18.288 -35.812  0.00  0.00    -0.036 C 
BRANCH  19  20
ATOM     20  C   UNL A   1      47.020 -19.159 -34.771  0.00  0.00    +0.012 C 
BRANCH  20  23
ATOM     21  C   UNL A   1      44.892 -18.413 -33.763  0.00  0.00    +0.220 C 
ATOM     22  O   UNL A   1      45.436 -18.029 -32.734  0.00  0.00    -0.275 OA
ATOM     23  N   UNL A   1      45.582 -18.989 -34.811  0.00  0.00    -0.315 N 
ATOM     24  H   UNL A   1      45.085 -19.291 -35.605  0.00  0.00    +0.000 HD
BRANCH  21  25
ATOM     25  C   UNL A   1      43.412 -18.293 -34.012  0.00  0.00    +0.082 C 
BRANCH  25  27
ATOM     26  C   UNL A   1      42.314 -20.497 -34.806  0.00  0.00    -0.006 C 
ATOM     27  C   UNL A   1      42.613 -19.529 -33.690  0.00  0.00    +0.139 C 
ATOM     28  O   UNL A   1      42.139 -19.697 -32.564  0.00  0.00    -0.297 OA
ENDBRANCH  25  27
ENDBRANCH  21  25
ENDBRANCH  20  23
ENDBRANCH  19  20
ENDBRANCH  18  19
ENDBRANCH  17  18
ENDBRANCH   1  17
TORSDOF 8
ENDMDL
MODEL 19
REMARK VINA RESULT:    -5.684     18.826     21.349
REMARK INTER + INTRA:          -9.995
REMARK INTER:                  -8.672
REMARK INTRA:                  -1.323
REMARK UNBOUND:                -1.652
REMARK  Name = cpd139.pdb
REMARK  9 active torsions:
REMARK  status: ('A' for Active; 'I' for Inactive)
REMARK    1  A    between atoms: C_1  and  C_2
REMARK    2  A    between atoms: C_2  and  C_4
REMARK    3  A    between atoms: C_4  and  C_5
REMARK    4  A    between atoms: N_7  and  C_8
REMARK    5  A    between atoms: C_8  and  C_9
REMARK    6  A    between atoms: C_9  and  C_10
REMARK    7  A    between atoms: C_10  and  C_11
REMARK    8  A    between atoms: C_11  and  N_12
REMARK    9  A    between atoms: N_12  and  C_13
REMARK                            x       y       z     vdW  Elec       q    Type
REMARK                         _______ _______ _______ _____ _____    ______ ____
ROOT
ATOM      1  N   UNL A   1      43.346 -20.143 -40.621  0.00  0.00    -0.343 N 
ATOM      2  H   UNL A   1      42.552 -19.902 -41.151  0.00  0.00    +0.000 HD
ENDROOT
BRANCH   1   3
ATOM      3  C   UNL A   1      44.666 -19.676 -40.901  0.00  0.00    +0.041 A 
ATOM      4  C   UNL A   1      45.006 -18.323 -40.690  0.00  0.00    -0.005 A 
ATOM      5  C   UNL A   1      46.329 -17.943 -40.935  0.00  0.00    +0.047 A 
ATOM      6  N   UNL A   1      47.296 -18.815 -41.307  0.00  0.00    -0.251 NA
ATOM      7  C   UNL A   1      46.974 -20.102 -41.494  0.00  0.00    +0.073 A 
ATOM      8  C   UNL A   1      47.978 -20.978 -41.889  0.00  0.00    -0.036 A 
ATOM      9  C   UNL A   1      47.729 -22.333 -42.123  0.00  0.00    -0.060 A 
ATOM     10  C   UNL A   1      46.443 -22.828 -41.968  0.00  0.00    -0.061 A 
ATOM     11  C   UNL A   1      45.423 -21.967 -41.570  0.00  0.00    -0.051 A 
ATOM     12  C   UNL A   1      45.669 -20.597 -41.311  0.00  0.00    +0.021 A 
ATOM     13  C   UNL A   1      46.798 -16.524 -40.742  0.00  0.00    -0.010 C 
ATOM     14  C   UNL A   1      45.663 -15.508 -40.757  0.00  0.00    -0.047 C 
ATOM     15  C   UNL A   1      44.555 -15.964 -39.820  0.00  0.00    -0.049 C 
ATOM     16  C   UNL A   1      43.973 -17.296 -40.289  0.00  0.00    -0.024 C 
ENDBRANCH   1   3
BRANCH   1  17
ATOM     17  C   UNL A   1      43.315 -21.026 -39.447  0.00  0.00    +0.009 C 
BRANCH  17  18
ATOM     18  C   UNL A   1      43.654 -20.205 -38.202  0.00  0.00    -0.036 C 
BRANCH  18  19
ATOM     19  C   UNL A   1      43.163 -20.889 -36.926  0.00  0.00    -0.036 C 
BRANCH  19  20
ATOM     20  C   UNL A   1      43.819 -20.280 -35.689  0.00  0.00    +0.012 C 
BRANCH  20  23
ATOM     21  C   UNL A   1      46.003 -19.374 -34.976  0.00  0.00    +0.220 C 
ATOM     22  O   UNL A   1      45.691 -19.372 -33.790  0.00  0.00    -0.275 OA
ATOM     23  N   UNL A   1      45.151 -19.790 -35.979  0.00  0.00    -0.315 N 
ATOM     24  H   UNL A   1      45.455 -19.752 -36.914  0.00  0.00    +0.000 HD
BRANCH  21  25
ATOM     25  C   UNL A   1      47.352 -18.934 -35.478  0.00  0.00    +0.082 C 
BRANCH  25  27
ATOM     26  C   UNL A   1      47.159 -16.981 -37.164  0.00  0.00    -0.006 C 
ATOM     27  C   UNL A   1      47.371 -18.451 -36.905  0.00  0.00    +0.139 C 
ATOM     28  O   UNL A   1      47.465 -19.250 -37.840  0.00  0.00    -0.297 OA
ENDBRANCH  25  27
ENDBRANCH  21  25
ENDBRANCH  20  23
ENDBRANCH  19  20
ENDBRANCH  18  19
ENDBRANCH  17  18
ENDBRANCH   1  17
TORSDOF 8
ENDMDL
MODEL 20
REMARK VINA RESULT:    -5.514     17.314     19.584
REMARK INTER + INTRA:          -9.745
REMARK INTER:                  -8.785
REMARK INTRA:                  -0.960
REMARK UNBOUND:                -1.652
REMARK  Name = cpd139.pdb
REMARK  9 active torsions:
REMARK  status: ('A' for Active; 'I' for Inactive)
REMARK    1  A    between atoms: C_1  and  C_2
REMARK    2  A    between atoms: C_2  and  C_4
REMARK    3  A    between atoms: C_4  and  C_5
REMARK    4  A    between atoms: N_7  and  C_8
REMARK    5  A    between atoms: C_8  and  C_9
REMARK    6  A    between atoms: C_9  and  C_10
REMARK    7  A    between atoms: C_10  and  C_11
REMARK    8  A    between atoms: C_11  and  N_12
REMARK    9  A    between atoms: N_12  and  C_13
REMARK                            x       y       z     vdW  Elec       q    Type
REMARK                         _______ _______ _______ _____ _____    ______ ____
ROOT
ATOM      1  N   UNL A   1      43.512 -20.996 -37.061  0.00  0.00    -0.343 N 
ATOM      2  H   UNL A   1      43.329 -21.963 -37.045  0.00  0.00    +0.000 HD
ENDROOT
BRANCH   1   3
ATOM      3  C   UNL A   1      44.032 -20.261 -35.953  0.00  0.00    +0.041 A 
ATOM      4  C   UNL A   1      45.346 -19.746 -35.990  0.00  0.00    -0.005 A 
ATOM      5  C   UNL A   1      45.775 -18.993 -34.894  0.00  0.00    +0.047 A 
ATOM      6  N   UNL A   1      44.979 -18.692 -33.840  0.00  0.00    -0.251 NA
ATOM      7  C   UNL A   1      43.728 -19.170 -33.814  0.00  0.00    +0.073 A 
ATOM      8  C   UNL A   1      42.931 -18.863 -32.718  0.00  0.00    -0.036 A 
ATOM      9  C   UNL A   1      41.621 -19.332 -32.598  0.00  0.00    -0.060 A 
ATOM     10  C   UNL A   1      41.091 -20.138 -33.595  0.00  0.00    -0.061 A 
ATOM     11  C   UNL A   1      41.872 -20.456 -34.704  0.00  0.00    -0.051 A 
ATOM     12  C   UNL A   1      43.194 -19.969 -34.843  0.00  0.00    +0.021 A 
ATOM     13  C   UNL A   1      47.159 -18.398 -34.830  0.00  0.00    -0.010 C 
ATOM     14  C   UNL A   1      48.151 -19.080 -35.763  0.00  0.00    -0.047 C 
ATOM     15  C   UNL A   1      47.549 -19.192 -37.156  0.00  0.00    -0.049 C 
ATOM     16  C   UNL A   1      46.290 -20.056 -37.128  0.00  0.00    -0.024 C 
ENDBRANCH   1   3
BRANCH   1  17
ATOM     17  C   UNL A   1      43.282 -20.135 -38.230  0.00  0.00    +0.009 C 
BRANCH  17  18
ATOM     18  C   UNL A   1      43.496 -20.958 -39.500  0.00  0.00    -0.036 C 
BRANCH  18  19
ATOM     19  C   UNL A   1      43.163 -20.153 -40.756  0.00  0.00    -0.036 C 
BRANCH  19  20
ATOM     20  C   UNL A   1      44.408 -19.470 -41.316  0.00  0.00    +0.012 C 
BRANCH  20  23
ATOM     21  C   UNL A   1      46.731 -20.310 -41.283  0.00  0.00    +0.220 C 
ATOM     22  O   UNL A   1      47.129 -19.379 -40.591  0.00  0.00    -0.275 OA
ATOM     23  N   UNL A   1      45.419 -20.434 -41.697  0.00  0.00    -0.315 N 
ATOM     24  H   UNL A   1      45.166 -21.197 -42.264  0.00  0.00    +0.000 HD
BRANCH  21  25
ATOM     25  C   UNL A   1      47.618 -21.431 -41.754  0.00  0.00    +0.082 C 
BRANCH  25  27
ATOM     26  C   UNL A   1      47.490 -23.909 -42.488  0.00  0.00    -0.006 C 
ATOM     27  C   UNL A   1      47.056 -22.814 -41.548  0.00  0.00    +0.139 C 
ATOM     28  O   UNL A   1      46.194 -23.022 -40.690  0.00  0.00    -0.297 OA
ENDBRANCH  25  27
ENDBRANCH  21  25
ENDBRANCH  20  23
ENDBRANCH  19  20
ENDBRANCH  18  19
ENDBRANCH  17  18
ENDBRANCH   1  17
TORSDOF 8
ENDMDL
