MODEL 1
REMARK VINA RESULT:    -6.641      0.000      0.000
REMARK INTER + INTRA:          -8.031
REMARK INTER:                  -7.612
REMARK INTRA:                  -0.419
REMARK UNBOUND:                -0.419
REMARK  Name = cpd323.pdb
REMARK  4 active torsions:
REMARK  status: ('A' for Active; 'I' for Inactive)
REMARK    1  A    between atoms: C_1  and  O_2
REMARK    2  A    between atoms: O_2  and  C_3
REMARK    3  A    between atoms: C_12  and  O_13
REMARK    4  A    between atoms: C_20  and  C_22
REMARK                            x       y       z     vdW  Elec       q    Type
REMARK                         _______ _______ _______ _____ _____    ______ ____
ROOT
ATOM      1  C   UNL A   1      33.024 -33.420 -29.251  0.00  0.00    +0.162 A 
ATOM      2  C   UNL A   1      32.233 -33.825 -28.176  0.00  0.00    -0.016 A 
ATOM      3  C   UNL A   1      32.356 -35.122 -27.648  0.00  0.00    -0.053 A 
ATOM      4  C   UNL A   1      33.275 -36.047 -28.175  0.00  0.00    -0.022 A 
ATOM      5  C   UNL A   1      34.085 -35.614 -29.228  0.00  0.00    +0.016 A 
ATOM      6  C   UNL A   1      33.928 -34.343 -29.766  0.00  0.00    +0.167 A 
ATOM      7  O   UNL A   1      34.725 -34.090 -30.851  0.00  0.00    -0.484 OA
ATOM      8  C   UNL A   1      35.513 -35.292 -31.059  0.00  0.00    +0.116 C 
ATOM      9  C   UNL A   1      36.980 -34.839 -31.104  0.00  0.00    +0.015 C 
ATOM     10  C   UNL A   1      37.953 -35.964 -30.801  0.00  0.00    +0.077 C 
ATOM     11  C   UNL A   1      37.605 -36.599 -29.498  0.00  0.00    -0.059 C 
ATOM     12  C   UNL A   1      36.334 -36.735 -29.091  0.00  0.00    -0.071 C 
ATOM     13  C   UNL A   1      35.147 -36.365 -29.969  0.00  0.00    +0.056 C 
ATOM     14  C   UNL A   1      34.573 -37.640 -30.646  0.00  0.00    -0.020 C 
ATOM     15  C   UNL A   1      33.531 -38.426 -29.843  0.00  0.00    +0.016 C 
ATOM     16  N   UNL A   1      33.828 -38.509 -28.418  0.00  0.00    -0.296 N 
ATOM     17  C   UNL A   1      34.357 -39.640 -27.785  0.00  0.00    +0.231 C 
ATOM     18  O   UNL A   1      34.383 -39.719 -26.558  0.00  0.00    -0.274 OA
ATOM     19  C   UNL A   1      33.357 -37.423 -27.554  0.00  0.00    +0.040 C 
ENDROOT
BRANCH   1  21
ATOM     20  C   UNL A   1      31.820 -31.889 -30.610  0.00  0.00    +0.079 C 
ATOM     21  O   UNL A   1      32.983 -32.194 -29.852  0.00  0.00    -0.491 OA
ENDBRANCH   1  21
BRANCH  10  22
ATOM     22  O   UNL A   1      37.881 -36.969 -31.803  0.00  0.00    -0.388 OA
ATOM     23  H   UNL A   1      38.202 -36.611 -32.644  0.00  0.00    +0.000 HD
ENDBRANCH  10  22
BRANCH  17  24
ATOM     24  C   UNL A   1      34.883 -40.748 -28.691  0.00  0.00    +0.099 C 
ATOM     25 CL   UNL A   1      36.562 -40.446 -29.188  0.00  0.00    -0.116 Cl
ENDBRANCH  17  24
TORSDOF 3
ENDMDL
MODEL 2
REMARK VINA RESULT:    -6.601      2.290      4.614
REMARK INTER + INTRA:          -7.985
REMARK INTER:                  -7.571
REMARK INTRA:                  -0.414
REMARK UNBOUND:                -0.419
REMARK  Name = cpd323.pdb
REMARK  4 active torsions:
REMARK  status: ('A' for Active; 'I' for Inactive)
REMARK    1  A    between atoms: C_1  and  O_2
REMARK    2  A    between atoms: O_2  and  C_3
REMARK    3  A    between atoms: C_12  and  O_13
REMARK    4  A    between atoms: C_20  and  C_22
REMARK                            x       y       z     vdW  Elec       q    Type
REMARK                         _______ _______ _______ _____ _____    ______ ____
ROOT
ATOM      1  C   UNL A   1      38.676 -35.867 -31.309  0.00  0.00    +0.162 A 
ATOM      2  C   UNL A   1      39.410 -36.822 -30.606  0.00  0.00    -0.016 A 
ATOM      3  C   UNL A   1      38.767 -37.712 -29.728  0.00  0.00    -0.053 A 
ATOM      4  C   UNL A   1      37.375 -37.677 -29.534  0.00  0.00    -0.022 A 
ATOM      5  C   UNL A   1      36.650 -36.739 -30.274  0.00  0.00    +0.016 A 
ATOM      6  C   UNL A   1      37.301 -35.840 -31.109  0.00  0.00    +0.167 A 
ATOM      7  O   UNL A   1      36.473 -34.920 -31.698  0.00  0.00    -0.484 OA
ATOM      8  C   UNL A   1      35.132 -35.235 -31.238  0.00  0.00    +0.116 C 
ATOM      9  C   UNL A   1      34.268 -35.371 -32.502  0.00  0.00    +0.015 C 
ATOM     10  C   UNL A   1      33.006 -36.181 -32.266  0.00  0.00    +0.077 C 
ATOM     11  C   UNL A   1      33.355 -37.508 -31.684  0.00  0.00    -0.059 C 
ATOM     12  C   UNL A   1      34.373 -37.660 -30.823  0.00  0.00    -0.071 C 
ATOM     13  C   UNL A   1      35.175 -36.484 -30.284  0.00  0.00    +0.056 C 
ATOM     14  C   UNL A   1      34.657 -36.095 -28.872  0.00  0.00    -0.020 C 
ATOM     15  C   UNL A   1      35.271 -36.852 -27.689  0.00  0.00    +0.016 C 
ATOM     16  N   UNL A   1      35.488 -38.270 -27.949  0.00  0.00    -0.296 N 
ATOM     17  C   UNL A   1      34.669 -39.297 -27.464  0.00  0.00    +0.231 C 
ATOM     18  O   UNL A   1      35.024 -40.472 -27.538  0.00  0.00    -0.274 OA
ATOM     19  C   UNL A   1      36.750 -38.669 -28.579  0.00  0.00    +0.040 C 
ENDROOT
BRANCH   1  21
ATOM     20  C   UNL A   1      40.224 -34.103 -31.678  0.00  0.00    +0.079 C 
ATOM     21  O   UNL A   1      39.193 -34.945 -32.176  0.00  0.00    -0.491 OA
ENDBRANCH   1  21
BRANCH  10  22
ATOM     22  O   UNL A   1      32.151 -35.517 -31.346  0.00  0.00    -0.388 OA
ATOM     23  H   UNL A   1      32.607 -35.419 -30.495  0.00  0.00    +0.000 HD
ENDBRANCH  10  22
BRANCH  17  24
ATOM     24  C   UNL A   1      33.340 -38.878 -26.846  0.00  0.00    +0.099 C 
ATOM     25 CL   UNL A   1      32.093 -38.622 -28.086  0.00  0.00    -0.116 Cl
ENDBRANCH  17  24
TORSDOF 3
ENDMDL
MODEL 3
REMARK VINA RESULT:    -6.505     19.006     21.419
REMARK INTER + INTRA:          -7.875
REMARK INTER:                  -7.495
REMARK INTRA:                  -0.380
REMARK UNBOUND:                -0.419
REMARK  Name = cpd323.pdb
REMARK  4 active torsions:
REMARK  status: ('A' for Active; 'I' for Inactive)
REMARK    1  A    between atoms: C_1  and  O_2
REMARK    2  A    between atoms: O_2  and  C_3
REMARK    3  A    between atoms: C_12  and  O_13
REMARK    4  A    between atoms: C_20  and  C_22
REMARK                            x       y       z     vdW  Elec       q    Type
REMARK                         _______ _______ _______ _____ _____    ______ ____
ROOT
ATOM      1  C   UNL A   1      46.917 -18.910 -36.007  0.00  0.00    +0.162 A 
ATOM      2  C   UNL A   1      46.173 -19.401 -34.934  0.00  0.00    -0.016 A 
ATOM      3  C   UNL A   1      44.950 -20.058 -35.154  0.00  0.00    -0.053 A 
ATOM      4  C   UNL A   1      44.439 -20.247 -36.450  0.00  0.00    -0.022 A 
ATOM      5  C   UNL A   1      45.213 -19.783 -37.516  0.00  0.00    +0.016 A 
ATOM      6  C   UNL A   1      46.402 -19.102 -37.285  0.00  0.00    +0.167 A 
ATOM      7  O   UNL A   1      47.006 -18.624 -38.418  0.00  0.00    -0.484 OA
ATOM      8  C   UNL A   1      46.162 -19.036 -39.526  0.00  0.00    +0.116 C 
ATOM      9  C   UNL A   1      47.084 -19.763 -40.518  0.00  0.00    +0.015 C 
ATOM     10  C   UNL A   1      46.327 -20.689 -41.453  0.00  0.00    +0.077 C 
ATOM     11  C   UNL A   1      45.496 -21.641 -40.663  0.00  0.00    -0.059 C 
ATOM     12  C   UNL A   1      44.904 -21.283 -39.513  0.00  0.00    -0.071 C 
ATOM     13  C   UNL A   1      44.933 -19.856 -38.985  0.00  0.00    +0.056 C 
ATOM     14  C   UNL A   1      43.608 -19.131 -39.347  0.00  0.00    -0.020 C 
ATOM     15  C   UNL A   1      42.447 -19.304 -38.361  0.00  0.00    +0.016 C 
ATOM     16  N   UNL A   1      42.339 -20.650 -37.812  0.00  0.00    -0.296 N 
ATOM     17  C   UNL A   1      41.398 -21.600 -38.226  0.00  0.00    +0.231 C 
ATOM     18  O   UNL A   1      41.221 -22.632 -37.580  0.00  0.00    -0.274 OA
ATOM     19  C   UNL A   1      43.120 -20.968 -36.612  0.00  0.00    +0.040 C 
ENDROOT
BRANCH   1  21
ATOM     20  C   UNL A   1      49.069 -18.777 -35.011  0.00  0.00    +0.079 C 
ATOM     21  O   UNL A   1      48.108 -18.247 -35.914  0.00  0.00    -0.491 OA
ENDBRANCH   1  21
BRANCH  10  22
ATOM     22  O   UNL A   1      45.452 -19.946 -42.291  0.00  0.00    -0.388 OA
ATOM     23  H   UNL A   1      44.575 -19.898 -41.880  0.00  0.00    +0.000 HD
ENDBRANCH  10  22
BRANCH  17  24
ATOM     24  C   UNL A   1      40.618 -21.281 -39.497  0.00  0.00    +0.099 C 
ATOM     25 CL   UNL A   1      41.424 -21.934 -40.941  0.00  0.00    -0.116 Cl
ENDBRANCH  17  24
TORSDOF 3
ENDMDL
MODEL 4
REMARK VINA RESULT:    -6.503      2.666      6.205
REMARK INTER + INTRA:          -7.873
REMARK INTER:                  -7.469
REMARK INTRA:                  -0.404
REMARK UNBOUND:                -0.419
REMARK  Name = cpd323.pdb
REMARK  4 active torsions:
REMARK  status: ('A' for Active; 'I' for Inactive)
REMARK    1  A    between atoms: C_1  and  O_2
REMARK    2  A    between atoms: O_2  and  C_3
REMARK    3  A    between atoms: C_12  and  O_13
REMARK    4  A    between atoms: C_20  and  C_22
REMARK                            x       y       z     vdW  Elec       q    Type
REMARK                         _______ _______ _______ _____ _____    ______ ____
ROOT
ATOM      1  C   UNL A   1      38.460 -37.865 -29.294  0.00  0.00    +0.162 A 
ATOM      2  C   UNL A   1      39.098 -36.922 -30.100  0.00  0.00    -0.016 A 
ATOM      3  C   UNL A   1      38.361 -35.903 -30.728  0.00  0.00    -0.053 A 
ATOM      4  C   UNL A   1      36.968 -35.796 -30.565  0.00  0.00    -0.022 A 
ATOM      5  C   UNL A   1      36.349 -36.726 -29.726  0.00  0.00    +0.016 A 
ATOM      6  C   UNL A   1      37.083 -37.750 -29.141  0.00  0.00    +0.167 A 
ATOM      7  O   UNL A   1      36.330 -38.640 -28.420  0.00  0.00    -0.484 OA
ATOM      8  C   UNL A   1      34.959 -38.166 -28.504  0.00  0.00    +0.116 C 
ATOM      9  C   UNL A   1      34.453 -38.064 -27.057  0.00  0.00    +0.015 C 
ATOM     10  C   UNL A   1      33.268 -37.126 -26.914  0.00  0.00    +0.077 C 
ATOM     11  C   UNL A   1      33.606 -35.790 -27.482  0.00  0.00    -0.059 C 
ATOM     12  C   UNL A   1      34.392 -35.656 -28.561  0.00  0.00    -0.071 C 
ATOM     13  C   UNL A   1      34.903 -36.847 -29.359  0.00  0.00    +0.056 C 
ATOM     14  C   UNL A   1      34.015 -37.062 -30.615  0.00  0.00    -0.020 C 
ATOM     15  C   UNL A   1      34.399 -36.263 -31.865  0.00  0.00    +0.016 C 
ATOM     16  N   UNL A   1      34.826 -34.898 -31.580  0.00  0.00    -0.296 N 
ATOM     17  C   UNL A   1      34.030 -33.763 -31.777  0.00  0.00    +0.231 C 
ATOM     18  O   UNL A   1      34.519 -32.636 -31.722  0.00  0.00    -0.274 OA
ATOM     19  C   UNL A   1      36.239 -34.672 -31.267  0.00  0.00    +0.040 C 
ENDROOT
BRANCH   1  21
ATOM     20  C   UNL A   1      40.378 -38.665 -28.145  0.00  0.00    +0.079 C 
ATOM     21  O   UNL A   1      39.070 -38.902 -28.647  0.00  0.00    -0.491 OA
ENDBRANCH   1  21
BRANCH  10  22
ATOM     22  O   UNL A   1      32.146 -37.627 -27.628  0.00  0.00    -0.388 OA
ATOM     23  H   UNL A   1      31.964 -38.537 -27.347  0.00  0.00    +0.000 HD
ENDBRANCH  10  22
BRANCH  17  24
ATOM     24  C   UNL A   1      32.552 -34.005 -32.063  0.00  0.00    +0.099 C 
ATOM     25 CL   UNL A   1      31.627 -34.249 -30.565  0.00  0.00    -0.116 Cl
ENDBRANCH  17  24
TORSDOF 3
ENDMDL
MODEL 5
REMARK VINA RESULT:    -6.450     19.399     21.624
REMARK INTER + INTRA:          -7.812
REMARK INTER:                  -7.413
REMARK INTRA:                  -0.400
REMARK UNBOUND:                -0.419
REMARK  Name = cpd323.pdb
REMARK  4 active torsions:
REMARK  status: ('A' for Active; 'I' for Inactive)
REMARK    1  A    between atoms: C_1  and  O_2
REMARK    2  A    between atoms: O_2  and  C_3
REMARK    3  A    between atoms: C_12  and  O_13
REMARK    4  A    between atoms: C_20  and  C_22
REMARK                            x       y       z     vdW  Elec       q    Type
REMARK                         _______ _______ _______ _____ _____    ______ ____
ROOT
ATOM      1  C   UNL A   1      46.165 -22.293 -41.324  0.00  0.00    +0.162 A 
ATOM      2  C   UNL A   1      47.296 -22.158 -40.518  0.00  0.00    -0.016 A 
ATOM      3  C   UNL A   1      47.236 -21.423 -39.321  0.00  0.00    -0.053 A 
ATOM      4  C   UNL A   1      46.046 -20.807 -38.895  0.00  0.00    -0.022 A 
ATOM      5  C   UNL A   1      44.914 -20.983 -39.694  0.00  0.00    +0.016 A 
ATOM      6  C   UNL A   1      44.994 -21.680 -40.893  0.00  0.00    +0.167 A 
ATOM      7  O   UNL A   1      43.830 -21.693 -41.615  0.00  0.00    -0.484 OA
ATOM      8  C   UNL A   1      42.860 -20.954 -40.826  0.00  0.00    +0.116 C 
ATOM      9  C   UNL A   1      41.637 -21.872 -40.683  0.00  0.00    +0.015 C 
ATOM     10  C   UNL A   1      40.760 -21.504 -39.500  0.00  0.00    +0.077 C 
ATOM     11  C   UNL A   1      41.578 -21.467 -38.254  0.00  0.00    -0.059 C 
ATOM     12  C   UNL A   1      42.852 -21.045 -38.253  0.00  0.00    -0.071 C 
ATOM     13  C   UNL A   1      43.525 -20.463 -39.487  0.00  0.00    +0.056 C 
ATOM     14  C   UNL A   1      43.504 -18.912 -39.418  0.00  0.00    -0.020 C 
ATOM     15  C   UNL A   1      44.664 -18.249 -38.668  0.00  0.00    +0.016 C 
ATOM     16  N   UNL A   1      45.066 -18.961 -37.461  0.00  0.00    -0.296 N 
ATOM     17  C   UNL A   1      44.730 -18.566 -36.160  0.00  0.00    +0.231 C 
ATOM     18  O   UNL A   1      45.275 -19.083 -35.186  0.00  0.00    -0.274 OA
ATOM     19  C   UNL A   1      46.053 -20.036 -37.594  0.00  0.00    +0.040 C 
ENDROOT
BRANCH   1  21
ATOM     20  C   UNL A   1      47.136 -23.921 -42.755  0.00  0.00    +0.079 C 
ATOM     21  O   UNL A   1      46.109 -22.971 -42.509  0.00  0.00    -0.491 OA
ENDBRANCH   1  21
BRANCH  10  22
ATOM     22  O   UNL A   1      40.193 -20.214 -39.681  0.00  0.00    -0.388 OA
ATOM     23  H   UNL A   1      40.682 -19.568 -39.148  0.00  0.00    +0.000 HD
ENDBRANCH  10  22
BRANCH  17  24
ATOM     24  C   UNL A   1      43.673 -17.475 -36.029  0.00  0.00    +0.099 C 
ATOM     25 CL   UNL A   1      42.029 -18.136 -36.164  0.00  0.00    -0.116 Cl
ENDBRANCH  17  24
TORSDOF 3
ENDMDL
MODEL 6
REMARK VINA RESULT:    -6.314     22.064     23.575
REMARK INTER + INTRA:          -7.656
REMARK INTER:                  -7.235
REMARK INTRA:                  -0.420
REMARK UNBOUND:                -0.419
REMARK  Name = cpd323.pdb
REMARK  4 active torsions:
REMARK  status: ('A' for Active; 'I' for Inactive)
REMARK    1  A    between atoms: C_1  and  O_2
REMARK    2  A    between atoms: O_2  and  C_3
REMARK    3  A    between atoms: C_12  and  O_13
REMARK    4  A    between atoms: C_20  and  C_22
REMARK                            x       y       z     vdW  Elec       q    Type
REMARK                         _______ _______ _______ _____ _____    ______ ____
ROOT
ATOM      1  C   UNL A   1      46.002 -21.979 -41.132  0.00  0.00    +0.162 A 
ATOM      2  C   UNL A   1      45.501 -21.647 -42.390  0.00  0.00    -0.016 A 
ATOM      3  C   UNL A   1      44.886 -20.402 -42.608  0.00  0.00    -0.053 A 
ATOM      4  C   UNL A   1      44.759 -19.454 -41.577  0.00  0.00    -0.022 A 
ATOM      5  C   UNL A   1      45.299 -19.787 -40.332  0.00  0.00    +0.016 A 
ATOM      6  C   UNL A   1      45.871 -21.035 -40.119  0.00  0.00    +0.167 A 
ATOM      7  O   UNL A   1      46.274 -21.256 -38.828  0.00  0.00    -0.484 OA
ATOM      8  C   UNL A   1      45.967 -20.039 -38.098  0.00  0.00    +0.116 C 
ATOM      9  C   UNL A   1      47.270 -19.619 -37.400  0.00  0.00    +0.015 C 
ATOM     10  C   UNL A   1      47.291 -18.147 -37.030  0.00  0.00    +0.077 C 
ATOM     11  C   UNL A   1      47.012 -17.316 -38.235  0.00  0.00    -0.059 C 
ATOM     12  C   UNL A   1      46.159 -17.715 -39.191  0.00  0.00    -0.071 C 
ATOM     13  C   UNL A   1      45.324 -18.982 -39.070  0.00  0.00    +0.056 C 
ATOM     14  C   UNL A   1      43.889 -18.625 -38.596  0.00  0.00    -0.020 C 
ATOM     15  C   UNL A   1      42.882 -18.256 -39.692  0.00  0.00    +0.016 C 
ATOM     16  N   UNL A   1      43.450 -17.442 -40.760  0.00  0.00    -0.296 N 
ATOM     17  C   UNL A   1      43.256 -16.062 -40.891  0.00  0.00    +0.231 C 
ATOM     18  O   UNL A   1      43.580 -15.477 -41.924  0.00  0.00    -0.274 OA
ATOM     19  C   UNL A   1      44.091 -18.132 -41.883  0.00  0.00    +0.040 C 
ENDROOT
BRANCH   1  21
ATOM     20  C   UNL A   1      47.923 -23.367 -41.294  0.00  0.00    +0.079 C 
ATOM     21  O   UNL A   1      46.606 -23.160 -40.802  0.00  0.00    -0.491 OA
ENDBRANCH   1  21
BRANCH  10  22
ATOM     22  O   UNL A   1      46.286 -17.861 -36.067  0.00  0.00    -0.388 OA
ATOM     23  H   UNL A   1      45.533 -18.457 -36.197  0.00  0.00    +0.000 HD
ENDBRANCH  10  22
BRANCH  17  24
ATOM     24  C   UNL A   1      42.626 -15.344 -39.703  0.00  0.00    +0.099 C 
ATOM     25 CL   UNL A   1      43.832 -14.957 -38.456  0.00  0.00    -0.116 Cl
ENDBRANCH  17  24
TORSDOF 3
ENDMDL
MODEL 7
REMARK VINA RESULT:    -6.229     19.793     22.170
REMARK INTER + INTRA:          -7.559
REMARK INTER:                  -7.157
REMARK INTRA:                  -0.402
REMARK UNBOUND:                -0.419
REMARK  Name = cpd323.pdb
REMARK  4 active torsions:
REMARK  status: ('A' for Active; 'I' for Inactive)
REMARK    1  A    between atoms: C_1  and  O_2
REMARK    2  A    between atoms: O_2  and  C_3
REMARK    3  A    between atoms: C_12  and  O_13
REMARK    4  A    between atoms: C_20  and  C_22
REMARK                            x       y       z     vdW  Elec       q    Type
REMARK                         _______ _______ _______ _____ _____    ______ ____
ROOT
ATOM      1  C   UNL A   1      45.270 -18.910 -34.408  0.00  0.00    +0.162 A 
ATOM      2  C   UNL A   1      46.321 -18.002 -34.535  0.00  0.00    -0.016 A 
ATOM      3  C   UNL A   1      46.861 -17.706 -35.799  0.00  0.00    -0.053 A 
ATOM      4  C   UNL A   1      46.363 -18.305 -36.969  0.00  0.00    -0.022 A 
ATOM      5  C   UNL A   1      45.286 -19.183 -36.830  0.00  0.00    +0.016 A 
ATOM      6  C   UNL A   1      44.785 -19.496 -35.572  0.00  0.00    +0.167 A 
ATOM      7  O   UNL A   1      43.792 -20.440 -35.581  0.00  0.00    -0.484 OA
ATOM      8  C   UNL A   1      43.582 -20.788 -36.976  0.00  0.00    +0.116 C 
ATOM      9  C   UNL A   1      42.078 -20.616 -37.236  0.00  0.00    +0.015 C 
ATOM     10  C   UNL A   1      41.754 -20.432 -38.708  0.00  0.00    +0.077 C 
ATOM     11  C   UNL A   1      42.549 -19.301 -39.266  0.00  0.00    -0.059 C 
ATOM     12  C   UNL A   1      43.801 -19.044 -38.857  0.00  0.00    -0.071 C 
ATOM     13  C   UNL A   1      44.550 -19.947 -37.886  0.00  0.00    +0.056 C 
ATOM     14  C   UNL A   1      45.501 -20.892 -38.670  0.00  0.00    -0.020 C 
ATOM     15  C   UNL A   1      46.896 -20.342 -38.987  0.00  0.00    +0.016 C 
ATOM     16  N   UNL A   1      46.901 -18.935 -39.366  0.00  0.00    -0.296 N 
ATOM     17  C   UNL A   1      47.026 -18.469 -40.680  0.00  0.00    +0.231 C 
ATOM     18  O   UNL A   1      47.237 -17.278 -40.907  0.00  0.00    -0.274 OA
ATOM     19  C   UNL A   1      46.988 -17.936 -38.296  0.00  0.00    +0.040 C 
ENDROOT
BRANCH   1  21
ATOM     20  C   UNL A   1      43.812 -18.334 -32.623  0.00  0.00    +0.079 C 
ATOM     21  O   UNL A   1      44.676 -19.282 -33.235  0.00  0.00    -0.491 OA
ENDBRANCH   1  21
BRANCH  10  22
ATOM     22  O   UNL A   1      42.091 -21.600 -39.443  0.00  0.00    -0.388 OA
ATOM     23  H   UNL A   1      42.533 -22.234 -38.858  0.00  0.00    +0.000 HD
ENDBRANCH  10  22
BRANCH  17  24
ATOM     24  C   UNL A   1      46.894 -19.507 -41.789  0.00  0.00    +0.099 C 
ATOM     25 CL   UNL A   1      45.206 -19.690 -42.316  0.00  0.00    -0.116 Cl
ENDBRANCH  17  24
TORSDOF 3
ENDMDL
MODEL 8
REMARK VINA RESULT:    -6.187     37.904     39.442
REMARK INTER + INTRA:          -7.511
REMARK INTER:                  -7.315
REMARK INTRA:                  -0.196
REMARK UNBOUND:                -0.419
REMARK  Name = cpd323.pdb
REMARK  4 active torsions:
REMARK  status: ('A' for Active; 'I' for Inactive)
REMARK    1  A    between atoms: C_1  and  O_2
REMARK    2  A    between atoms: O_2  and  C_3
REMARK    3  A    between atoms: C_12  and  O_13
REMARK    4  A    between atoms: C_20  and  C_22
REMARK                            x       y       z     vdW  Elec       q    Type
REMARK                         _______ _______ _______ _____ _____    ______ ____
ROOT
ATOM      1  C   UNL A   1      63.644 -19.790  -8.800  0.00  0.00    +0.162 A 
ATOM      2  C   UNL A   1      63.085 -20.550  -9.828  0.00  0.00    -0.016 A 
ATOM      3  C   UNL A   1      62.764 -21.903  -9.622  0.00  0.00    -0.053 A 
ATOM      4  C   UNL A   1      62.985 -22.531  -8.383  0.00  0.00    -0.022 A 
ATOM      5  C   UNL A   1      63.510 -21.747  -7.353  0.00  0.00    +0.016 A 
ATOM      6  C   UNL A   1      63.859 -20.421  -7.580  0.00  0.00    +0.167 A 
ATOM      7  O   UNL A   1      64.447 -19.804  -6.508  0.00  0.00    -0.484 OA
ATOM      8  C   UNL A   1      64.483 -20.793  -5.445  0.00  0.00    +0.116 C 
ATOM      9  C   UNL A   1      63.827 -20.132  -4.223  0.00  0.00    +0.015 C 
ATOM     10  C   UNL A   1      63.316 -21.142  -3.211  0.00  0.00    +0.077 C 
ATOM     11  C   UNL A   1      62.402 -22.111  -3.879  0.00  0.00    -0.059 C 
ATOM     12  C   UNL A   1      62.603 -22.526  -5.139  0.00  0.00    -0.071 C 
ATOM     13  C   UNL A   1      63.834 -22.136  -5.945  0.00  0.00    +0.056 C 
ATOM     14  C   UNL A   1      64.880 -23.284  -5.899  0.00  0.00    -0.020 C 
ATOM     15  C   UNL A   1      64.730 -24.383  -6.957  0.00  0.00    +0.016 C 
ATOM     16  N   UNL A   1      63.347 -24.757  -7.224  0.00  0.00    -0.296 N 
ATOM     17  C   UNL A   1      62.732 -25.915  -6.734  0.00  0.00    +0.231 C 
ATOM     18  O   UNL A   1      61.639 -26.278  -7.168  0.00  0.00    -0.274 OA
ATOM     19  C   UNL A   1      62.609 -23.988  -8.231  0.00  0.00    +0.040 C 
ENDROOT
BRANCH   1  21
ATOM     20  C   UNL A   1      62.957 -17.520  -8.919  0.00  0.00    +0.079 C 
ATOM     21  O   UNL A   1      64.007 -18.476  -8.889  0.00  0.00    -0.491 OA
ENDBRANCH   1  21
BRANCH  10  22
ATOM     22  O   UNL A   1      64.395 -21.880  -2.655  0.00  0.00    -0.388 OA
ATOM     23  H   UNL A   1      64.189 -22.827  -2.687  0.00  0.00    +0.000 HD
ENDBRANCH  10  22
BRANCH  17  24
ATOM     24  C   UNL A   1      63.487 -26.687  -5.658  0.00  0.00    +0.099 C 
ATOM     25 CL   UNL A   1      64.542 -27.932  -6.362  0.00  0.00    -0.116 Cl
ENDBRANCH  17  24
TORSDOF 3
ENDMDL
MODEL 9
REMARK VINA RESULT:    -6.144     17.788     20.436
REMARK INTER + INTRA:          -7.462
REMARK INTER:                  -7.059
REMARK INTRA:                  -0.403
REMARK UNBOUND:                -0.419
REMARK  Name = cpd323.pdb
REMARK  4 active torsions:
REMARK  status: ('A' for Active; 'I' for Inactive)
REMARK    1  A    between atoms: C_1  and  O_2
REMARK    2  A    between atoms: O_2  and  C_3
REMARK    3  A    between atoms: C_12  and  O_13
REMARK    4  A    between atoms: C_20  and  C_22
REMARK                            x       y       z     vdW  Elec       q    Type
REMARK                         _______ _______ _______ _____ _____    ______ ____
ROOT
ATOM      1  C   UNL A   1      44.453 -20.942 -40.776  0.00  0.00    +0.162 A 
ATOM      2  C   UNL A   1      45.774 -20.906 -40.332  0.00  0.00    -0.016 A 
ATOM      3  C   UNL A   1      46.066 -20.714 -38.970  0.00  0.00    -0.053 A 
ATOM      4  C   UNL A   1      45.046 -20.557 -38.015  0.00  0.00    -0.022 A 
ATOM      5  C   UNL A   1      43.727 -20.632 -38.470  0.00  0.00    +0.016 A 
ATOM      6  C   UNL A   1      43.452 -20.785 -39.824  0.00  0.00    +0.167 A 
ATOM      7  O   UNL A   1      42.118 -20.749 -40.133  0.00  0.00    -0.484 OA
ATOM      8  C   UNL A   1      41.417 -20.577 -38.872  0.00  0.00    +0.116 C 
ATOM      9  C   UNL A   1      40.373 -21.702 -38.807  0.00  0.00    +0.015 C 
ATOM     10  C   UNL A   1      39.915 -21.997 -37.390  0.00  0.00    +0.077 C 
ATOM     11  C   UNL A   1      41.094 -22.280 -36.524  0.00  0.00    -0.059 C 
ATOM     12  C   UNL A   1      42.266 -21.649 -36.691  0.00  0.00    -0.071 C 
ATOM     13  C   UNL A   1      42.454 -20.517 -37.691  0.00  0.00    +0.056 C 
ATOM     14  C   UNL A   1      42.356 -19.148 -36.964  0.00  0.00    -0.020 C 
ATOM     15  C   UNL A   1      43.653 -18.609 -36.350  0.00  0.00    +0.016 C 
ATOM     16  N   UNL A   1      44.476 -19.635 -35.723  0.00  0.00    -0.296 N 
ATOM     17  C   UNL A   1      44.564 -19.844 -34.342  0.00  0.00    +0.231 C 
ATOM     18  O   UNL A   1      45.433 -20.577 -33.871  0.00  0.00    -0.274 OA
ATOM     19  C   UNL A   1      45.432 -20.359 -36.567  0.00  0.00    +0.040 C 
ENDROOT
BRANCH   1  21
ATOM     20  C   UNL A   1      44.313 -20.039 -42.968  0.00  0.00    +0.079 C 
ATOM     21  O   UNL A   1      44.052 -21.110 -42.072  0.00  0.00    -0.491 OA
ENDBRANCH   1  21
BRANCH  10  22
ATOM     22  O   UNL A   1      39.236 -20.876 -36.841  0.00  0.00    -0.388 OA
ATOM     23  H   UNL A   1      38.288 -21.070 -36.781  0.00  0.00    +0.000 HD
ENDBRANCH  10  22
BRANCH  17  24
ATOM     24  C   UNL A   1      43.541 -19.119 -33.474  0.00  0.00    +0.099 C 
ATOM     25 CL   UNL A   1      42.059 -20.079 -33.268  0.00  0.00    -0.116 Cl
ENDBRANCH  17  24
TORSDOF 3
ENDMDL
MODEL 10
REMARK VINA RESULT:    -6.127     16.556     19.054
REMARK INTER + INTRA:          -7.442
REMARK INTER:                  -7.021
REMARK INTRA:                  -0.421
REMARK UNBOUND:                -0.419
REMARK  Name = cpd323.pdb
REMARK  4 active torsions:
REMARK  status: ('A' for Active; 'I' for Inactive)
REMARK    1  A    between atoms: C_1  and  O_2
REMARK    2  A    between atoms: O_2  and  C_3
REMARK    3  A    between atoms: C_12  and  O_13
REMARK    4  A    between atoms: C_20  and  C_22
REMARK                            x       y       z     vdW  Elec       q    Type
REMARK                         _______ _______ _______ _____ _____    ______ ____
ROOT
ATOM      1  C   UNL A   1      40.105 -22.776 -33.890  0.00  0.00    +0.162 A 
ATOM      2  C   UNL A   1      40.336 -21.947 -32.791  0.00  0.00    -0.016 A 
ATOM      3  C   UNL A   1      41.063 -20.754 -32.937  0.00  0.00    -0.053 A 
ATOM      4  C   UNL A   1      41.574 -20.352 -34.184  0.00  0.00    -0.022 A 
ATOM      5  C   UNL A   1      41.303 -21.173 -35.281  0.00  0.00    +0.016 A 
ATOM      6  C   UNL A   1      40.615 -22.369 -35.118  0.00  0.00    +0.167 A 
ATOM      7  O   UNL A   1      40.503 -23.114 -36.262  0.00  0.00    -0.484 OA
ATOM      8  C   UNL A   1      41.157 -22.345 -37.307  0.00  0.00    +0.116 C 
ATOM      9  C   UNL A   1      40.137 -22.226 -38.450  0.00  0.00    +0.015 C 
ATOM     10  C   UNL A   1      40.428 -21.060 -39.378  0.00  0.00    +0.077 C 
ATOM     11  C   UNL A   1      40.534 -19.799 -38.591  0.00  0.00    -0.059 C 
ATOM     12  C   UNL A   1      41.063 -19.773 -37.358  0.00  0.00    -0.071 C 
ATOM     13  C   UNL A   1      41.702 -20.994 -36.713  0.00  0.00    +0.056 C 
ATOM     14  C   UNL A   1      43.246 -20.928 -36.868  0.00  0.00    -0.020 C 
ATOM     15  C   UNL A   1      44.005 -20.155 -35.784  0.00  0.00    +0.016 C 
ATOM     16  N   UNL A   1      43.330 -18.940 -35.347  0.00  0.00    -0.296 N 
ATOM     17  C   UNL A   1      43.694 -17.647 -35.741  0.00  0.00    +0.231 C 
ATOM     18  O   UNL A   1      43.225 -16.661 -35.174  0.00  0.00    -0.274 OA
ATOM     19  C   UNL A   1      42.342 -19.052 -34.269  0.00  0.00    +0.040 C 
ENDROOT
BRANCH   1  21
ATOM     20  C   UNL A   1      38.020 -23.891 -33.663  0.00  0.00    +0.079 C 
ATOM     21  O   UNL A   1      39.425 -23.961 -33.864  0.00  0.00    -0.491 OA
ENDBRANCH   1  21
BRANCH  10  22
ATOM     22  O   UNL A   1      41.665 -21.254 -40.050  0.00  0.00    -0.388 OA
ATOM     23  H   UNL A   1      41.543 -21.888 -40.774  0.00  0.00    +0.000 HD
ENDBRANCH  10  22
BRANCH  17  24
ATOM     24  C   UNL A   1      44.690 -17.538 -36.890  0.00  0.00    +0.099 C 
ATOM     25 CL   UNL A   1      43.886 -17.670 -38.469  0.00  0.00    -0.116 Cl
ENDBRANCH  17  24
TORSDOF 3
ENDMDL
MODEL 11
REMARK VINA RESULT:    -6.000     15.954     18.505
REMARK INTER + INTRA:          -7.296
REMARK INTER:                  -6.884
REMARK INTRA:                  -0.413
REMARK UNBOUND:                -0.419
REMARK  Name = cpd323.pdb
REMARK  4 active torsions:
REMARK  status: ('A' for Active; 'I' for Inactive)
REMARK    1  A    between atoms: C_1  and  O_2
REMARK    2  A    between atoms: O_2  and  C_3
REMARK    3  A    between atoms: C_12  and  O_13
REMARK    4  A    between atoms: C_20  and  C_22
REMARK                            x       y       z     vdW  Elec       q    Type
REMARK                         _______ _______ _______ _____ _____    ______ ____
ROOT
ATOM      1  C   UNL A   1      40.264 -22.769 -32.848  0.00  0.00    +0.162 A 
ATOM      2  C   UNL A   1      39.184 -23.343 -33.519  0.00  0.00    -0.016 A 
ATOM      3  C   UNL A   1      38.850 -22.928 -34.820  0.00  0.00    -0.053 A 
ATOM      4  C   UNL A   1      39.587 -21.934 -35.487  0.00  0.00    -0.022 A 
ATOM      5  C   UNL A   1      40.687 -21.396 -34.816  0.00  0.00    +0.016 A 
ATOM      6  C   UNL A   1      40.985 -21.787 -33.516  0.00  0.00    +0.167 A 
ATOM      7  O   UNL A   1      42.034 -21.109 -32.952  0.00  0.00    -0.484 OA
ATOM      8  C   UNL A   1      42.508 -20.185 -33.968  0.00  0.00    +0.116 C 
ATOM      9  C   UNL A   1      44.017 -20.439 -34.105  0.00  0.00    +0.015 C 
ATOM     10  C   UNL A   1      44.576 -19.959 -35.432  0.00  0.00    +0.077 C 
ATOM     11  C   UNL A   1      43.805 -20.564 -36.556  0.00  0.00    -0.059 C 
ATOM     12  C   UNL A   1      42.485 -20.791 -36.470  0.00  0.00    -0.071 C 
ATOM     13  C   UNL A   1      41.651 -20.347 -35.277  0.00  0.00    +0.056 C 
ATOM     14  C   UNL A   1      40.924 -19.014 -35.607  0.00  0.00    -0.020 C 
ATOM     15  C   UNL A   1      39.567 -19.135 -36.309  0.00  0.00    +0.016 C 
ATOM     16  N   UNL A   1      39.521 -20.184 -37.320  0.00  0.00    -0.296 N 
ATOM     17  C   UNL A   1      39.590 -19.956 -38.700  0.00  0.00    +0.231 C 
ATOM     18  O   UNL A   1      39.331 -20.855 -39.499  0.00  0.00    -0.274 OA
ATOM     19  C   UNL A   1      39.174 -21.541 -36.888  0.00  0.00    +0.040 C 
ENDROOT
BRANCH   1  21
ATOM     20  C   UNL A   1      41.483 -24.240 -31.437  0.00  0.00    +0.079 C 
ATOM     21  O   UNL A   1      40.672 -23.083 -31.582  0.00  0.00    -0.491 OA
ENDBRANCH   1  21
BRANCH  10  22
ATOM     22  O   UNL A   1      44.461 -18.547 -35.541  0.00  0.00    -0.388 OA
ATOM     23  H   UNL A   1      45.107 -18.220 -36.186  0.00  0.00    +0.000 HD
ENDBRANCH  10  22
BRANCH  17  24
ATOM     24  C   UNL A   1      39.990 -18.553 -39.142  0.00  0.00    +0.099 C 
ATOM     25 CL   UNL A   1      41.753 -18.333 -39.103  0.00  0.00    -0.116 Cl
ENDBRANCH  17  24
TORSDOF 3
ENDMDL
MODEL 12
REMARK VINA RESULT:    -5.939      2.329      3.673
REMARK INTER + INTRA:          -7.226
REMARK INTER:                  -6.845
REMARK INTRA:                  -0.381
REMARK UNBOUND:                -0.419
REMARK  Name = cpd323.pdb
REMARK  4 active torsions:
REMARK  status: ('A' for Active; 'I' for Inactive)
REMARK    1  A    between atoms: C_1  and  O_2
REMARK    2  A    between atoms: O_2  and  C_3
REMARK    3  A    between atoms: C_12  and  O_13
REMARK    4  A    between atoms: C_20  and  C_22
REMARK                            x       y       z     vdW  Elec       q    Type
REMARK                         _______ _______ _______ _____ _____    ______ ____
ROOT
ATOM      1  C   UNL A   1      30.612 -35.234 -27.710  0.00  0.00    +0.162 A 
ATOM      2  C   UNL A   1      31.039 -36.139 -26.738  0.00  0.00    -0.016 A 
ATOM      3  C   UNL A   1      32.327 -36.698 -26.800  0.00  0.00    -0.053 A 
ATOM      4  C   UNL A   1      33.224 -36.365 -27.829  0.00  0.00    -0.022 A 
ATOM      5  C   UNL A   1      32.796 -35.429 -28.774  0.00  0.00    +0.016 A 
ATOM      6  C   UNL A   1      31.507 -34.912 -28.724  0.00  0.00    +0.167 A 
ATOM      7  O   UNL A   1      31.195 -34.078 -29.765  0.00  0.00    -0.484 OA
ATOM      8  C   UNL A   1      32.389 -34.003 -30.590  0.00  0.00    +0.116 C 
ATOM      9  C   UNL A   1      32.694 -32.508 -30.764  0.00  0.00    +0.015 C 
ATOM     10  C   UNL A   1      34.141 -32.244 -31.140  0.00  0.00    +0.077 C 
ATOM     11  C   UNL A   1      35.049 -32.887 -30.149  0.00  0.00    -0.059 C 
ATOM     12  C   UNL A   1      34.751 -34.059 -29.568  0.00  0.00    -0.071 C 
ATOM     13  C   UNL A   1      33.530 -34.881 -29.957  0.00  0.00    +0.056 C 
ATOM     14  C   UNL A   1      33.944 -36.009 -30.941  0.00  0.00    -0.020 C 
ATOM     15  C   UNL A   1      34.428 -37.319 -30.309  0.00  0.00    +0.016 C 
ATOM     16  N   UNL A   1      35.263 -37.129 -29.130  0.00  0.00    -0.296 N 
ATOM     17  C   UNL A   1      36.657 -37.256 -29.118  0.00  0.00    +0.231 C 
ATOM     18  O   UNL A   1      37.276 -37.294 -28.056  0.00  0.00    -0.274 OA
ATOM     19  C   UNL A   1      34.597 -37.001 -27.830  0.00  0.00    +0.040 C 
ENDROOT
BRANCH   1  21
ATOM     20  C   UNL A   1      28.269 -35.432 -27.373  0.00  0.00    +0.079 C 
ATOM     21  O   UNL A   1      29.383 -34.639 -27.758  0.00  0.00    -0.491 OA
ENDBRANCH   1  21
BRANCH  10  22
ATOM     22  O   UNL A   1      34.434 -32.797 -32.415  0.00  0.00    -0.388 OA
ATOM     23  H   UNL A   1      34.170 -33.730 -32.432  0.00  0.00    +0.000 HD
ENDBRANCH  10  22
BRANCH  17  24
ATOM     24  C   UNL A   1      37.346 -37.347 -30.475  0.00  0.00    +0.099 C 
ATOM     25 CL   UNL A   1      37.818 -35.744 -31.080  0.00  0.00    -0.116 Cl
ENDBRANCH  17  24
TORSDOF 3
ENDMDL
MODEL 13
REMARK VINA RESULT:    -5.934     18.564     20.828
REMARK INTER + INTRA:          -7.221
REMARK INTER:                  -6.823
REMARK INTRA:                  -0.398
REMARK UNBOUND:                -0.419
REMARK  Name = cpd323.pdb
REMARK  4 active torsions:
REMARK  status: ('A' for Active; 'I' for Inactive)
REMARK    1  A    between atoms: C_1  and  O_2
REMARK    2  A    between atoms: O_2  and  C_3
REMARK    3  A    between atoms: C_12  and  O_13
REMARK    4  A    between atoms: C_20  and  C_22
REMARK                            x       y       z     vdW  Elec       q    Type
REMARK                         _______ _______ _______ _____ _____    ______ ____
ROOT
ATOM      1  C   UNL A   1      44.722 -18.519 -33.926  0.00  0.00    +0.162 A 
ATOM      2  C   UNL A   1      43.713 -19.277 -33.332  0.00  0.00    -0.016 A 
ATOM      3  C   UNL A   1      42.886 -20.102 -34.114  0.00  0.00    -0.053 A 
ATOM      4  C   UNL A   1      43.047 -20.196 -35.508  0.00  0.00    -0.022 A 
ATOM      5  C   UNL A   1      44.085 -19.459 -36.082  0.00  0.00    +0.016 A 
ATOM      6  C   UNL A   1      44.872 -18.618 -35.304  0.00  0.00    +0.167 A 
ATOM      7  O   UNL A   1      45.788 -17.889 -36.016  0.00  0.00    -0.484 OA
ATOM      8  C   UNL A   1      45.626 -18.284 -37.404  0.00  0.00    +0.116 C 
ATOM      9  C   UNL A   1      47.022 -18.693 -37.898  0.00  0.00    +0.015 C 
ATOM     10  C   UNL A   1      46.972 -19.598 -39.116  0.00  0.00    +0.077 C 
ATOM     11  C   UNL A   1      46.112 -20.782 -38.834  0.00  0.00    -0.059 C 
ATOM     12  C   UNL A   1      45.016 -20.697 -38.066  0.00  0.00    -0.071 C 
ATOM     13  C   UNL A   1      44.497 -19.375 -37.519  0.00  0.00    +0.056 C 
ATOM     14  C   UNL A   1      43.339 -18.851 -38.412  0.00  0.00    -0.020 C 
ATOM     15  C   UNL A   1      41.934 -19.361 -38.071  0.00  0.00    +0.016 C 
ATOM     16  N   UNL A   1      41.896 -20.768 -37.693  0.00  0.00    -0.296 N 
ATOM     17  C   UNL A   1      41.464 -21.802 -38.533  0.00  0.00    +0.231 C 
ATOM     18  O   UNL A   1      41.255 -22.929 -38.085  0.00  0.00    -0.274 OA
ATOM     19  C   UNL A   1      42.124 -21.108 -36.285  0.00  0.00    +0.040 C 
ENDROOT
BRANCH   1  21
ATOM     20  C   UNL A   1      45.070 -17.023 -32.114  0.00  0.00    +0.079 C 
ATOM     21  O   UNL A   1      45.575 -17.676 -33.270  0.00  0.00    -0.491 OA
ENDBRANCH   1  21
BRANCH  10  22
ATOM     22  O   UNL A   1      46.411 -18.911 -40.226  0.00  0.00    -0.388 OA
ATOM     23  H   UNL A   1      46.623 -19.389 -41.042  0.00  0.00    +0.000 HD
ENDBRANCH  10  22
BRANCH  17  24
ATOM     24  C   UNL A   1      41.268 -21.452 -40.003  0.00  0.00    +0.099 C 
ATOM     25 CL   UNL A   1      42.810 -21.451 -40.888  0.00  0.00    -0.116 Cl
ENDBRANCH  17  24
TORSDOF 3
ENDMDL
MODEL 14
REMARK VINA RESULT:    -5.924     20.064     22.410
REMARK INTER + INTRA:          -7.209
REMARK INTER:                  -7.029
REMARK INTRA:                  -0.180
REMARK UNBOUND:                -0.419
REMARK  Name = cpd323.pdb
REMARK  4 active torsions:
REMARK  status: ('A' for Active; 'I' for Inactive)
REMARK    1  A    between atoms: C_1  and  O_2
REMARK    2  A    between atoms: O_2  and  C_3
REMARK    3  A    between atoms: C_12  and  O_13
REMARK    4  A    between atoms: C_20  and  C_22
REMARK                            x       y       z     vdW  Elec       q    Type
REMARK                         _______ _______ _______ _____ _____    ______ ____
ROOT
ATOM      1  C   UNL A   1      46.722 -16.809 -39.515  0.00  0.00    +0.162 A 
ATOM      2  C   UNL A   1      46.118 -16.490 -38.298  0.00  0.00    -0.016 A 
ATOM      3  C   UNL A   1      45.157 -17.345 -37.732  0.00  0.00    -0.053 A 
ATOM      4  C   UNL A   1      44.777 -18.544 -38.361  0.00  0.00    -0.022 A 
ATOM      5  C   UNL A   1      45.417 -18.867 -39.560  0.00  0.00    +0.016 A 
ATOM      6  C   UNL A   1      46.338 -17.995 -40.129  0.00  0.00    +0.167 A 
ATOM      7  O   UNL A   1      46.814 -18.399 -41.349  0.00  0.00    -0.484 OA
ATOM      8  C   UNL A   1      46.176 -19.674 -41.627  0.00  0.00    +0.116 C 
ATOM      9  C   UNL A   1      47.311 -20.658 -41.951  0.00  0.00    +0.015 C 
ATOM     10  C   UNL A   1      46.903 -22.108 -41.763  0.00  0.00    +0.077 C 
ATOM     11  C   UNL A   1      46.365 -22.310 -40.387  0.00  0.00    -0.059 C 
ATOM     12  C   UNL A   1      45.649 -21.365 -39.758  0.00  0.00    -0.071 C 
ATOM     13  C   UNL A   1      45.229 -20.067 -40.434  0.00  0.00    +0.056 C 
ATOM     14  C   UNL A   1      43.763 -20.182 -40.933  0.00  0.00    -0.020 C 
ATOM     15  C   UNL A   1      42.670 -19.823 -39.920  0.00  0.00    +0.016 C 
ATOM     16  N   UNL A   1      42.948 -20.287 -38.566  0.00  0.00    -0.296 N 
ATOM     17  C   UNL A   1      42.352 -21.408 -37.976  0.00  0.00    +0.231 C 
ATOM     18  O   UNL A   1      42.467 -21.618 -36.769  0.00  0.00    -0.274 OA
ATOM     19  C   UNL A   1      43.741 -19.419 -37.692  0.00  0.00    +0.040 C 
ENDROOT
BRANCH   1  21
ATOM     20  C   UNL A   1      48.244 -14.988 -39.427  0.00  0.00    +0.079 C 
ATOM     21  O   UNL A   1      47.655 -16.050 -40.163  0.00  0.00    -0.491 OA
ENDBRANCH   1  21
BRANCH  10  22
ATOM     22  O   UNL A   1      45.879 -22.461 -42.682  0.00  0.00    -0.388 OA
ATOM     23  H   UNL A   1      46.126 -22.165 -43.571  0.00  0.00    +0.000 HD
ENDBRANCH  10  22
BRANCH  17  24
ATOM     24  C   UNL A   1      41.563 -22.329 -38.899  0.00  0.00    +0.099 C 
ATOM     25 CL   UNL A   1      39.821 -21.983 -38.836  0.00  0.00    -0.116 Cl
ENDBRANCH  17  24
TORSDOF 3
ENDMDL
MODEL 15
REMARK VINA RESULT:    -5.910     18.627     21.205
REMARK INTER + INTRA:          -7.194
REMARK INTER:                  -6.829
REMARK INTRA:                  -0.365
REMARK UNBOUND:                -0.419
REMARK  Name = cpd323.pdb
REMARK  4 active torsions:
REMARK  status: ('A' for Active; 'I' for Inactive)
REMARK    1  A    between atoms: C_1  and  O_2
REMARK    2  A    between atoms: O_2  and  C_3
REMARK    3  A    between atoms: C_12  and  O_13
REMARK    4  A    between atoms: C_20  and  C_22
REMARK                            x       y       z     vdW  Elec       q    Type
REMARK                         _______ _______ _______ _____ _____    ______ ____
ROOT
ATOM      1  C   UNL A   1      41.320 -22.122 -37.379  0.00  0.00    +0.162 A 
ATOM      2  C   UNL A   1      41.066 -22.435 -38.714  0.00  0.00    -0.016 A 
ATOM      3  C   UNL A   1      41.841 -21.867 -39.741  0.00  0.00    -0.053 A 
ATOM      4  C   UNL A   1      42.893 -20.977 -39.461  0.00  0.00    -0.022 A 
ATOM      5  C   UNL A   1      43.158 -20.703 -38.117  0.00  0.00    +0.016 A 
ATOM      6  C   UNL A   1      42.362 -21.240 -37.114  0.00  0.00    +0.167 A 
ATOM      7  O   UNL A   1      42.681 -20.811 -35.853  0.00  0.00    -0.484 OA
ATOM      8  C   UNL A   1      43.814 -19.915 -36.008  0.00  0.00    +0.116 C 
ATOM      9  C   UNL A   1      44.900 -20.430 -35.052  0.00  0.00    +0.015 C 
ATOM     10  C   UNL A   1      46.292 -19.961 -35.436  0.00  0.00    +0.077 C 
ATOM     11  C   UNL A   1      46.578 -20.326 -36.852  0.00  0.00    -0.059 C 
ATOM     12  C   UNL A   1      45.624 -20.313 -37.796  0.00  0.00    -0.071 C 
ATOM     13  C   UNL A   1      44.210 -19.816 -37.527  0.00  0.00    +0.056 C 
ATOM     14  C   UNL A   1      44.062 -18.352 -38.023  0.00  0.00    -0.020 C 
ATOM     15  C   UNL A   1      43.677 -18.168 -39.495  0.00  0.00    +0.016 C 
ATOM     16  N   UNL A   1      44.331 -19.110 -40.395  0.00  0.00    -0.296 N 
ATOM     17  C   UNL A   1      45.420 -18.793 -41.216  0.00  0.00    +0.231 C 
ATOM     18  O   UNL A   1      45.785 -19.566 -42.102  0.00  0.00    -0.274 OA
ATOM     19  C   UNL A   1      43.689 -20.409 -40.615  0.00  0.00    +0.040 C 
ENDROOT
BRANCH   1  21
ATOM     20  C   UNL A   1      39.387 -21.974 -36.007  0.00  0.00    +0.079 C 
ATOM     21  O   UNL A   1      40.627 -22.601 -36.303  0.00  0.00    -0.491 OA
ENDBRANCH   1  21
BRANCH  10  22
ATOM     22  O   UNL A   1      46.390 -18.548 -35.326  0.00  0.00    -0.388 OA
ATOM     23  H   UNL A   1      47.320 -18.282 -35.397  0.00  0.00    +0.000 HD
ENDBRANCH  10  22
BRANCH  17  24
ATOM     24  C   UNL A   1      46.108 -17.458 -40.955  0.00  0.00    +0.099 C 
ATOM     25 CL   UNL A   1      47.153 -17.529 -39.520  0.00  0.00    -0.116 Cl
ENDBRANCH  17  24
TORSDOF 3
ENDMDL
MODEL 16
REMARK VINA RESULT:    -5.861     21.602     23.767
REMARK INTER + INTRA:          -7.137
REMARK INTER:                  -6.720
REMARK INTRA:                  -0.417
REMARK UNBOUND:                -0.419
REMARK  Name = cpd323.pdb
REMARK  4 active torsions:
REMARK  status: ('A' for Active; 'I' for Inactive)
REMARK    1  A    between atoms: C_1  and  O_2
REMARK    2  A    between atoms: O_2  and  C_3
REMARK    3  A    between atoms: C_12  and  O_13
REMARK    4  A    between atoms: C_20  and  C_22
REMARK                            x       y       z     vdW  Elec       q    Type
REMARK                         _______ _______ _______ _____ _____    ______ ____
ROOT
ATOM      1  C   UNL A   1      44.279 -15.227 -40.136  0.00  0.00    +0.162 A 
ATOM      2  C   UNL A   1      43.552 -15.478 -41.300  0.00  0.00    -0.016 A 
ATOM      3  C   UNL A   1      43.606 -16.739 -41.918  0.00  0.00    -0.053 A 
ATOM      4  C   UNL A   1      44.383 -17.785 -41.388  0.00  0.00    -0.022 A 
ATOM      5  C   UNL A   1      45.076 -17.529 -40.203  0.00  0.00    +0.016 A 
ATOM      6  C   UNL A   1      45.045 -16.267 -39.622  0.00  0.00    +0.167 A 
ATOM      7  O   UNL A   1      45.844 -16.137 -38.516  0.00  0.00    -0.484 OA
ATOM      8  C   UNL A   1      46.461 -17.436 -38.313  0.00  0.00    +0.116 C 
ATOM      9  C   UNL A   1      46.173 -17.822 -36.853  0.00  0.00    +0.015 C 
ATOM     10  C   UNL A   1      46.279 -19.316 -36.608  0.00  0.00    +0.077 C 
ATOM     11  C   UNL A   1      45.400 -20.051 -37.562  0.00  0.00    -0.059 C 
ATOM     12  C   UNL A   1      45.210 -19.628 -38.822  0.00  0.00    -0.071 C 
ATOM     13  C   UNL A   1      45.960 -18.443 -39.413  0.00  0.00    +0.056 C 
ATOM     14  C   UNL A   1      47.160 -18.946 -40.261  0.00  0.00    -0.020 C 
ATOM     15  C   UNL A   1      46.862 -19.285 -41.726  0.00  0.00    +0.016 C 
ATOM     16  N   UNL A   1      45.582 -19.953 -41.925  0.00  0.00    -0.296 N 
ATOM     17  C   UNL A   1      45.433 -21.326 -42.156  0.00  0.00    +0.231 C 
ATOM     18  O   UNL A   1      44.355 -21.788 -42.527  0.00  0.00    -0.274 OA
ATOM     19  C   UNL A   1      44.391 -19.118 -42.103  0.00  0.00    +0.040 C 
ENDROOT
BRANCH   1  21
ATOM     20  C   UNL A   1      45.118 -13.009 -40.010  0.00  0.00    +0.079 C 
ATOM     21  O   UNL A   1      44.312 -14.041 -39.459  0.00  0.00    -0.491 OA
ENDBRANCH   1  21
BRANCH  10  22
ATOM     22  O   UNL A   1      47.611 -19.763 -36.817  0.00  0.00    -0.388 OA
ATOM     23  H   UNL A   1      47.606 -20.529 -37.412  0.00  0.00    +0.000 HD
ENDBRANCH  10  22
BRANCH  17  24
ATOM     24  C   UNL A   1      46.666 -22.195 -41.930  0.00  0.00    +0.099 C 
ATOM     25 CL   UNL A   1      46.879 -22.595 -40.212  0.00  0.00    -0.116 Cl
ENDBRANCH  17  24
TORSDOF 3
ENDMDL
MODEL 17
REMARK VINA RESULT:    -5.760     26.643     29.084
REMARK INTER + INTRA:          -7.021
REMARK INTER:                  -6.613
REMARK INTRA:                  -0.409
REMARK UNBOUND:                -0.419
REMARK  Name = cpd323.pdb
REMARK  4 active torsions:
REMARK  status: ('A' for Active; 'I' for Inactive)
REMARK    1  A    between atoms: C_1  and  O_2
REMARK    2  A    between atoms: O_2  and  C_3
REMARK    3  A    between atoms: C_12  and  O_13
REMARK    4  A    between atoms: C_20  and  C_22
REMARK                            x       y       z     vdW  Elec       q    Type
REMARK                         _______ _______ _______ _____ _____    ______ ____
ROOT
ATOM      1  C   UNL A   1      44.224 -36.240 -54.761  0.00  0.00    +0.162 A 
ATOM      2  C   UNL A   1      44.431 -36.101 -53.389  0.00  0.00    -0.016 A 
ATOM      3  C   UNL A   1      45.328 -35.138 -52.895  0.00  0.00    -0.053 A 
ATOM      4  C   UNL A   1      46.038 -34.285 -53.758  0.00  0.00    -0.022 A 
ATOM      5  C   UNL A   1      45.793 -34.411 -55.127  0.00  0.00    +0.016 A 
ATOM      6  C   UNL A   1      44.932 -35.391 -55.605  0.00  0.00    +0.167 A 
ATOM      7  O   UNL A   1      44.860 -35.458 -56.972  0.00  0.00    -0.484 OA
ATOM      8  C   UNL A   1      45.736 -34.413 -57.472  0.00  0.00    +0.116 C 
ATOM      9  C   UNL A   1      44.890 -33.575 -58.443  0.00  0.00    +0.015 C 
ATOM     10  C   UNL A   1      45.451 -32.181 -58.659  0.00  0.00    +0.077 C 
ATOM     11  C   UNL A   1      45.632 -31.498 -57.347  0.00  0.00    -0.059 C 
ATOM     12  C   UNL A   1      46.005 -32.166 -56.244  0.00  0.00    -0.071 C 
ATOM     13  C   UNL A   1      46.385 -33.639 -56.265  0.00  0.00    +0.056 C 
ATOM     14  C   UNL A   1      47.931 -33.786 -56.307  0.00  0.00    -0.020 C 
ATOM     15  C   UNL A   1      48.651 -33.783 -54.955  0.00  0.00    +0.016 C 
ATOM     16  N   UNL A   1      48.101 -32.830 -53.999  0.00  0.00    -0.296 N 
ATOM     17  C   UNL A   1      48.686 -31.597 -53.686  0.00  0.00    +0.231 C 
ATOM     18  O   UNL A   1      48.291 -30.941 -52.722  0.00  0.00    -0.274 OA
ATOM     19  C   UNL A   1      46.983 -33.268 -53.157  0.00  0.00    +0.040 C 
ENDROOT
BRANCH   1  21
ATOM     20  C   UNL A   1      42.020 -37.097 -54.979  0.00  0.00    +0.079 C 
ATOM     21  O   UNL A   1      43.389 -37.145 -55.353  0.00  0.00    -0.491 OA
ENDBRANCH   1  21
BRANCH  10  22
ATOM     22  O   UNL A   1      46.721 -32.247 -59.291  0.00  0.00    -0.388 OA
ATOM     23  H   UNL A   1      47.401 -31.910 -58.686  0.00  0.00    +0.000 HD
ENDBRANCH  10  22
BRANCH  17  24
ATOM     24  C   UNL A   1      49.821 -31.129 -54.590  0.00  0.00    +0.099 C 
ATOM     25 CL   UNL A   1      49.208 -30.265 -56.017  0.00  0.00    -0.116 Cl
ENDBRANCH  17  24
TORSDOF 3
ENDMDL
MODEL 18
REMARK VINA RESULT:    -5.675     26.723     29.000
REMARK INTER + INTRA:          -6.923
REMARK INTER:                  -6.514
REMARK INTRA:                  -0.410
REMARK UNBOUND:                -0.419
REMARK  Name = cpd323.pdb
REMARK  4 active torsions:
REMARK  status: ('A' for Active; 'I' for Inactive)
REMARK    1  A    between atoms: C_1  and  O_2
REMARK    2  A    between atoms: O_2  and  C_3
REMARK    3  A    between atoms: C_12  and  O_13
REMARK    4  A    between atoms: C_20  and  C_22
REMARK                            x       y       z     vdW  Elec       q    Type
REMARK                         _______ _______ _______ _____ _____    ______ ____
ROOT
ATOM      1  C   UNL A   1      47.634 -30.746 -54.454  0.00  0.00    +0.162 A 
ATOM      2  C   UNL A   1      47.176 -31.002 -53.161  0.00  0.00    -0.016 A 
ATOM      3  C   UNL A   1      46.471 -32.184 -52.875  0.00  0.00    -0.053 A 
ATOM      4  C   UNL A   1      46.211 -33.144 -53.868  0.00  0.00    -0.022 A 
ATOM      5  C   UNL A   1      46.709 -32.890 -55.148  0.00  0.00    +0.016 A 
ATOM      6  C   UNL A   1      47.371 -31.701 -55.429  0.00  0.00    +0.167 A 
ATOM      7  O   UNL A   1      47.720 -31.549 -56.744  0.00  0.00    -0.484 OA
ATOM      8  C   UNL A   1      47.274 -32.755 -57.420  0.00  0.00    +0.116 C 
ATOM      9  C   UNL A   1      48.498 -33.301 -58.171  0.00  0.00    +0.015 C 
ATOM     10  C   UNL A   1      48.376 -34.779 -58.497  0.00  0.00    +0.077 C 
ATOM     11  C   UNL A   1      48.095 -35.552 -57.254  0.00  0.00    -0.059 C 
ATOM     12  C   UNL A   1      47.331 -35.057 -56.268  0.00  0.00    -0.071 C 
ATOM     13  C   UNL A   1      46.599 -33.728 -56.385  0.00  0.00    +0.056 C 
ATOM     14  C   UNL A   1      45.115 -33.974 -56.773  0.00  0.00    -0.020 C 
ATOM     15  C   UNL A   1      44.142 -34.227 -55.616  0.00  0.00    +0.016 C 
ATOM     16  N   UNL A   1      44.696 -35.058 -54.554  0.00  0.00    -0.296 N 
ATOM     17  C   UNL A   1      44.395 -36.413 -54.372  0.00  0.00    +0.231 C 
ATOM     18  O   UNL A   1      44.725 -36.996 -53.339  0.00  0.00    -0.274 OA
ATOM     19  C   UNL A   1      45.452 -34.395 -53.487  0.00  0.00    +0.040 C 
ENDROOT
BRANCH   1  21
ATOM     20  C   UNL A   1      47.660 -28.382 -54.678  0.00  0.00    +0.079 C 
ATOM     21  O   UNL A   1      48.316 -29.630 -54.850  0.00  0.00    -0.491 OA
ENDBRANCH   1  21
BRANCH  10  22
ATOM     22  O   UNL A   1      47.301 -35.005 -59.398  0.00  0.00    -0.388 OA
ATOM     23  H   UNL A   1      46.463 -34.987 -58.911  0.00  0.00    +0.000 HD
ENDBRANCH  10  22
BRANCH  17  24
ATOM     24  C   UNL A   1      43.645 -37.106 -55.503  0.00  0.00    +0.099 C 
ATOM     25 CL   UNL A   1      44.757 -37.731 -56.740  0.00  0.00    -0.116 Cl
ENDBRANCH  17  24
TORSDOF 3
ENDMDL
MODEL 19
REMARK VINA RESULT:    -5.560     18.979     21.358
REMARK INTER + INTRA:          -6.791
REMARK INTER:                  -6.369
REMARK INTRA:                  -0.422
REMARK UNBOUND:                -0.419
REMARK  Name = cpd323.pdb
REMARK  4 active torsions:
REMARK  status: ('A' for Active; 'I' for Inactive)
REMARK    1  A    between atoms: C_1  and  O_2
REMARK    2  A    between atoms: O_2  and  C_3
REMARK    3  A    between atoms: C_12  and  O_13
REMARK    4  A    between atoms: C_20  and  C_22
REMARK                            x       y       z     vdW  Elec       q    Type
REMARK                         _______ _______ _______ _____ _____    ______ ____
ROOT
ATOM      1  C   UNL A   1      46.020 -21.498 -41.167  0.00  0.00    +0.162 A 
ATOM      2  C   UNL A   1      45.059 -21.885 -42.102  0.00  0.00    -0.016 A 
ATOM      3  C   UNL A   1      43.690 -21.722 -41.827  0.00  0.00    -0.053 A 
ATOM      4  C   UNL A   1      43.244 -21.165 -40.616  0.00  0.00    -0.022 A 
ATOM      5  C   UNL A   1      44.219 -20.749 -39.706  0.00  0.00    +0.016 A 
ATOM      6  C   UNL A   1      45.568 -20.948 -39.973  0.00  0.00    +0.167 A 
ATOM      7  O   UNL A   1      46.403 -20.576 -38.953  0.00  0.00    -0.484 OA
ATOM      8  C   UNL A   1      45.546 -20.054 -37.902  0.00  0.00    +0.116 C 
ATOM      9  C   UNL A   1      46.096 -18.663 -37.554  0.00  0.00    +0.015 C 
ATOM     10  C   UNL A   1      45.067 -17.776 -36.876  0.00  0.00    +0.077 C 
ATOM     11  C   UNL A   1      43.836 -17.696 -37.713  0.00  0.00    -0.059 C 
ATOM     12  C   UNL A   1      43.396 -18.741 -38.431  0.00  0.00    -0.071 C 
ATOM     13  C   UNL A   1      44.043 -20.117 -38.361  0.00  0.00    +0.056 C 
ATOM     14  C   UNL A   1      43.231 -21.033 -37.405  0.00  0.00    -0.020 C 
ATOM     15  C   UNL A   1      42.055 -21.793 -38.027  0.00  0.00    +0.016 C 
ATOM     16  N   UNL A   1      41.298 -21.011 -38.997  0.00  0.00    -0.296 N 
ATOM     17  C   UNL A   1      40.057 -20.417 -38.739  0.00  0.00    +0.231 C 
ATOM     18  O   UNL A   1      39.378 -19.957 -39.656  0.00  0.00    -0.274 OA
ATOM     19  C   UNL A   1      41.756 -21.015 -40.390  0.00  0.00    +0.040 C 
ENDROOT
BRANCH   1  21
ATOM     20  C   UNL A   1      47.911 -22.932 -41.255  0.00  0.00    +0.079 C 
ATOM     21  O   UNL A   1      47.372 -21.619 -41.320  0.00  0.00    -0.491 OA
ENDBRANCH   1  21
BRANCH  10  22
ATOM     22  O   UNL A   1      44.697 -18.316 -35.616  0.00  0.00    -0.388 OA
ATOM     23  H   UNL A   1      44.508 -17.593 -34.997  0.00  0.00    +0.000 HD
ENDBRANCH  10  22
BRANCH  17  24
ATOM     24  C   UNL A   1      39.606 -20.380 -37.283  0.00  0.00    +0.099 C 
ATOM     25 CL   UNL A   1      40.310 -18.999 -36.414  0.00  0.00    -0.116 Cl
ENDBRANCH  17  24
TORSDOF 3
ENDMDL
MODEL 20
REMARK VINA RESULT:    -5.547      2.566      4.340
REMARK INTER + INTRA:          -6.777
REMARK INTER:                  -6.590
REMARK INTRA:                  -0.187
REMARK UNBOUND:                -0.419
REMARK  Name = cpd323.pdb
REMARK  4 active torsions:
REMARK  status: ('A' for Active; 'I' for Inactive)
REMARK    1  A    between atoms: C_1  and  O_2
REMARK    2  A    between atoms: O_2  and  C_3
REMARK    3  A    between atoms: C_12  and  O_13
REMARK    4  A    between atoms: C_20  and  C_22
REMARK                            x       y       z     vdW  Elec       q    Type
REMARK                         _______ _______ _______ _____ _____    ______ ____
ROOT
ATOM      1  C   UNL A   1      32.133 -32.487 -30.647  0.00  0.00    +0.162 A 
ATOM      2  C   UNL A   1      33.253 -31.661 -30.741  0.00  0.00    -0.016 A 
ATOM      3  C   UNL A   1      34.541 -32.214 -30.855  0.00  0.00    -0.053 A 
ATOM      4  C   UNL A   1      34.744 -33.605 -30.884  0.00  0.00    -0.022 A 
ATOM      5  C   UNL A   1      33.610 -34.418 -30.827  0.00  0.00    +0.016 A 
ATOM      6  C   UNL A   1      32.346 -33.861 -30.676  0.00  0.00    +0.167 A 
ATOM      7  O   UNL A   1      31.339 -34.781 -30.541  0.00  0.00    -0.484 OA
ATOM      8  C   UNL A   1      31.972 -36.085 -30.629  0.00  0.00    +0.116 C 
ATOM      9  C   UNL A   1      31.209 -36.858 -31.715  0.00  0.00    +0.015 C 
ATOM     10  C   UNL A   1      32.016 -38.004 -32.298  0.00  0.00    +0.077 C 
ATOM     11  C   UNL A   1      33.329 -37.500 -32.792  0.00  0.00    -0.059 C 
ATOM     12  C   UNL A   1      33.991 -36.513 -32.168  0.00  0.00    -0.071 C 
ATOM     13  C   UNL A   1      33.520 -35.912 -30.852  0.00  0.00    +0.056 C 
ATOM     14  C   UNL A   1      34.303 -36.548 -29.670  0.00  0.00    -0.020 C 
ATOM     15  C   UNL A   1      35.640 -35.890 -29.309  0.00  0.00    +0.016 C 
ATOM     16  N   UNL A   1      36.416 -35.464 -30.467  0.00  0.00    -0.296 N 
ATOM     17  C   UNL A   1      37.526 -36.152 -30.972  0.00  0.00    +0.231 C 
ATOM     18  O   UNL A   1      38.260 -35.631 -31.811  0.00  0.00    -0.274 OA
ATOM     19  C   UNL A   1      36.156 -34.129 -31.015  0.00  0.00    +0.040 C 
ENDROOT
BRANCH   1  21
ATOM     20  C   UNL A   1      30.567 -31.135 -29.481  0.00  0.00    +0.079 C 
ATOM     21  O   UNL A   1      30.840 -32.064 -30.520  0.00  0.00    -0.491 OA
ENDBRANCH   1  21
BRANCH  10  22
ATOM     22  O   UNL A   1      32.277 -38.987 -31.307  0.00  0.00    -0.388 OA
ATOM     23  H   UNL A   1      31.578 -39.659 -31.326  0.00  0.00    +0.000 HD
ENDBRANCH  10  22
BRANCH  17  24
ATOM     24  C   UNL A   1      37.766 -37.555 -30.428  0.00  0.00    +0.099 C 
ATOM     25 CL   UNL A   1      39.049 -37.569 -29.198  0.00  0.00    -0.116 Cl
ENDBRANCH  17  24
TORSDOF 3
ENDMDL
