@<TRIPOS>MOLECULE
*****
 24 27 0 0 0
SMALL
GASTEIGER

@<TRIPOS>ATOM
      1 C          -1.0995    4.0103    0.0000 C.3     1  UNL1        0.2526
      2 O          -0.2506    3.6164    0.0000 O.3     1  UNL1       -0.4684
      3 C          -0.2651    2.6806    0.0000 C.ar    1  UNL1        0.1721
      4 C          -1.0828    2.2253    0.0000 C.ar    1  UNL1        0.0398
      5 C          -1.0973    1.2889    0.0000 C.ar    1  UNL1        0.0004
      6 C          -0.2942    0.8084    0.0000 C.ar    1  UNL1       -0.0028
      7 C           0.5239    1.2637    0.0000 C.ar    1  UNL1        0.0191
      8 C           0.5385    2.2001    0.0000 C.ar    1  UNL1        0.1682
      9 O           1.3561    2.6554    0.0000 O.3     1  UNL1       -0.4757
     10 C           2.1597    2.1749    0.0000 C.3     1  UNL1        0.1762
     11 C           2.9779    2.6302    0.0000 C.3     1  UNL1        0.0816
     12 C           3.7810    2.1497    0.0000 C.3     1  UNL1        0.1773
     13 O           4.6153    2.6142    0.0000 O.3     1  UNL1       -0.2182
     14 C           3.7664    1.2133    0.0000 C.2     1  UNL1        0.0021
     15 C           2.9488    0.7580    0.0000 C.2     1  UNL1       -0.0211
     16 C           2.1452    1.2385    0.0000 C.3     1  UNL1        0.0783
     17 C           2.1452    0.3783    0.0000 C.3     1  UNL1        0.0332
     18 C           1.5922   -0.2807    0.0000 C.3     1  UNL1        0.0945
     19 N           0.7450   -0.4301    0.0000 N.am    1  UNL1       -0.2744
     20 C           0.5745   -1.3971    0.0000 C.2     1  UNL1        0.2425
     21 O          -0.3482   -1.7329    0.0000 O.2     1  UNL1       -0.2735
     22 C           1.3267   -2.0283    0.0000 C.3     1  UNL1        0.1796
     23 CL          1.1562   -2.9952    0.0000 Cl      1  UNL1       -0.1033
     24 C           0.0000   -0.0000    0.0000 C.3     1  UNL1        0.1200
@<TRIPOS>BOND
     1     1     2    1
     2     2     3    1
     3     3     4   ar
     4     4     5   ar
     5     5     6   ar
     6     6     7   ar
     7     7     8   ar
     8     3     8   ar
     9     8     9    1
    10     9    10    1
    11    10    11    1
    12    11    12    1
    13    12    13    1
    14    12    14    1
    15    14    15    2
    16    15    16    1
    17     7    16    1
    18    10    16    1
    19    16    17    1
    20    17    18    1
    21    18    19    1
    22    19    20   am
    23    20    21    2
    24    20    22    1
    25    22    23    1
    26    19    24    1
    27     6    24    1
