REMARK  Name = cpd323.pdb
REMARK  4 active torsions:
REMARK  status: ('A' for Active; 'I' for Inactive)
REMARK    1  A    between atoms: C_1  and  O_2
REMARK    2  A    between atoms: O_2  and  C_3
REMARK    3  A    between atoms: C_12  and  O_13
REMARK    4  A    between atoms: C_20  and  C_22
REMARK                            x       y       z     vdW  Elec       q    Type
REMARK                         _______ _______ _______ _____ _____    ______ ____
ROOT
ATOM      1  C   UNL A   1      -0.778   3.638  -0.174  0.00  0.00    +0.162 A 
ATOM      2  C   UNL A   1      -1.882   2.861   0.177  0.00  0.00    -0.016 A 
ATOM      3  C   UNL A   1      -1.741   1.481   0.404  0.00  0.00    -0.053 A 
ATOM      4  C   UNL A   1      -0.494   0.841   0.292  0.00  0.00    -0.022 A 
ATOM      5  C   UNL A   1       0.608   1.639  -0.024  0.00  0.00    +0.016 A 
ATOM      6  C   UNL A   1       0.450   2.995  -0.283  0.00  0.00    +0.167 A 
ATOM      7  O   UNL A   1       1.600   3.631  -0.670  0.00  0.00    -0.484 OA
ATOM      8  C   UNL A   1       2.643   2.620  -0.653  0.00  0.00    +0.116 C 
ATOM      9  C   UNL A   1       3.777   3.191   0.212  0.00  0.00    +0.015 C 
ATOM     10  C   UNL A   1       4.697   2.115   0.760  0.00  0.00    +0.077 C 
ATOM     11  C   UNL A   1       3.900   1.090   1.492  0.00  0.00    -0.059 C 
ATOM     12  C   UNL A   1       2.671   0.728   1.093  0.00  0.00    -0.071 C 
ATOM     13  C   UNL A   1       2.041   1.241  -0.194  0.00  0.00    +0.056 C 
ATOM     14  C   UNL A   1       2.207   0.185  -1.321  0.00  0.00    -0.020 C 
ATOM     15  C   UNL A   1       1.122  -0.894  -1.407  0.00  0.00    +0.016 C 
ATOM     16  N   UNL A   1       0.669  -1.376  -0.108  0.00  0.00    -0.296 N 
ATOM     17  C   UNL A   1       1.055  -2.595   0.462  0.00  0.00    +0.231 C 
ATOM     18  O   UNL A   1       0.475  -3.037   1.453  0.00  0.00    -0.274 OA
ATOM     19  C   UNL A   1      -0.415  -0.646   0.556  0.00  0.00    +0.040 C 
ENDROOT
BRANCH   1  21
ATOM     20  C   UNL A   1      -1.996   5.676  -0.116  0.00  0.00    +0.079 C 
ATOM     21  O   UNL A   1      -0.798   4.980  -0.430  0.00  0.00    -0.491 OA
ENDBRANCH   1  21
BRANCH  10  22
ATOM     22  O   UNL A   1       5.380   1.456  -0.297  0.00  0.00    -0.388 OA
ATOM     23  H   UNL A   1       4.735   1.032  -0.884  0.00  0.00    +0.000 HD
ENDBRANCH  10  22
BRANCH  17  24
ATOM     24  C   UNL A   1       2.210  -3.329  -0.210  0.00  0.00    +0.099 C 
ATOM     25 CL   UNL A   1       2.815  -4.661   0.799  0.00  0.00    -0.116 Cl
ENDBRANCH  17  24
TORSDOF 3
