REMARK  Name = cpd214.pdb
REMARK  10 active torsions:
REMARK  status: ('A' for Active; 'I' for Inactive)
REMARK    1  A    between atoms: C_1  and  C_2
REMARK    2  A    between atoms: C_2  and  C_3
REMARK    3  A    between atoms: C_3  and  C_4
REMARK    4  A    between atoms: C_4  and  O_6
REMARK    5  A    between atoms: O_6  and  C_7
REMARK    6  A    between atoms: C_7  and  C_8
REMARK    7  A    between atoms: C_8  and  N_9
REMARK    8  A    between atoms: N_9  and  C_10
REMARK    9  A    between atoms: N_9  and  C_11
REMARK   10  A    between atoms: N_9  and  C_12
REMARK                            x       y       z     vdW  Elec       q    Type
REMARK                         _______ _______ _______ _____ _____    ______ ____
ROOT
ATOM      1  O   UNL     1      -3.599  -0.500  -0.238  0.00  0.00    -0.466 OA
ENDROOT
BRANCH   1   2
ATOM      2  C   UNL     1      -4.169  -0.960   0.909  0.00  0.00    +0.307 C 
ATOM      3  O   UNL     1      -3.619  -0.928   2.001  0.00  0.00    -0.251 OA
BRANCH   2   4
ATOM      4  C   UNL     1      -5.550  -1.503   0.647  0.00  0.00    +0.045 C 
BRANCH   4   6
ATOM      5  C   UNL     1      -6.721   0.712   0.264  0.00  0.00    -0.065 C 
ATOM      6  C   UNL     1      -6.633  -0.543   1.121  0.00  0.00    -0.046 C 
ENDBRANCH   4   6
ENDBRANCH   2   4
ENDBRANCH   1   2
BRANCH   1   7
ATOM      7  C   UNL     1      -2.338   0.185  -0.078  0.00  0.00    +0.078 C 
BRANCH   7   8
ATOM      8  C   UNL     1      -1.000  -1.000   0.000  0.00  0.00    -0.054 C 
BRANCH   8   9
ATOM      9  N   UNL     1       0.000  -1.000   0.000  0.00  0.00    +0.377 N 
ATOM     10  C   UNL     1       0.000  -2.000   0.000  0.00  0.00    -0.101 C 
ATOM     11  C   UNL     1       1.000  -1.000   0.000  0.00  0.00    -0.101 C 
ATOM     12  C   UNL     1       0.000   0.000   0.000  0.00  0.00    -0.101 C 
ENDBRANCH   8   9
ENDBRANCH   7   8
ENDBRANCH   1   7
TORSDOF 6
