@<TRIPOS>MOLECULE
*****
 12 11 0 0 0
SMALL
GASTEIGER

@<TRIPOS>ATOM
      1 C          -4.0000    0.7321    0.0000 C.3     1  UNL1        0.0006
      2 C          -4.5000   -0.1340    0.0000 C.3     1  UNL1        0.0116
      3 C          -4.0000   -1.0000    0.0000 C.3     1  UNL1        0.1096
      4 C          -3.0000   -1.0000    0.0000 C.2     1  UNL1        0.3172
      5 O          -2.5000   -1.8660    0.0000 O.2     1  UNL1       -0.2501
      6 O          -2.5000   -0.1340    0.0000 O.3     1  UNL1       -0.4420
      7 C          -1.5000   -0.1340    0.0000 C.3     1  UNL1        0.2688
      8 C          -1.0000   -1.0000    0.0000 C.3     1  UNL1        0.1575
      9 N           0.0000   -1.0000    0.0000 N.4     1  UNL1        0.3135
     10 C           0.0000   -2.0000    0.0000 C.3     1  UNL1        0.1711
     11 C           1.0000   -1.0000    0.0000 C.3     1  UNL1        0.1711
     12 C           0.0000   -0.0000    0.0000 C.3     1  UNL1        0.1711
@<TRIPOS>UNITY_ATOM_ATTR
9 1
charge 1
@<TRIPOS>BOND
     1     1     2    1
     2     2     3    1
     3     3     4    1
     4     4     5    2
     5     4     6    1
     6     6     7    1
     7     7     8    1
     8     8     9    1
     9     9    10    1
    10     9    11    1
    11     9    12    1
