@<TRIPOS>MOLECULE
*****
 41 45 0 0 0
SMALL
GASTEIGER

@<TRIPOS>ATOM
      1 C          -0.9508    5.5291    0.0000 C.2     1  UNL1       -0.0066
      2 C          -1.3842    4.6786    0.0000 C.2     1  UNL1       -0.0120
      3 C          -2.3375    4.6286    0.0000 C.3     1  UNL1        0.2044
      4 O          -2.8574    5.4292    0.0000 O.3     1  UNL1       -0.2155
      5 C          -0.8643    3.8780    0.0000 C.3     1  UNL1        0.0209
      6 C           0.0695    3.6795    0.0000 C.3     1  UNL1        0.0042
      7 C           0.3649    2.7722    0.0000 C.3     1  UNL1        0.0027
      8 C          -0.2743    2.0623    0.0000 C.3     1  UNL1        0.0276
      9 C           0.6853    1.8583    0.0000 C.3     1  UNL1        0.0025
     10 C          -1.2080    2.2608    0.0000 C.3     1  UNL1        0.0061
     11 C          -1.8472    1.5509    0.0000 C.3     1  UNL1        0.0005
     12 C          -2.7815    1.7495    0.0000 C.3     1  UNL1        0.0000
     13 C          -3.4206    1.0396    0.0000 C.3     1  UNL1        0.0000
     14 C          -3.1255    0.1311    0.0000 C.3     1  UNL1        0.0000
     15 C          -3.7645   -0.5782    0.0000 C.3     1  UNL1        0.0002
     16 C          -4.0679    0.3548    0.0000 C.3     1  UNL1        0.0000
     17 C          -4.6984   -0.3799    0.0000 C.3     1  UNL1        0.0026
     18 C          -5.3370   -1.0896    0.0000 C.3     1  UNL1        0.0320
     19 C          -5.0418   -1.9975    0.0000 C.3     1  UNL1        0.1431
     20 O          -5.7039   -2.7333    0.0000 O.3     1  UNL1       -0.2438
     21 S          -6.6722   -2.5278    0.0000 S.3     1  UNL1       -0.0002
     22 O          -6.4667   -1.5595    0.0000 O.2     1  UNL1       -0.3452
     23 O          -7.6405   -2.3223    0.0000 O.2     1  UNL1       -0.3452
     24 O          -6.8777   -3.4961    0.0000 O.co2   1  UNL1       -0.2682
     25 C          -4.1079   -2.1957    0.0000 C.3     1  UNL1        0.0273
     26 C          -4.3134   -3.1640    0.0000 C.3     1  UNL1        0.0025
     27 C          -3.3720   -2.8579    0.0000 C.3     1  UNL1        0.0025
     28 C          -3.4692   -1.4861    0.0000 C.3     1  UNL1        0.0023
     29 C          -2.5349   -1.6847    0.0000 C.3     1  UNL1        0.0001
     30 C          -1.8959   -0.9754    0.0000 C.3     1  UNL1        0.0000
     31 C          -2.1912   -0.0675    0.0000 C.3     1  UNL1        0.0001
     32 C          -0.2719   -0.4754    0.0000 C.3     1  UNL1        0.0000
     33 C          -1.5520    0.6424    0.0000 C.3     1  UNL1        0.0024
     34 C          -1.2489   -0.2906    0.0000 C.3     1  UNL1        0.0001
     35 C          -0.6183    0.4439    0.0000 C.3     1  UNL1        0.0320
     36 C           0.0209    1.1538    0.0000 C.3     1  UNL1        0.1431
     37 O           0.9552    0.9552    0.0000 O.3     1  UNL1       -0.2438
     38 S           0.9552   -0.0000    0.0000 S.3     1  UNL1       -0.0002
     39 O           1.9104   -0.0000    0.0000 O.2     1  UNL1       -0.3452
     40 O           0.9552   -0.9552    0.0000 O.2     1  UNL1       -0.3452
     41 O           0.0000    0.0000    0.0000 O.co2   1  UNL1       -0.2682
@<TRIPOS>UNITY_ATOM_ATTR
24 1
charge -1
41 1
charge -1
@<TRIPOS>BOND
     1     1     2    2
     2     2     3    1
     3     3     4    1
     4     2     5    1
     5     5     6    1
     6     6     7    1
     7     7     8    1
     8     8     9    1
     9     8    10    1
    10     5    10    1
    11    10    11    1
    12    11    12    1
    13    12    13    1
    14    13    14    1
    15    14    15    1
    16    15    16    1
    17    15    17    1
    18    17    18    1
    19    18    19    1
    20    19    20    1
    21    20    21    1
    22    21    22    2
    23    21    23    2
    24    21    24    1
    25    19    25    1
    26    25    26    1
    27    25    27    1
    28    25    28    1
    29    15    28    1
    30    28    29    1
    31    29    30    1
    32    30    31    1
    33    14    31    1
    34    31    32    1
    35    31    33    1
    36    11    33    1
    37    33    34    1
    38    33    35    1
    39    35    36    1
    40     8    36    1
    41    36    37    1
    42    37    38    1
    43    38    39    2
    44    38    40    2
    45    38    41    1
