MODEL 1
REMARK VINA RESULT:    -8.061      0.000      0.000
REMARK INTER + INTRA:         -12.319
REMARK INTER:                 -11.124
REMARK INTRA:                  -1.195
REMARK UNBOUND:                -1.195
REMARK  Name = cpd282.pdb
REMARK  13 active torsions:
REMARK  status: ('A' for Active; 'I' for Inactive)
REMARK    1  A    between atoms: C_2  and  C_3
REMARK    2  A    between atoms: C_2  and  C_5
REMARK    3  A    between atoms: C_3  and  O_4
REMARK    4  A    between atoms: C_8  and  C_9
REMARK    5  A    between atoms: C_15  and  C_16
REMARK    6  A    between atoms: C_19  and  O_20
REMARK    7  A    between atoms: O_20  and  S_21
REMARK    8  A    between atoms: C_25  and  C_26
REMARK    9  A    between atoms: C_25  and  C_27
REMARK   10  A    between atoms: C_31  and  C_32
REMARK   11  A    between atoms: C_33  and  C_34
REMARK   12  A    between atoms: C_36  and  O_37
REMARK   13  A    between atoms: O_37  and  S_38
REMARK                            x       y       z     vdW  Elec       q    Type
REMARK                         _______ _______ _______ _____ _____    ______ ____
ROOT
ATOM      1  C   UNL     1      38.127 -36.147 -30.419  0.00  0.00    -0.014 C 
ATOM      2  C   UNL     1      38.615 -37.605 -30.496  0.00  0.00    -0.046 C 
ATOM      3  C   UNL     1      37.432 -38.457 -30.089  0.00  0.00    -0.044 C 
ATOM      4  C   UNL     1      36.555 -37.584 -29.154  0.00  0.00    +0.000 C 
ATOM      5  C   UNL     1      37.244 -37.481 -27.772  0.00  0.00    -0.057 C 
ATOM      6  C   UNL     1      36.619 -36.190 -29.908  0.00  0.00    -0.023 C 
ATOM      7  C   UNL     1      35.506 -35.944 -30.978  0.00  0.00    -0.031 C 
ATOM      8  C   UNL     1      35.447 -34.504 -31.551  0.00  0.00    -0.049 C 
ATOM      9  C   UNL     1      34.683 -33.445 -30.759  0.00  0.00    -0.049 C 
ATOM     10  C   UNL     1      33.314 -33.833 -30.149  0.00  0.00    -0.029 C 
ATOM     11  C   UNL     1      32.009 -33.227 -30.853  0.00  0.00    -0.025 C 
ATOM     12  C   UNL     1      31.950 -33.558 -32.357  0.00  0.00    -0.059 C 
ATOM     13  C   UNL     1      32.049 -31.667 -30.737  0.00  0.00    -0.045 C 
ATOM     14  C   UNL     1      30.750 -30.971 -31.140  0.00  0.00    -0.023 C 
ATOM     15  C   UNL     1      29.537 -31.471 -30.354  0.00  0.00    +0.095 C 
ATOM     16  C   UNL     1      29.376 -33.027 -30.398  0.00  0.00    -0.003 C 
ATOM     17  C   UNL     1      28.319 -33.397 -29.317  0.00  0.00    -0.057 C 
ATOM     18  C   UNL     1      28.781 -33.501 -31.742  0.00  0.00    -0.057 C 
ATOM     19  C   UNL     1      30.753 -33.707 -30.041  0.00  0.00    -0.028 C 
ATOM     20  C   UNL     1      30.715 -35.241 -29.995  0.00  0.00    -0.049 C 
ATOM     21  C   UNL     1      31.888 -35.799 -29.196  0.00  0.00    -0.047 C 
ATOM     22  C   UNL     1      33.322 -35.324 -29.594  0.00  0.00    -0.023 C 
ATOM     23  C   UNL     1      34.096 -35.157 -28.242  0.00  0.00    -0.059 C 
ATOM     24  C   UNL     1      34.066 -36.396 -30.571  0.00  0.00    -0.021 C 
ATOM     25  C   UNL     1      33.259 -36.562 -31.900  0.00  0.00    -0.059 C 
ATOM     26  C   UNL     1      34.148 -37.881 -30.088  0.00  0.00    -0.018 C 
ATOM     27  C   UNL     1      35.173 -38.309 -29.020  0.00  0.00    +0.096 C 
ENDROOT
BRANCH   1  29
ATOM     28  C   UNL     1      38.919 -35.925 -32.761  0.00  0.00    -0.097 C 
ATOM     29  C   UNL     1      38.597 -35.308 -31.606  0.00  0.00    -0.048 C 
BRANCH  29  30
ATOM     30  C   UNL     1      38.611 -33.797 -31.472  0.00  0.00    +0.065 C 
BRANCH  30  31
ATOM     31  O   UNL     1      39.802 -33.227 -32.006  0.00  0.00    -0.391 OA
ATOM     32  H   UNL     1      40.452 -33.112 -31.295  0.00  0.00    +0.000 HD
ENDBRANCH  30  31
ENDBRANCH  29  30
ENDBRANCH   1  29
BRANCH  15  33
ATOM     33  O   UNL     1      28.373 -30.854 -30.899  0.00  0.00    -0.210 OA
BRANCH  33  34
ATOM     34  S   UNL     1      27.624 -29.675 -30.057  0.00  0.00    +0.239 S 
ATOM     35  O   UNL     1      27.972 -28.449 -30.771  0.00  0.00    -0.116 OA
ATOM     36  O   UNL     1      26.214 -30.043 -30.148  0.00  0.00    -0.116 OA
ATOM     37  O   UNL     1      28.191 -29.779 -28.716  0.00  0.00    -0.022 OA
ENDBRANCH  33  34
ENDBRANCH  15  33
BRANCH  27  38
ATOM     38  O   UNL     1      34.658 -38.471 -27.693  0.00  0.00    -0.210 OA
BRANCH  38  39
ATOM     39  S   UNL     1      33.944 -38.965 -27.297  0.00  0.00    +0.239 S 
ATOM     40  O   UNL     1      34.871 -40.126 -27.407  0.00  0.00    -0.116 OA
ATOM     41  O   UNL     1      33.229 -39.460 -26.900  0.00  0.00    -0.116 OA
ATOM     42  O   UNL     1      34.129 -38.024 -26.164  0.00  0.00    -0.022 OA
ENDBRANCH  38  39
ENDBRANCH  27  38
TORSDOF 7
ENDMDL
MODEL 2
REMARK VINA RESULT:    -7.728     20.520     24.805
REMARK INTER + INTRA:         -11.859
REMARK INTER:                 -10.620
REMARK INTRA:                  -1.239
REMARK UNBOUND:                -1.195
REMARK  Name = cpd282.pdb
REMARK  13 active torsions:
REMARK  status: ('A' for Active; 'I' for Inactive)
REMARK    1  A    between atoms: C_2  and  C_3
REMARK    2  A    between atoms: C_2  and  C_5
REMARK    3  A    between atoms: C_3  and  O_4
REMARK    4  A    between atoms: C_8  and  C_9
REMARK    5  A    between atoms: C_15  and  C_16
REMARK    6  A    between atoms: C_19  and  O_20
REMARK    7  A    between atoms: O_20  and  S_21
REMARK    8  A    between atoms: C_25  and  C_26
REMARK    9  A    between atoms: C_25  and  C_27
REMARK   10  A    between atoms: C_31  and  C_32
REMARK   11  A    between atoms: C_33  and  C_34
REMARK   12  A    between atoms: C_36  and  O_37
REMARK   13  A    between atoms: O_37  and  S_38
REMARK                            x       y       z     vdW  Elec       q    Type
REMARK                         _______ _______ _______ _____ _____    ______ ____
ROOT
ATOM      1  C   UNL     1      43.237 -20.522 -37.765  0.00  0.00    -0.014 C 
ATOM      2  C   UNL     1      42.256 -20.577 -36.579  0.00  0.00    -0.046 C 
ATOM      3  C   UNL     1      42.733 -19.524 -35.602  0.00  0.00    -0.044 C 
ATOM      4  C   UNL     1      44.259 -19.366 -35.828  0.00  0.00    +0.000 C 
ATOM      5  C   UNL     1      44.986 -20.587 -35.215  0.00  0.00    -0.057 C 
ATOM      6  C   UNL     1      44.330 -19.418 -37.412  0.00  0.00    -0.023 C 
ATOM      7  C   UNL     1      44.204 -18.043 -38.144  0.00  0.00    -0.031 C 
ATOM      8  C   UNL     1      44.488 -18.077 -39.668  0.00  0.00    -0.049 C 
ATOM      9  C   UNL     1      45.941 -17.999 -40.131  0.00  0.00    -0.049 C 
ATOM     10  C   UNL     1      46.877 -16.979 -39.436  0.00  0.00    -0.029 C 
ATOM     11  C   UNL     1      47.283 -15.678 -40.277  0.00  0.00    -0.025 C 
ATOM     12  C   UNL     1      46.051 -14.900 -40.780  0.00  0.00    -0.059 C 
ATOM     13  C   UNL     1      48.082 -16.124 -41.547  0.00  0.00    -0.045 C 
ATOM     14  C   UNL     1      48.748 -14.979 -42.307  0.00  0.00    -0.023 C 
ATOM     15  C   UNL     1      49.684 -14.145 -41.430  0.00  0.00    +0.095 C 
ATOM     16  C   UNL     1      48.998 -13.625 -40.123  0.00  0.00    -0.003 C 
ATOM     17  C   UNL     1      50.136 -13.085 -39.207  0.00  0.00    -0.057 C 
ATOM     18  C   UNL     1      48.079 -12.417 -40.403  0.00  0.00    -0.057 C 
ATOM     19  C   UNL     1      48.268 -14.823 -39.402  0.00  0.00    -0.028 C 
ATOM     20  C   UNL     1      47.598 -14.454 -38.071  0.00  0.00    -0.049 C 
ATOM     21  C   UNL     1      47.350 -15.692 -37.216  0.00  0.00    -0.047 C 
ATOM     22  C   UNL     1      46.579 -16.880 -37.876  0.00  0.00    -0.023 C 
ATOM     23  C   UNL     1      47.273 -18.178 -37.336  0.00  0.00    -0.059 C 
ATOM     24  C   UNL     1      44.994 -16.859 -37.498  0.00  0.00    -0.021 C 
ATOM     25  C   UNL     1      44.334 -15.543 -38.026  0.00  0.00    -0.059 C 
ATOM     26  C   UNL     1      44.610 -16.795 -35.984  0.00  0.00    -0.018 C 
ATOM     27  C   UNL     1      44.693 -18.050 -35.095  0.00  0.00    +0.096 C 
ENDROOT
BRANCH   1  29
ATOM     28  C   UNL     1      43.073 -21.370 -40.093  0.00  0.00    -0.097 C 
ATOM     29  C   UNL     1      42.530 -20.614 -39.117  0.00  0.00    -0.048 C 
BRANCH  29  30
ATOM     30  C   UNL     1      41.195 -19.914 -39.290  0.00  0.00    +0.065 C 
BRANCH  30  31
ATOM     31  O   UNL     1      40.140 -20.839 -39.541  0.00  0.00    -0.391 OA
ATOM     32  H   UNL     1      40.476 -21.745 -39.451  0.00  0.00    +0.000 HD
ENDBRANCH  30  31
ENDBRANCH  29  30
ENDBRANCH   1  29
BRANCH  15  33
ATOM     33  O   UNL     1      50.142 -13.038 -42.202  0.00  0.00    -0.210 OA
BRANCH  33  34
ATOM     34  S   UNL     1      51.499 -13.191 -43.094  0.00  0.00    +0.239 S 
ATOM     35  O   UNL     1      52.054 -14.478 -42.683  0.00  0.00    -0.116 OA
ATOM     36  O   UNL     1      51.004 -13.161 -44.467  0.00  0.00    -0.116 OA
ATOM     37  O   UNL     1      52.306 -12.034 -42.716  0.00  0.00    -0.022 OA
ENDBRANCH  33  34
ENDBRANCH  15  33
BRANCH  27  38
ATOM     38  O   UNL     1      45.843 -18.137 -34.246  0.00  0.00    -0.210 OA
BRANCH  38  39
ATOM     39  S   UNL     1      46.196 -17.621 -33.524  0.00  0.00    +0.239 S 
ATOM     40  O   UNL     1      45.211 -18.367 -32.692  0.00  0.00    -0.116 OA
ATOM     41  O   UNL     1      46.549 -17.105 -32.802  0.00  0.00    -0.116 OA
ATOM     42  O   UNL     1      47.473 -18.293 -33.874  0.00  0.00    -0.022 OA
ENDBRANCH  38  39
ENDBRANCH  27  38
TORSDOF 7
ENDMDL
MODEL 3
REMARK VINA RESULT:    -7.713     20.204     24.243
REMARK INTER + INTRA:         -11.838
REMARK INTER:                 -10.618
REMARK INTRA:                  -1.220
REMARK UNBOUND:                -1.195
REMARK  Name = cpd282.pdb
REMARK  13 active torsions:
REMARK  status: ('A' for Active; 'I' for Inactive)
REMARK    1  A    between atoms: C_2  and  C_3
REMARK    2  A    between atoms: C_2  and  C_5
REMARK    3  A    between atoms: C_3  and  O_4
REMARK    4  A    between atoms: C_8  and  C_9
REMARK    5  A    between atoms: C_15  and  C_16
REMARK    6  A    between atoms: C_19  and  O_20
REMARK    7  A    between atoms: O_20  and  S_21
REMARK    8  A    between atoms: C_25  and  C_26
REMARK    9  A    between atoms: C_25  and  C_27
REMARK   10  A    between atoms: C_31  and  C_32
REMARK   11  A    between atoms: C_33  and  C_34
REMARK   12  A    between atoms: C_36  and  O_37
REMARK   13  A    between atoms: O_37  and  S_38
REMARK                            x       y       z     vdW  Elec       q    Type
REMARK                         _______ _______ _______ _____ _____    ______ ____
ROOT
ATOM      1  C   UNL     1      40.729 -20.161 -39.362  0.00  0.00    -0.014 C 
ATOM      2  C   UNL     1      40.788 -21.516 -38.632  0.00  0.00    -0.046 C 
ATOM      3  C   UNL     1      42.223 -21.982 -38.745  0.00  0.00    -0.044 C 
ATOM      4  C   UNL     1      42.799 -21.343 -40.035  0.00  0.00    +0.000 C 
ATOM      5  C   UNL     1      42.224 -22.089 -41.263  0.00  0.00    -0.057 C 
ATOM      6  C   UNL     1      42.187 -19.882 -39.939  0.00  0.00    -0.023 C 
ATOM      7  C   UNL     1      43.056 -18.830 -39.178  0.00  0.00    -0.031 C 
ATOM      8  C   UNL     1      42.556 -17.365 -39.274  0.00  0.00    -0.049 C 
ATOM      9  C   UNL     1      42.949 -16.550 -40.505  0.00  0.00    -0.049 C 
ATOM     10  C   UNL     1      44.408 -16.650 -41.013  0.00  0.00    -0.029 C 
ATOM     11  C   UNL     1      45.356 -15.386 -40.751  0.00  0.00    -0.025 C 
ATOM     12  C   UNL     1      45.416 -15.001 -39.260  0.00  0.00    -0.059 C 
ATOM     13  C   UNL     1      44.771 -14.149 -41.511  0.00  0.00    -0.045 C 
ATOM     14  C   UNL     1      45.704 -12.940 -41.558  0.00  0.00    -0.023 C 
ATOM     15  C   UNL     1      47.070 -13.263 -42.164  0.00  0.00    +0.095 C 
ATOM     16  C   UNL     1      47.771 -14.483 -41.480  0.00  0.00    -0.003 C 
ATOM     17  C   UNL     1      48.969 -14.879 -42.393  0.00  0.00    -0.057 C 
ATOM     18  C   UNL     1      48.393 -14.097 -40.121  0.00  0.00    -0.057 C 
ATOM     19  C   UNL     1      46.757 -15.688 -41.392  0.00  0.00    -0.028 C 
ATOM     20  C   UNL     1      47.342 -16.972 -40.788  0.00  0.00    -0.049 C 
ATOM     21  C   UNL     1      46.508 -18.191 -41.168  0.00  0.00    -0.047 C 
ATOM     22  C   UNL     1      44.974 -18.131 -40.882  0.00  0.00    -0.023 C 
ATOM     23  C   UNL     1      44.294 -18.841 -42.103  0.00  0.00    -0.059 C 
ATOM     24  C   UNL     1      44.588 -18.872 -39.482  0.00  0.00    -0.021 C 
ATOM     25  C   UNL     1      45.300 -18.160 -38.285  0.00  0.00    -0.059 C 
ATOM     26  C   UNL     1      45.078 -20.344 -39.281  0.00  0.00    -0.018 C 
ATOM     27  C   UNL     1      44.355 -21.516 -39.973  0.00  0.00    +0.096 C 
ENDROOT
BRANCH   1  29
ATOM     28  C   UNL     1      39.032 -18.351 -39.287  0.00  0.00    -0.097 C 
ATOM     29  C   UNL     1      39.903 -19.123 -38.604  0.00  0.00    -0.048 C 
BRANCH  29  30
ATOM     30  C   UNL     1      40.031 -19.048 -37.095  0.00  0.00    +0.065 C 
BRANCH  30  31
ATOM     31  O   UNL     1      38.831 -19.450 -36.440  0.00  0.00    -0.391 OA
ATOM     32  H   UNL     1      38.976 -19.468 -35.481  0.00  0.00    +0.000 HD
ENDBRANCH  30  31
ENDBRANCH  29  30
ENDBRANCH   1  29
BRANCH  15  33
ATOM     33  O   UNL     1      47.894 -12.106 -42.036  0.00  0.00    -0.210 OA
BRANCH  33  34
ATOM     34  S   UNL     1      48.288 -11.253 -43.370  0.00  0.00    +0.239 S 
ATOM     35  O   UNL     1      47.710 -12.021 -44.469  0.00  0.00    -0.116 OA
ATOM     36  O   UNL     1      47.652  -9.960 -43.141  0.00  0.00    -0.116 OA
ATOM     37  O   UNL     1      49.747 -11.221 -43.353  0.00  0.00    -0.022 OA
ENDBRANCH  33  34
ENDBRANCH  15  33
BRANCH  27  38
ATOM     38  O   UNL     1      44.991 -22.035 -41.147  0.00  0.00    -0.210 OA
BRANCH  38  39
ATOM     39  S   UNL     1      45.860 -21.964 -41.536  0.00  0.00    +0.239 S 
ATOM     40  O   UNL     1      46.192 -23.127 -40.667  0.00  0.00    -0.116 OA
ATOM     41  O   UNL     1      46.729 -21.893 -41.926  0.00  0.00    -0.116 OA
ATOM     42  O   UNL     1      45.139 -22.221 -42.809  0.00  0.00    -0.022 OA
ENDBRANCH  38  39
ENDBRANCH  27  38
TORSDOF 7
ENDMDL
MODEL 4
REMARK VINA RESULT:    -7.170     16.467     19.806
REMARK INTER + INTRA:         -11.089
REMARK INTER:                  -9.680
REMARK INTRA:                  -1.408
REMARK UNBOUND:                -1.195
REMARK  Name = cpd282.pdb
REMARK  13 active torsions:
REMARK  status: ('A' for Active; 'I' for Inactive)
REMARK    1  A    between atoms: C_2  and  C_3
REMARK    2  A    between atoms: C_2  and  C_5
REMARK    3  A    between atoms: C_3  and  O_4
REMARK    4  A    between atoms: C_8  and  C_9
REMARK    5  A    between atoms: C_15  and  C_16
REMARK    6  A    between atoms: C_19  and  O_20
REMARK    7  A    between atoms: O_20  and  S_21
REMARK    8  A    between atoms: C_25  and  C_26
REMARK    9  A    between atoms: C_25  and  C_27
REMARK   10  A    between atoms: C_31  and  C_32
REMARK   11  A    between atoms: C_33  and  C_34
REMARK   12  A    between atoms: C_36  and  O_37
REMARK   13  A    between atoms: O_37  and  S_38
REMARK                            x       y       z     vdW  Elec       q    Type
REMARK                         _______ _______ _______ _____ _____    ______ ____
ROOT
ATOM      1  C   UNL     1      45.518 -18.347 -39.894  0.00  0.00    -0.014 C 
ATOM      2  C   UNL     1      46.936 -18.898 -39.657  0.00  0.00    -0.046 C 
ATOM      3  C   UNL     1      47.016 -19.206 -38.178  0.00  0.00    -0.044 C 
ATOM      4  C   UNL     1      46.018 -18.253 -37.470  0.00  0.00    +0.000 C 
ATOM      5  C   UNL     1      46.623 -16.829 -37.437  0.00  0.00    -0.057 C 
ATOM      6  C   UNL     1      44.793 -18.309 -38.477  0.00  0.00    -0.023 C 
ATOM      7  C   UNL     1      43.734 -19.424 -38.198  0.00  0.00    -0.031 C 
ATOM      8  C   UNL     1      42.441 -19.336 -39.049  0.00  0.00    -0.049 C 
ATOM      9  C   UNL     1      41.330 -18.401 -38.576  0.00  0.00    -0.049 C 
ATOM     10  C   UNL     1      40.979 -18.385 -37.068  0.00  0.00    -0.029 C 
ATOM     11  C   UNL     1      39.602 -19.081 -36.637  0.00  0.00    -0.025 C 
ATOM     12  C   UNL     1      39.514 -20.545 -37.113  0.00  0.00    -0.059 C 
ATOM     13  C   UNL     1      38.416 -18.317 -37.314  0.00  0.00    -0.045 C 
ATOM     14  C   UNL     1      37.034 -18.712 -36.793  0.00  0.00    -0.023 C 
ATOM     15  C   UNL     1      36.898 -18.549 -35.279  0.00  0.00    +0.095 C 
ATOM     16  C   UNL     1      38.026 -19.281 -34.480  0.00  0.00    -0.003 C 
ATOM     17  C   UNL     1      37.939 -18.767 -33.012  0.00  0.00    -0.057 C 
ATOM     18  C   UNL     1      37.778 -20.803 -34.404  0.00  0.00    -0.057 C 
ATOM     19  C   UNL     1      39.431 -18.899 -35.087  0.00  0.00    -0.028 C 
ATOM     20  C   UNL     1      40.632 -19.512 -34.354  0.00  0.00    -0.049 C 
ATOM     21  C   UNL     1      41.916 -18.747 -34.660  0.00  0.00    -0.047 C 
ATOM     22  C   UNL     1      42.280 -18.525 -36.162  0.00  0.00    -0.023 C 
ATOM     23  C   UNL     1      42.877 -17.077 -36.237  0.00  0.00    -0.059 C 
ATOM     24  C   UNL     1      43.351 -19.631 -36.697  0.00  0.00    -0.021 C 
ATOM     25  C   UNL     1      42.739 -21.067 -36.587  0.00  0.00    -0.059 C 
ATOM     26  C   UNL     1      44.673 -19.812 -35.883  0.00  0.00    -0.018 C 
ATOM     27  C   UNL     1      45.825 -18.796 -36.014  0.00  0.00    +0.096 C 
ENDROOT
BRANCH   1  29
ATOM     28  C   UNL     1      44.124 -18.094 -41.933  0.00  0.00    -0.097 C 
ATOM     29  C   UNL     1      44.875 -18.908 -41.162  0.00  0.00    -0.048 C 
BRANCH  29  30
ATOM     30  C   UNL     1      45.168 -20.343 -41.556  0.00  0.00    +0.065 C 
BRANCH  30  31
ATOM     31  O   UNL     1      45.834 -20.423 -42.813  0.00  0.00    -0.391 OA
ATOM     32  H   UNL     1      45.888 -21.351 -43.091  0.00  0.00    +0.000 HD
ENDBRANCH  30  31
ENDBRANCH  29  30
ENDBRANCH   1  29
BRANCH  15  33
ATOM     33  O   UNL     1      35.627 -19.066 -34.893  0.00  0.00    -0.210 OA
BRANCH  33  34
ATOM     34  S   UNL     1      34.500 -18.052 -34.290  0.00  0.00    +0.239 S 
ATOM     35  O   UNL     1      35.132 -16.738 -34.352  0.00  0.00    -0.116 OA
ATOM     36  O   UNL     1      33.374 -18.221 -35.204  0.00  0.00    -0.116 OA
ATOM     37  O   UNL     1      34.261 -18.549 -32.938  0.00  0.00    -0.022 OA
ENDBRANCH  33  34
ENDBRANCH  15  33
BRANCH  27  38
ATOM     38  O   UNL     1      45.936 -17.842 -34.951  0.00  0.00    -0.210 OA
BRANCH  38  39
ATOM     39  S   UNL     1      45.880 -17.875 -33.999  0.00  0.00    +0.239 S 
ATOM     40  O   UNL     1      47.354 -18.083 -34.059  0.00  0.00    -0.116 OA
ATOM     41  O   UNL     1      45.824 -17.908 -33.046  0.00  0.00    -0.116 OA
ATOM     42  O   UNL     1      45.360 -16.491 -34.137  0.00  0.00    -0.022 OA
ENDBRANCH  38  39
ENDBRANCH  27  38
TORSDOF 7
ENDMDL
MODEL 5
REMARK VINA RESULT:    -7.097     20.967     25.113
REMARK INTER + INTRA:         -10.988
REMARK INTER:                  -9.671
REMARK INTRA:                  -1.318
REMARK UNBOUND:                -1.195
REMARK  Name = cpd282.pdb
REMARK  13 active torsions:
REMARK  status: ('A' for Active; 'I' for Inactive)
REMARK    1  A    between atoms: C_2  and  C_3
REMARK    2  A    between atoms: C_2  and  C_5
REMARK    3  A    between atoms: C_3  and  O_4
REMARK    4  A    between atoms: C_8  and  C_9
REMARK    5  A    between atoms: C_15  and  C_16
REMARK    6  A    between atoms: C_19  and  O_20
REMARK    7  A    between atoms: O_20  and  S_21
REMARK    8  A    between atoms: C_25  and  C_26
REMARK    9  A    between atoms: C_25  and  C_27
REMARK   10  A    between atoms: C_31  and  C_32
REMARK   11  A    between atoms: C_33  and  C_34
REMARK   12  A    between atoms: C_36  and  O_37
REMARK   13  A    between atoms: O_37  and  S_38
REMARK                            x       y       z     vdW  Elec       q    Type
REMARK                         _______ _______ _______ _____ _____    ______ ____
ROOT
ATOM      1  C   UNL     1      44.241 -20.612 -38.357  0.00  0.00    -0.014 C 
ATOM      2  C   UNL     1      43.073 -20.985 -37.425  0.00  0.00    -0.046 C 
ATOM      3  C   UNL     1      43.091 -19.959 -36.313  0.00  0.00    -0.044 C 
ATOM      4  C   UNL     1      44.556 -19.469 -36.183  0.00  0.00    +0.000 C 
ATOM      5  C   UNL     1      45.394 -20.569 -35.488  0.00  0.00    -0.057 C 
ATOM      6  C   UNL     1      44.963 -19.347 -37.712  0.00  0.00    -0.023 C 
ATOM      7  C   UNL     1      44.688 -17.962 -38.381  0.00  0.00    -0.031 C 
ATOM      8  C   UNL     1      45.281 -17.784 -39.802  0.00  0.00    -0.049 C 
ATOM      9  C   UNL     1      46.744 -17.362 -39.924  0.00  0.00    -0.049 C 
ATOM     10  C   UNL     1      47.264 -16.246 -38.986  0.00  0.00    -0.029 C 
ATOM     11  C   UNL     1      47.535 -14.812 -39.645  0.00  0.00    -0.025 C 
ATOM     12  C   UNL     1      46.292 -14.259 -40.369  0.00  0.00    -0.059 C 
ATOM     13  C   UNL     1      48.658 -14.956 -40.726  0.00  0.00    -0.045 C 
ATOM     14  C   UNL     1      49.195 -13.628 -41.257  0.00  0.00    -0.023 C 
ATOM     15  C   UNL     1      49.719 -12.711 -40.151  0.00  0.00    +0.095 C 
ATOM     16  C   UNL     1      48.680 -12.476 -39.005  0.00  0.00    -0.003 C 
ATOM     17  C   UNL     1      49.454 -11.807 -37.831  0.00  0.00    -0.057 C 
ATOM     18  C   UNL     1      47.593 -11.461 -39.419  0.00  0.00    -0.057 C 
ATOM     19  C   UNL     1      48.102 -13.864 -38.529  0.00  0.00    -0.028 C 
ATOM     20  C   UNL     1      47.107 -13.776 -37.364  0.00  0.00    -0.049 C 
ATOM     21  C   UNL     1      46.969 -15.117 -36.652  0.00  0.00    -0.047 C 
ATOM     22  C   UNL     1      46.637 -16.367 -37.529  0.00  0.00    -0.023 C 
ATOM     23  C   UNL     1      47.475 -17.541 -36.916  0.00  0.00    -0.059 C 
ATOM     24  C   UNL     1      45.043 -16.711 -37.514  0.00  0.00    -0.021 C 
ATOM     25  C   UNL     1      44.230 -15.513 -38.105  0.00  0.00    -0.059 C 
ATOM     26  C   UNL     1      44.350 -16.878 -36.122  0.00  0.00    -0.018 C 
ATOM     27  C   UNL     1      44.525 -18.172 -35.304  0.00  0.00    +0.096 C 
ENDROOT
BRANCH   1  29
ATOM     28  C   UNL     1      42.622 -20.363 -40.224  0.00  0.00    -0.097 C 
ATOM     29  C   UNL     1      43.866 -20.712 -39.836  0.00  0.00    -0.048 C 
BRANCH  29  30
ATOM     30  C   UNL     1      44.932 -21.125 -40.832  0.00  0.00    +0.065 C 
BRANCH  30  31
ATOM     31  O   UNL     1      44.701 -20.563 -42.121  0.00  0.00    -0.391 OA
ATOM     32  H   UNL     1      43.746 -20.462 -42.263  0.00  0.00    +0.000 HD
ENDBRANCH  30  31
ENDBRANCH  29  30
ENDBRANCH   1  29
BRANCH  15  33
ATOM     33  O   UNL     1      50.069 -11.462 -40.742  0.00  0.00    -0.210 OA
BRANCH  33  34
ATOM     34  S   UNL     1      51.643 -11.078 -40.930  0.00  0.00    +0.239 S 
ATOM     35  O   UNL     1      52.040 -11.779 -42.148  0.00  0.00    -0.116 OA
ATOM     36  O   UNL     1      51.621  -9.623 -41.054  0.00  0.00    -0.116 OA
ATOM     37  O   UNL     1      52.277 -11.571 -39.711  0.00  0.00    -0.022 OA
ENDBRANCH  33  34
ENDBRANCH  15  33
BRANCH  27  38
ATOM     38  O   UNL     1      45.465 -18.104 -34.225  0.00  0.00    -0.210 OA
BRANCH  38  39
ATOM     39  S   UNL     1      45.613 -17.516 -33.488  0.00  0.00    +0.239 S 
ATOM     40  O   UNL     1      44.670 -18.413 -32.763  0.00  0.00    -0.116 OA
ATOM     41  O   UNL     1      45.760 -16.927 -32.750  0.00  0.00    -0.116 OA
ATOM     42  O   UNL     1      47.026 -17.948 -33.628  0.00  0.00    -0.022 OA
ENDBRANCH  38  39
ENDBRANCH  27  38
TORSDOF 7
ENDMDL
MODEL 6
REMARK VINA RESULT:    -6.761     26.343     30.482
REMARK INTER + INTRA:         -10.525
REMARK INTER:                  -9.213
REMARK INTRA:                  -1.312
REMARK UNBOUND:                -1.195
REMARK  Name = cpd282.pdb
REMARK  13 active torsions:
REMARK  status: ('A' for Active; 'I' for Inactive)
REMARK    1  A    between atoms: C_2  and  C_3
REMARK    2  A    between atoms: C_2  and  C_5
REMARK    3  A    between atoms: C_3  and  O_4
REMARK    4  A    between atoms: C_8  and  C_9
REMARK    5  A    between atoms: C_15  and  C_16
REMARK    6  A    between atoms: C_19  and  O_20
REMARK    7  A    between atoms: O_20  and  S_21
REMARK    8  A    between atoms: C_25  and  C_26
REMARK    9  A    between atoms: C_25  and  C_27
REMARK   10  A    between atoms: C_31  and  C_32
REMARK   11  A    between atoms: C_33  and  C_34
REMARK   12  A    between atoms: C_36  and  O_37
REMARK   13  A    between atoms: O_37  and  S_38
REMARK                            x       y       z     vdW  Elec       q    Type
REMARK                         _______ _______ _______ _____ _____    ______ ____
ROOT
ATOM      1  C   UNL     1      58.385 -49.719 -46.195  0.00  0.00    -0.014 C 
ATOM      2  C   UNL     1      59.592 -48.855 -45.784  0.00  0.00    -0.046 C 
ATOM      3  C   UNL     1      59.253 -47.444 -46.212  0.00  0.00    -0.044 C 
ATOM      4  C   UNL     1      58.278 -47.564 -47.412  0.00  0.00    +0.000 C 
ATOM      5  C   UNL     1      59.077 -47.993 -48.666  0.00  0.00    -0.057 C 
ATOM      6  C   UNL     1      57.347 -48.750 -46.918  0.00  0.00    -0.023 C 
ATOM      7  C   UNL     1      56.087 -48.328 -46.096  0.00  0.00    -0.031 C 
ATOM      8  C   UNL     1      55.077 -49.468 -45.803  0.00  0.00    -0.049 C 
ATOM      9  C   UNL     1      54.049 -49.812 -46.880  0.00  0.00    -0.049 C 
ATOM     10  C   UNL     1      53.343 -48.647 -47.617  0.00  0.00    -0.029 C 
ATOM     11  C   UNL     1      51.809 -48.378 -47.244  0.00  0.00    -0.025 C 
ATOM     12  C   UNL     1      51.607 -48.153 -45.733  0.00  0.00    -0.059 C 
ATOM     13  C   UNL     1      50.966 -49.639 -47.628  0.00  0.00    -0.045 C 
ATOM     14  C   UNL     1      49.454 -49.430 -47.562  0.00  0.00    -0.023 C 
ATOM     15  C   UNL     1      48.975 -48.262 -48.426  0.00  0.00    +0.095 C 
ATOM     16  C   UNL     1      49.738 -46.928 -48.130  0.00  0.00    -0.003 C 
ATOM     17  C   UNL     1      49.374 -45.943 -49.280  0.00  0.00    -0.057 C 
ATOM     18  C   UNL     1      49.236 -46.258 -46.833  0.00  0.00    -0.057 C 
ATOM     19  C   UNL     1      51.291 -47.199 -48.143  0.00  0.00    -0.028 C 
ATOM     20  C   UNL     1      52.159 -45.952 -47.920  0.00  0.00    -0.049 C 
ATOM     21  C   UNL     1      53.584 -46.175 -48.415  0.00  0.00    -0.047 C 
ATOM     22  C   UNL     1      54.339 -47.437 -47.889  0.00  0.00    -0.023 C 
ATOM     23  C   UNL     1      55.161 -47.970 -49.113  0.00  0.00    -0.059 C 
ATOM     24  C   UNL     1      55.316 -47.080 -46.634  0.00  0.00    -0.021 C 
ATOM     25  C   UNL     1      54.473 -46.527 -45.439  0.00  0.00    -0.059 C 
ATOM     26  C   UNL     1      56.350 -45.923 -46.826  0.00  0.00    -0.018 C 
ATOM     27  C   UNL     1      57.646 -46.147 -47.629  0.00  0.00    +0.096 C 
ENDROOT
BRANCH   1  29
ATOM     28  C   UNL     1      57.654 -51.982 -45.484  0.00  0.00    -0.097 C 
ATOM     29  C   UNL     1      57.994 -50.729 -45.117  0.00  0.00    -0.048 C 
BRANCH  29  30
ATOM     30  C   UNL     1      58.078 -50.313 -43.661  0.00  0.00    +0.065 C 
BRANCH  30  31
ATOM     31  O   UNL     1      58.234 -51.435 -42.797  0.00  0.00    -0.391 OA
ATOM     32  H   UNL     1      58.561 -52.193 -43.307  0.00  0.00    +0.000 HD
ENDBRANCH  30  31
ENDBRANCH  29  30
ENDBRANCH   1  29
BRANCH  15  33
ATOM     33  O   UNL     1      47.581 -48.079 -48.186  0.00  0.00    -0.210 OA
BRANCH  33  34
ATOM     34  S   UNL     1      46.506 -48.557 -49.316  0.00  0.00    +0.239 S 
ATOM     35  O   UNL     1      47.163 -49.676 -49.985  0.00  0.00    -0.116 OA
ATOM     36  O   UNL     1      45.336 -48.932 -48.527  0.00  0.00    -0.116 OA
ATOM     37  O   UNL     1      46.318 -47.375 -50.151  0.00  0.00    -0.022 OA
ENDBRANCH  33  34
ENDBRANCH  15  33
BRANCH  27  38
ATOM     38  O   UNL     1      57.643 -45.642 -48.969  0.00  0.00    -0.210 OA
BRANCH  38  39
ATOM     39  S   UNL     1      57.428 -44.808 -49.381  0.00  0.00    +0.239 S 
ATOM     40  O   UNL     1      58.768 -44.380 -48.892  0.00  0.00    -0.116 OA
ATOM     41  O   UNL     1      57.213 -43.974 -49.793  0.00  0.00    -0.116 OA
ATOM     42  O   UNL     1      57.360 -45.618 -50.624  0.00  0.00    -0.022 OA
ENDBRANCH  38  39
ENDBRANCH  27  38
TORSDOF 7
ENDMDL
MODEL 7
REMARK VINA RESULT:    -6.736      2.553      5.043
REMARK INTER + INTRA:         -10.490
REMARK INTER:                  -9.023
REMARK INTRA:                  -1.467
REMARK UNBOUND:                -1.195
REMARK  Name = cpd282.pdb
REMARK  13 active torsions:
REMARK  status: ('A' for Active; 'I' for Inactive)
REMARK    1  A    between atoms: C_2  and  C_3
REMARK    2  A    between atoms: C_2  and  C_5
REMARK    3  A    between atoms: C_3  and  O_4
REMARK    4  A    between atoms: C_8  and  C_9
REMARK    5  A    between atoms: C_15  and  C_16
REMARK    6  A    between atoms: C_19  and  O_20
REMARK    7  A    between atoms: O_20  and  S_21
REMARK    8  A    between atoms: C_25  and  C_26
REMARK    9  A    between atoms: C_25  and  C_27
REMARK   10  A    between atoms: C_31  and  C_32
REMARK   11  A    between atoms: C_33  and  C_34
REMARK   12  A    between atoms: C_36  and  O_37
REMARK   13  A    between atoms: O_37  and  S_38
REMARK                            x       y       z     vdW  Elec       q    Type
REMARK                         _______ _______ _______ _____ _____    ______ ____
ROOT
ATOM      1  C   UNL     1      33.760 -41.249 -29.502  0.00  0.00    -0.014 C 
ATOM      2  C   UNL     1      34.959 -41.898 -28.786  0.00  0.00    -0.046 C 
ATOM      3  C   UNL     1      35.936 -40.774 -28.517  0.00  0.00    -0.044 C 
ATOM      4  C   UNL     1      35.691 -39.700 -29.609  0.00  0.00    +0.000 C 
ATOM      5  C   UNL     1      36.286 -40.200 -30.947  0.00  0.00    -0.057 C 
ATOM      6  C   UNL     1      34.105 -39.703 -29.674  0.00  0.00    -0.023 C 
ATOM      7  C   UNL     1      33.384 -38.709 -28.708  0.00  0.00    -0.031 C 
ATOM      8  C   UNL     1      31.856 -38.564 -28.929  0.00  0.00    -0.049 C 
ATOM      9  C   UNL     1      31.373 -37.599 -30.010  0.00  0.00    -0.049 C 
ATOM     10  C   UNL     1      32.062 -36.215 -30.116  0.00  0.00    -0.029 C 
ATOM     11  C   UNL     1      31.224 -34.948 -29.610  0.00  0.00    -0.025 C 
ATOM     12  C   UNL     1      30.743 -35.109 -28.155  0.00  0.00    -0.059 C 
ATOM     13  C   UNL     1      29.941 -34.804 -30.495  0.00  0.00    -0.045 C 
ATOM     14  C   UNL     1      29.178 -33.496 -30.291  0.00  0.00    -0.023 C 
ATOM     15  C   UNL     1      30.047 -32.257 -30.516  0.00  0.00    +0.095 C 
ATOM     16  C   UNL     1      31.367 -32.273 -29.675  0.00  0.00    -0.003 C 
ATOM     17  C   UNL     1      32.271 -31.139 -30.241  0.00  0.00    -0.057 C 
ATOM     18  C   UNL     1      31.107 -31.902 -28.199  0.00  0.00    -0.057 C 
ATOM     19  C   UNL     1      32.090 -33.662 -29.860  0.00  0.00    -0.028 C 
ATOM     20  C   UNL     1      33.432 -33.787 -29.127  0.00  0.00    -0.049 C 
ATOM     21  C   UNL     1      34.283 -34.906 -29.716  0.00  0.00    -0.047 C 
ATOM     22  C   UNL     1      33.626 -36.318 -29.844  0.00  0.00    -0.023 C 
ATOM     23  C   UNL     1      34.149 -36.899 -31.203  0.00  0.00    -0.059 C 
ATOM     24  C   UNL     1      34.026 -37.288 -28.597  0.00  0.00    -0.021 C 
ATOM     25  C   UNL     1      33.515 -36.672 -27.253  0.00  0.00    -0.059 C 
ATOM     26  C   UNL     1      35.545 -37.472 -28.279  0.00  0.00    -0.018 C 
ATOM     27  C   UNL     1      36.425 -38.399 -29.139  0.00  0.00    +0.096 C 
ENDROOT
BRANCH   1  29
ATOM     28  C   UNL     1      31.386 -41.886 -29.846  0.00  0.00    -0.097 C 
ATOM     29  C   UNL     1      32.418 -41.766 -28.986  0.00  0.00    -0.048 C 
BRANCH  29  30
ATOM     30  C   UNL     1      32.313 -42.205 -27.539  0.00  0.00    +0.065 C 
BRANCH  30  31
ATOM     31  O   UNL     1      31.727 -41.198 -26.720  0.00  0.00    -0.391 OA
ATOM     32  H   UNL     1      31.204 -41.616 -26.017  0.00  0.00    +0.000 HD
ENDBRANCH  30  31
ENDBRANCH  29  30
ENDBRANCH   1  29
BRANCH  15  33
ATOM     33  O   UNL     1      29.276 -31.109 -30.174  0.00  0.00    -0.210 OA
BRANCH  33  34
ATOM     34  S   UNL     1      28.851 -30.052 -31.342  0.00  0.00    +0.239 S 
ATOM     35  O   UNL     1      29.480 -28.799 -30.936  0.00  0.00    -0.116 OA
ATOM     36  O   UNL     1      29.416 -30.644 -32.551  0.00  0.00    -0.116 OA
ATOM     37  O   UNL     1      27.392 -30.041 -31.298  0.00  0.00    -0.022 OA
ENDBRANCH  33  34
ENDBRANCH  15  33
BRANCH  27  38
ATOM     38  O   UNL     1      37.259 -37.747 -30.105  0.00  0.00    -0.210 OA
BRANCH  38  39
ATOM     39  S   UNL     1      37.847 -36.995 -30.098  0.00  0.00    +0.239 S 
ATOM     40  O   UNL     1      38.858 -37.967 -29.597  0.00  0.00    -0.116 OA
ATOM     41  O   UNL     1      38.435 -36.243 -30.091  0.00  0.00    -0.116 OA
ATOM     42  O   UNL     1      37.567 -36.961 -31.556  0.00  0.00    -0.022 OA
ENDBRANCH  38  39
ENDBRANCH  27  38
TORSDOF 7
ENDMDL
MODEL 8
REMARK VINA RESULT:    -6.687     15.806     20.299
REMARK INTER + INTRA:         -10.422
REMARK INTER:                 -10.566
REMARK INTRA:                   0.144
REMARK UNBOUND:                -1.195
REMARK  Name = cpd282.pdb
REMARK  13 active torsions:
REMARK  status: ('A' for Active; 'I' for Inactive)
REMARK    1  A    between atoms: C_2  and  C_3
REMARK    2  A    between atoms: C_2  and  C_5
REMARK    3  A    between atoms: C_3  and  O_4
REMARK    4  A    between atoms: C_8  and  C_9
REMARK    5  A    between atoms: C_15  and  C_16
REMARK    6  A    between atoms: C_19  and  O_20
REMARK    7  A    between atoms: O_20  and  S_21
REMARK    8  A    between atoms: C_25  and  C_26
REMARK    9  A    between atoms: C_25  and  C_27
REMARK   10  A    between atoms: C_31  and  C_32
REMARK   11  A    between atoms: C_33  and  C_34
REMARK   12  A    between atoms: C_36  and  O_37
REMARK   13  A    between atoms: O_37  and  S_38
REMARK                            x       y       z     vdW  Elec       q    Type
REMARK                         _______ _______ _______ _____ _____    ______ ____
ROOT
ATOM      1  C   UNL     1      38.757 -21.200 -33.417  0.00  0.00    -0.014 C 
ATOM      2  C   UNL     1      37.235 -20.988 -33.315  0.00  0.00    -0.046 C 
ATOM      3  C   UNL     1      36.889 -19.977 -34.387  0.00  0.00    -0.044 C 
ATOM      4  C   UNL     1      38.159 -19.117 -34.615  0.00  0.00    +0.000 C 
ATOM      5  C   UNL     1      38.322 -18.138 -33.427  0.00  0.00    -0.057 C 
ATOM      6  C   UNL     1      39.283 -20.235 -34.569  0.00  0.00    -0.023 C 
ATOM      7  C   UNL     1      39.638 -20.900 -35.938  0.00  0.00    -0.031 C 
ATOM      8  C   UNL     1      40.878 -21.830 -35.920  0.00  0.00    -0.049 C 
ATOM      9  C   UNL     1      42.258 -21.192 -36.066  0.00  0.00    -0.049 C 
ATOM     10  C   UNL     1      42.441 -20.079 -37.126  0.00  0.00    -0.029 C 
ATOM     11  C   UNL     1      43.263 -20.463 -38.446  0.00  0.00    -0.025 C 
ATOM     12  C   UNL     1      42.669 -21.688 -39.168  0.00  0.00    -0.059 C 
ATOM     13  C   UNL     1      44.725 -20.845 -38.039  0.00  0.00    -0.045 C 
ATOM     14  C   UNL     1      45.689 -20.989 -39.215  0.00  0.00    -0.023 C 
ATOM     15  C   UNL     1      45.756 -19.736 -40.089  0.00  0.00    +0.095 C 
ATOM     16  C   UNL     1      44.350 -19.252 -40.575  0.00  0.00    -0.003 C 
ATOM     17  C   UNL     1      44.549 -17.824 -41.165  0.00  0.00    -0.057 C 
ATOM     18  C   UNL     1      43.819 -20.114 -41.741  0.00  0.00    -0.057 C 
ATOM     19  C   UNL     1      43.366 -19.178 -39.344  0.00  0.00    -0.028 C 
ATOM     20  C   UNL     1      41.961 -18.660 -39.679  0.00  0.00    -0.049 C 
ATOM     21  C   UNL     1      41.243 -18.161 -38.429  0.00  0.00    -0.047 C 
ATOM     22  C   UNL     1      41.164 -19.133 -37.209  0.00  0.00    -0.023 C 
ATOM     23  C   UNL     1      41.355 -18.228 -35.943  0.00  0.00    -0.059 C 
ATOM     24  C   UNL     1      39.741 -19.926 -37.156  0.00  0.00    -0.021 C 
ATOM     25  C   UNL     1      39.566 -20.799 -38.442  0.00  0.00    -0.059 C 
ATOM     26  C   UNL     1      38.433 -19.071 -37.200  0.00  0.00    -0.018 C 
ATOM     27  C   UNL     1      37.936 -18.323 -35.948  0.00  0.00    +0.096 C 
ENDROOT
BRANCH   1  29
ATOM     28  C   UNL     1      38.355 -23.614 -33.839  0.00  0.00    -0.097 C 
ATOM     29  C   UNL     1      39.153 -22.671 -33.295  0.00  0.00    -0.048 C 
BRANCH  29  30
ATOM     30  C   UNL     1      40.474 -23.019 -32.636  0.00  0.00    +0.065 C 
BRANCH  30  31
ATOM     31  O   UNL     1      40.339 -24.098 -31.714  0.00  0.00    -0.391 OA
ATOM     32  H   UNL     1      41.042 -24.044 -31.048  0.00  0.00    +0.000 HD
ENDBRANCH  30  31
ENDBRANCH  29  30
ENDBRANCH   1  29
BRANCH  15  33
ATOM     33  O   UNL     1      46.577 -20.028 -41.218  0.00  0.00    -0.210 OA
BRANCH  33  34
ATOM     34  S   UNL     1      47.488 -21.381 -41.216  0.00  0.00    +0.239 S 
ATOM     35  O   UNL     1      46.543 -22.449 -41.530  0.00  0.00    -0.116 OA
ATOM     36  O   UNL     1      48.473 -21.123 -42.262  0.00  0.00    -0.116 OA
ATOM     37  O   UNL     1      48.040 -21.436 -39.865  0.00  0.00    -0.022 OA
ENDBRANCH  33  34
ENDBRANCH  15  33
BRANCH  27  38
ATOM     38  O   UNL     1      38.212 -16.918 -35.912  0.00  0.00    -0.210 OA
BRANCH  38  39
ATOM     39  S   UNL     1      38.113 -16.190 -36.522  0.00  0.00    +0.239 S 
ATOM     40  O   UNL     1      36.692 -16.191 -36.075  0.00  0.00    -0.116 OA
ATOM     41  O   UNL     1      38.014 -15.462 -37.132  0.00  0.00    -0.116 OA
ATOM     42  O   UNL     1      39.122 -15.531 -35.655  0.00  0.00    -0.022 OA
ENDBRANCH  38  39
ENDBRANCH  27  38
TORSDOF 7
ENDMDL
MODEL 9
REMARK VINA RESULT:    -6.646     17.339     20.992
REMARK INTER + INTRA:         -10.366
REMARK INTER:                  -8.998
REMARK INTRA:                  -1.368
REMARK UNBOUND:                -1.195
REMARK  Name = cpd282.pdb
REMARK  13 active torsions:
REMARK  status: ('A' for Active; 'I' for Inactive)
REMARK    1  A    between atoms: C_2  and  C_3
REMARK    2  A    between atoms: C_2  and  C_5
REMARK    3  A    between atoms: C_3  and  O_4
REMARK    4  A    between atoms: C_8  and  C_9
REMARK    5  A    between atoms: C_15  and  C_16
REMARK    6  A    between atoms: C_19  and  O_20
REMARK    7  A    between atoms: O_20  and  S_21
REMARK    8  A    between atoms: C_25  and  C_26
REMARK    9  A    between atoms: C_25  and  C_27
REMARK   10  A    between atoms: C_31  and  C_32
REMARK   11  A    between atoms: C_33  and  C_34
REMARK   12  A    between atoms: C_36  and  O_37
REMARK   13  A    between atoms: O_37  and  S_38
REMARK                            x       y       z     vdW  Elec       q    Type
REMARK                         _______ _______ _______ _____ _____    ______ ____
ROOT
ATOM      1  C   UNL     1      45.285 -19.368 -41.463  0.00  0.00    -0.014 C 
ATOM      2  C   UNL     1      46.814 -19.232 -41.583  0.00  0.00    -0.046 C 
ATOM      3  C   UNL     1      47.259 -18.484 -40.345  0.00  0.00    -0.044 C 
ATOM      4  C   UNL     1      46.057 -17.614 -39.895  0.00  0.00    +0.000 C 
ATOM      5  C   UNL     1      45.927 -16.405 -40.853  0.00  0.00    -0.057 C 
ATOM      6  C   UNL     1      44.858 -18.628 -40.119  0.00  0.00    -0.023 C 
ATOM      7  C   UNL     1      44.498 -19.536 -38.899  0.00  0.00    -0.031 C 
ATOM      8  C   UNL     1      43.197 -20.366 -39.053  0.00  0.00    -0.049 C 
ATOM      9  C   UNL     1      41.869 -19.688 -38.724  0.00  0.00    -0.049 C 
ATOM     10  C   UNL     1      41.792 -18.805 -37.454  0.00  0.00    -0.029 C 
ATOM     11  C   UNL     1      40.984 -19.400 -36.206  0.00  0.00    -0.025 C 
ATOM     12  C   UNL     1      41.514 -20.780 -35.772  0.00  0.00    -0.059 C 
ATOM     13  C   UNL     1      39.488 -19.602 -36.621  0.00  0.00    -0.045 C 
ATOM     14  C   UNL     1      38.550 -19.924 -35.458  0.00  0.00    -0.023 C 
ATOM     15  C   UNL     1      38.593 -18.873 -34.348  0.00  0.00    +0.095 C 
ATOM     16  C   UNL     1      40.043 -18.585 -33.833  0.00  0.00    -0.003 C 
ATOM     17  C   UNL     1      39.958 -17.298 -32.959  0.00  0.00    -0.057 C 
ATOM     18  C   UNL     1      40.546 -19.697 -32.889  0.00  0.00    -0.057 C 
ATOM     19  C   UNL     1      40.993 -18.321 -35.064  0.00  0.00    -0.028 C 
ATOM     20  C   UNL     1      42.440 -17.969 -34.690  0.00  0.00    -0.049 C 
ATOM     21  C   UNL     1      43.154 -17.271 -35.842  0.00  0.00    -0.047 C 
ATOM     22  C   UNL     1      43.132 -17.976 -37.236  0.00  0.00    -0.023 C 
ATOM     23  C   UNL     1      42.967 -16.822 -38.284  0.00  0.00    -0.059 C 
ATOM     24  C   UNL     1      44.496 -18.826 -37.507  0.00  0.00    -0.021 C 
ATOM     25  C   UNL     1      44.648 -19.953 -36.432  0.00  0.00    -0.059 C 
ATOM     26  C   UNL     1      45.860 -18.080 -37.345  0.00  0.00    -0.018 C 
ATOM     27  C   UNL     1      46.370 -17.123 -38.440  0.00  0.00    +0.096 C 
ENDROOT
BRANCH   1  29
ATOM     28  C   UNL     1      43.621 -20.869 -42.532  0.00  0.00    -0.097 C 
ATOM     29  C   UNL     1      44.787 -20.757 -41.863  0.00  0.00    -0.048 C 
BRANCH  29  30
ATOM     30  C   UNL     1      45.660 -21.960 -41.563  0.00  0.00    +0.065 C 
BRANCH  30  31
ATOM     31  O   UNL     1      46.167 -22.558 -42.753  0.00  0.00    -0.391 OA
ATOM     32  H   UNL     1      45.494 -23.146 -43.130  0.00  0.00    +0.000 HD
ENDBRANCH  30  31
ENDBRANCH  29  30
ENDBRANCH   1  29
BRANCH  15  33
ATOM     33  O   UNL     1      37.787 -19.339 -33.268  0.00  0.00    -0.210 OA
BRANCH  33  34
ATOM     34  S   UNL     1      36.331 -18.654 -33.003  0.00  0.00    +0.239 S 
ATOM     35  O   UNL     1      35.453 -19.782 -32.709  0.00  0.00    -0.116 OA
ATOM     36  O   UNL     1      36.578 -17.772 -31.865  0.00  0.00    -0.116 OA
ATOM     37  O   UNL     1      36.032 -17.960 -34.252  0.00  0.00    -0.022 OA
ENDBRANCH  33  34
ENDBRANCH  15  33
BRANCH  27  38
ATOM     38  O   UNL     1      46.190 -15.726 -38.180  0.00  0.00    -0.210 OA
BRANCH  38  39
ATOM     39  S   UNL     1      46.411 -15.134 -37.464  0.00  0.00    +0.239 S 
ATOM     40  O   UNL     1      47.770 -15.129 -38.073  0.00  0.00    -0.116 OA
ATOM     41  O   UNL     1      46.631 -14.541 -36.749  0.00  0.00    -0.116 OA
ATOM     42  O   UNL     1      45.368 -14.267 -38.069  0.00  0.00    -0.022 OA
ENDBRANCH  38  39
ENDBRANCH  27  38
TORSDOF 7
ENDMDL
MODEL 10
REMARK VINA RESULT:    -6.637      4.632      7.782
REMARK INTER + INTRA:         -10.353
REMARK INTER:                  -8.993
REMARK INTRA:                  -1.360
REMARK UNBOUND:                -1.195
REMARK  Name = cpd282.pdb
REMARK  13 active torsions:
REMARK  status: ('A' for Active; 'I' for Inactive)
REMARK    1  A    between atoms: C_2  and  C_3
REMARK    2  A    between atoms: C_2  and  C_5
REMARK    3  A    between atoms: C_3  and  O_4
REMARK    4  A    between atoms: C_8  and  C_9
REMARK    5  A    between atoms: C_15  and  C_16
REMARK    6  A    between atoms: C_19  and  O_20
REMARK    7  A    between atoms: O_20  and  S_21
REMARK    8  A    between atoms: C_25  and  C_26
REMARK    9  A    between atoms: C_25  and  C_27
REMARK   10  A    between atoms: C_31  and  C_32
REMARK   11  A    between atoms: C_33  and  C_34
REMARK   12  A    between atoms: C_36  and  O_37
REMARK   13  A    between atoms: O_37  and  S_38
REMARK                            x       y       z     vdW  Elec       q    Type
REMARK                         _______ _______ _______ _____ _____    ______ ____
ROOT
ATOM      1  C   UNL     1      34.464 -34.999 -30.274  0.00  0.00    -0.014 C 
ATOM      2  C   UNL     1      34.661 -35.529 -31.707  0.00  0.00    -0.046 C 
ATOM      3  C   UNL     1      34.715 -37.037 -31.584  0.00  0.00    -0.044 C 
ATOM      4  C   UNL     1      35.238 -37.349 -30.158  0.00  0.00    +0.000 C 
ATOM      5  C   UNL     1      36.759 -37.065 -30.109  0.00  0.00    -0.057 C 
ATOM      6  C   UNL     1      34.447 -36.267 -29.310  0.00  0.00    -0.023 C 
ATOM      7  C   UNL     1      33.054 -36.717 -28.763  0.00  0.00    -0.031 C 
ATOM      8  C   UNL     1      32.388 -35.738 -27.763  0.00  0.00    -0.049 C 
ATOM      9  C   UNL     1      32.800 -35.818 -26.294  0.00  0.00    -0.049 C 
ATOM     10  C   UNL     1      32.948 -37.219 -25.651  0.00  0.00    -0.029 C 
ATOM     11  C   UNL     1      31.809 -37.667 -24.619  0.00  0.00    -0.025 C 
ATOM     12  C   UNL     1      30.399 -37.595 -25.239  0.00  0.00    -0.059 C 
ATOM     13  C   UNL     1      31.815 -36.685 -23.401  0.00  0.00    -0.045 C 
ATOM     14  C   UNL     1      30.954 -37.138 -22.223  0.00  0.00    -0.023 C 
ATOM     15  C   UNL     1      31.328 -38.529 -21.709  0.00  0.00    +0.095 C 
ATOM     16  C   UNL     1      31.347 -39.614 -22.837  0.00  0.00    -0.003 C 
ATOM     17  C   UNL     1      32.042 -40.871 -22.235  0.00  0.00    -0.057 C 
ATOM     18  C   UNL     1      29.922 -40.067 -23.219  0.00  0.00    -0.057 C 
ATOM     19  C   UNL     1      32.191 -39.084 -24.059  0.00  0.00    -0.028 C 
ATOM     20  C   UNL     1      32.335 -40.081 -25.217  0.00  0.00    -0.049 C 
ATOM     21  C   UNL     1      33.518 -39.723 -26.111  0.00  0.00    -0.047 C 
ATOM     22  C   UNL     1      33.583 -38.265 -26.668  0.00  0.00    -0.023 C 
ATOM     23  C   UNL     1      35.100 -37.871 -26.625  0.00  0.00    -0.059 C 
ATOM     24  C   UNL     1      32.992 -38.168 -28.184  0.00  0.00    -0.021 C 
ATOM     25  C   UNL     1      31.486 -38.591 -28.200  0.00  0.00    -0.059 C 
ATOM     26  C   UNL     1      33.583 -39.139 -29.257  0.00  0.00    -0.018 C 
ATOM     27  C   UNL     1      34.959 -38.868 -29.894  0.00  0.00    +0.096 C 
ENDROOT
BRANCH   1  29
ATOM     28  C   UNL     1      33.723 -32.771 -29.469  0.00  0.00    -0.097 C 
ATOM     29  C   UNL     1      33.441 -33.866 -30.204  0.00  0.00    -0.048 C 
BRANCH  29  30
ATOM     30  C   UNL     1      32.173 -33.975 -31.031  0.00  0.00    +0.065 C 
BRANCH  30  31
ATOM     31  O   UNL     1      31.932 -32.794 -31.790  0.00  0.00    -0.391 OA
ATOM     32  H   UNL     1      31.889 -33.019 -32.733  0.00  0.00    +0.000 HD
ENDBRANCH  30  31
ENDBRANCH  29  30
ENDBRANCH   1  29
BRANCH  15  33
ATOM     33  O   UNL     1      30.383 -38.899 -20.708  0.00  0.00    -0.210 OA
BRANCH  33  34
ATOM     34  S   UNL     1      30.872 -39.035 -19.157  0.00  0.00    +0.239 S 
ATOM     35  O   UNL     1      30.311 -37.857 -18.501  0.00  0.00    -0.116 OA
ATOM     36  O   UNL     1      30.281 -40.299 -18.729  0.00  0.00    -0.116 OA
ATOM     37  O   UNL     1      32.329 -39.046 -19.244  0.00  0.00    -0.022 OA
ENDBRANCH  33  34
ENDBRANCH  15  33
BRANCH  27  38
ATOM     38  O   UNL     1      36.049 -39.641 -29.376  0.00  0.00    -0.210 OA
BRANCH  38  39
ATOM     39  S   UNL     1      36.145 -40.513 -28.998  0.00  0.00    +0.239 S 
ATOM     40  O   UNL     1      36.219 -40.966 -30.415  0.00  0.00    -0.116 OA
ATOM     41  O   UNL     1      36.241 -41.385 -28.621  0.00  0.00    -0.116 OA
ATOM     42  O   UNL     1      37.367 -39.939 -28.380  0.00  0.00    -0.022 OA
ENDBRANCH  38  39
ENDBRANCH  27  38
TORSDOF 7
ENDMDL
MODEL 11
REMARK VINA RESULT:    -6.509     26.612     30.523
REMARK INTER + INTRA:         -10.177
REMARK INTER:                  -8.704
REMARK INTRA:                  -1.473
REMARK UNBOUND:                -1.195
REMARK  Name = cpd282.pdb
REMARK  13 active torsions:
REMARK  status: ('A' for Active; 'I' for Inactive)
REMARK    1  A    between atoms: C_2  and  C_3
REMARK    2  A    between atoms: C_2  and  C_5
REMARK    3  A    between atoms: C_3  and  O_4
REMARK    4  A    between atoms: C_8  and  C_9
REMARK    5  A    between atoms: C_15  and  C_16
REMARK    6  A    between atoms: C_19  and  O_20
REMARK    7  A    between atoms: O_20  and  S_21
REMARK    8  A    between atoms: C_25  and  C_26
REMARK    9  A    between atoms: C_25  and  C_27
REMARK   10  A    between atoms: C_31  and  C_32
REMARK   11  A    between atoms: C_33  and  C_34
REMARK   12  A    between atoms: C_36  and  O_37
REMARK   13  A    between atoms: O_37  and  S_38
REMARK                            x       y       z     vdW  Elec       q    Type
REMARK                         _______ _______ _______ _____ _____    ______ ____
ROOT
ATOM      1  C   UNL     1      57.525 -51.617 -45.120  0.00  0.00    -0.014 C 
ATOM      2  C   UNL     1      58.857 -51.144 -44.508  0.00  0.00    -0.046 C 
ATOM      3  C   UNL     1      59.017 -49.702 -44.938  0.00  0.00    -0.044 C 
ATOM      4  C   UNL     1      58.243 -49.546 -46.273  0.00  0.00    +0.000 C 
ATOM      5  C   UNL     1      59.061 -50.211 -47.407  0.00  0.00    -0.057 C 
ATOM      6  C   UNL     1      56.941 -50.396 -45.959  0.00  0.00    -0.023 C 
ATOM      7  C   UNL     1      55.752 -49.608 -45.321  0.00  0.00    -0.031 C 
ATOM      8  C   UNL     1      54.418 -50.392 -45.218  0.00  0.00    -0.049 C 
ATOM      9  C   UNL     1      53.510 -50.433 -46.445  0.00  0.00    -0.049 C 
ATOM     10  C   UNL     1      53.298 -49.123 -47.243  0.00  0.00    -0.029 C 
ATOM     11  C   UNL     1      51.874 -48.406 -47.094  0.00  0.00    -0.025 C 
ATOM     12  C   UNL     1      51.521 -48.108 -45.624  0.00  0.00    -0.059 C 
ATOM     13  C   UNL     1      50.765 -49.367 -47.638  0.00  0.00    -0.045 C 
ATOM     14  C   UNL     1      49.390 -48.718 -47.791  0.00  0.00    -0.023 C 
ATOM     15  C   UNL     1      49.413 -47.474 -48.680  0.00  0.00    +0.095 C 
ATOM     16  C   UNL     1      50.481 -46.421 -48.234  0.00  0.00    -0.003 C 
ATOM     17  C   UNL     1      50.603 -45.389 -49.394  0.00  0.00    -0.057 C 
ATOM     18  C   UNL     1      50.009 -45.614 -47.006  0.00  0.00    -0.057 C 
ATOM     19  C   UNL     1      51.869 -47.140 -48.023  0.00  0.00    -0.028 C 
ATOM     20  C   UNL     1      53.021 -46.203 -47.636  0.00  0.00    -0.049 C 
ATOM     21  C   UNL     1      54.375 -46.844 -47.920  0.00  0.00    -0.047 C 
ATOM     22  C   UNL     1      54.636 -48.266 -47.327  0.00  0.00    -0.023 C 
ATOM     23  C   UNL     1      55.440 -49.036 -48.430  0.00  0.00    -0.059 C 
ATOM     24  C   UNL     1      55.474 -48.196 -45.930  0.00  0.00    -0.021 C 
ATOM     25  C   UNL     1      54.660 -47.400 -44.857  0.00  0.00    -0.059 C 
ATOM     26  C   UNL     1      56.819 -47.399 -45.930  0.00  0.00    -0.018 C 
ATOM     27  C   UNL     1      58.097 -48.009 -46.537  0.00  0.00    +0.096 C 
ENDROOT
BRANCH   1  29
ATOM     28  C   UNL     1      56.000 -53.508 -44.610  0.00  0.00    -0.097 C 
ATOM     29  C   UNL     1      56.695 -52.451 -44.144  0.00  0.00    -0.048 C 
BRANCH  29  30
ATOM     30  C   UNL     1      56.745 -52.109 -42.668  0.00  0.00    +0.065 C 
BRANCH  30  31
ATOM     31  O   UNL     1      55.465 -51.730 -42.167  0.00  0.00    -0.391 OA
ATOM     32  H   UNL     1      55.483 -50.795 -41.910  0.00  0.00    +0.000 HD
ENDBRANCH  30  31
ENDBRANCH  29  30
ENDBRANCH   1  29
BRANCH  15  33
ATOM     33  O   UNL     1      48.116 -46.883 -48.646  0.00  0.00    -0.210 OA
BRANCH  33  34
ATOM     34  S   UNL     1      47.137 -47.023 -49.943  0.00  0.00    +0.239 S 
ATOM     35  O   UNL     1      46.545 -45.697 -50.090  0.00  0.00    -0.116 OA
ATOM     36  O   UNL     1      48.054 -47.394 -51.016  0.00  0.00    -0.116 OA
ATOM     37  O   UNL     1      46.194 -48.071 -49.564  0.00  0.00    -0.022 OA
ENDBRANCH  33  34
ENDBRANCH  15  33
BRANCH  27  38
ATOM     38  O   UNL     1      58.446 -47.546 -47.847  0.00  0.00    -0.210 OA
BRANCH  38  39
ATOM     39  S   UNL     1      58.570 -46.691 -48.256  0.00  0.00    +0.239 S 
ATOM     40  O   UNL     1      59.887 -46.704 -47.561  0.00  0.00    -0.116 OA
ATOM     41  O   UNL     1      58.693 -45.837 -48.665  0.00  0.00    -0.116 OA
ATOM     42  O   UNL     1      58.437 -47.453 -49.523  0.00  0.00    -0.022 OA
ENDBRANCH  38  39
ENDBRANCH  27  38
TORSDOF 7
ENDMDL
MODEL 12
REMARK VINA RESULT:    -6.394     17.612     21.295
REMARK INTER + INTRA:         -10.018
REMARK INTER:                  -8.611
REMARK INTRA:                  -1.407
REMARK UNBOUND:                -1.195
REMARK  Name = cpd282.pdb
REMARK  13 active torsions:
REMARK  status: ('A' for Active; 'I' for Inactive)
REMARK    1  A    between atoms: C_2  and  C_3
REMARK    2  A    between atoms: C_2  and  C_5
REMARK    3  A    between atoms: C_3  and  O_4
REMARK    4  A    between atoms: C_8  and  C_9
REMARK    5  A    between atoms: C_15  and  C_16
REMARK    6  A    between atoms: C_19  and  O_20
REMARK    7  A    between atoms: O_20  and  S_21
REMARK    8  A    between atoms: C_25  and  C_26
REMARK    9  A    between atoms: C_25  and  C_27
REMARK   10  A    between atoms: C_31  and  C_32
REMARK   11  A    between atoms: C_33  and  C_34
REMARK   12  A    between atoms: C_36  and  O_37
REMARK   13  A    between atoms: O_37  and  S_38
REMARK                            x       y       z     vdW  Elec       q    Type
REMARK                         _______ _______ _______ _____ _____    ______ ____
ROOT
ATOM      1  C   UNL     1      45.241 -13.802 -35.775  0.00  0.00    -0.014 C 
ATOM      2  C   UNL     1      45.913 -13.048 -36.937  0.00  0.00    -0.046 C 
ATOM      3  C   UNL     1      45.958 -14.026 -38.091  0.00  0.00    -0.044 C 
ATOM      4  C   UNL     1      45.990 -15.446 -37.470  0.00  0.00    +0.000 C 
ATOM      5  C   UNL     1      47.402 -15.711 -36.895  0.00  0.00    -0.057 C 
ATOM      6  C   UNL     1      44.937 -15.277 -36.295  0.00  0.00    -0.023 C 
ATOM      7  C   UNL     1      43.453 -15.604 -36.659  0.00  0.00    -0.031 C 
ATOM      8  C   UNL     1      42.472 -15.644 -35.459  0.00  0.00    -0.049 C 
ATOM      9  C   UNL     1      42.379 -16.935 -34.648  0.00  0.00    -0.049 C 
ATOM     10  C   UNL     1      42.340 -18.280 -35.415  0.00  0.00    -0.029 C 
ATOM     11  C   UNL     1      40.935 -19.047 -35.464  0.00  0.00    -0.025 C 
ATOM     12  C   UNL     1      39.807 -18.164 -36.032  0.00  0.00    -0.059 C 
ATOM     13  C   UNL     1      40.516 -19.428 -34.004  0.00  0.00    -0.045 C 
ATOM     14  C   UNL     1      39.326 -20.382 -33.920  0.00  0.00    -0.023 C 
ATOM     15  C   UNL     1      39.542 -21.678 -34.702  0.00  0.00    +0.095 C 
ATOM     16  C   UNL     1      39.959 -21.434 -36.190  0.00  0.00    -0.003 C 
ATOM     17  C   UNL     1      40.445 -22.804 -36.748  0.00  0.00    -0.057 C 
ATOM     18  C   UNL     1      38.750 -21.034 -37.063  0.00  0.00    -0.057 C 
ATOM     19  C   UNL     1      41.145 -20.396 -36.239  0.00  0.00    -0.028 C 
ATOM     20  C   UNL     1      41.686 -20.110 -37.647  0.00  0.00    -0.049 C 
ATOM     21  C   UNL     1      43.088 -19.513 -37.590  0.00  0.00    -0.047 C 
ATOM     22  C   UNL     1      43.299 -18.258 -36.684  0.00  0.00    -0.023 C 
ATOM     23  C   UNL     1      44.708 -18.452 -36.024  0.00  0.00    -0.059 C 
ATOM     24  C   UNL     1      43.239 -16.874 -37.544  0.00  0.00    -0.021 C 
ATOM     25  C   UNL     1      41.833 -16.719 -38.212  0.00  0.00    -0.059 C 
ATOM     26  C   UNL     1      44.173 -16.753 -38.792  0.00  0.00    -0.018 C 
ATOM     27  C   UNL     1      45.675 -16.455 -38.626  0.00  0.00    +0.096 C 
ENDROOT
BRANCH   1  29
ATOM     28  C   UNL     1      43.426 -12.110 -35.723  0.00  0.00    -0.097 C 
ATOM     29  C   UNL     1      44.226 -12.941 -35.025  0.00  0.00    -0.048 C 
BRANCH  29  30
ATOM     30  C   UNL     1      44.096 -13.108 -33.523  0.00  0.00    +0.065 C 
BRANCH  30  31
ATOM     31  O   UNL     1      42.759 -12.895 -33.079  0.00  0.00    -0.391 OA
ATOM     32  H   UNL     1      42.305 -13.749 -33.001  0.00  0.00    +0.000 HD
ENDBRANCH  30  31
ENDBRANCH  29  30
ENDBRANCH   1  29
BRANCH  15  33
ATOM     33  O   UNL     1      38.329 -22.426 -34.661  0.00  0.00    -0.210 OA
BRANCH  33  34
ATOM     34  S   UNL     1      38.276 -23.820 -33.817  0.00  0.00    +0.239 S 
ATOM     35  O   UNL     1      39.516 -23.818 -33.044  0.00  0.00    -0.116 OA
ATOM     36  O   UNL     1      37.067 -23.679 -33.012  0.00  0.00    -0.116 OA
ATOM     37  O   UNL     1      38.203 -24.856 -34.844  0.00  0.00    -0.022 OA
ENDBRANCH  33  34
ENDBRANCH  15  33
BRANCH  27  38
ATOM     38  O   UNL     1      46.551 -17.582 -38.752  0.00  0.00    -0.210 OA
BRANCH  38  39
ATOM     39  S   UNL     1      46.569 -18.373 -39.287  0.00  0.00    +0.239 S 
ATOM     40  O   UNL     1      47.292 -17.522 -40.273  0.00  0.00    -0.116 OA
ATOM     41  O   UNL     1      46.587 -19.164 -39.821  0.00  0.00    -0.116 OA
ATOM     42  O   UNL     1      47.338 -18.937 -38.148  0.00  0.00    -0.022 OA
ENDBRANCH  38  39
ENDBRANCH  27  38
TORSDOF 7
ENDMDL
MODEL 13
REMARK VINA RESULT:    -6.359      2.693      3.596
REMARK INTER + INTRA:          -9.970
REMARK INTER:                  -8.506
REMARK INTRA:                  -1.464
REMARK UNBOUND:                -1.195
REMARK  Name = cpd282.pdb
REMARK  13 active torsions:
REMARK  status: ('A' for Active; 'I' for Inactive)
REMARK    1  A    between atoms: C_2  and  C_3
REMARK    2  A    between atoms: C_2  and  C_5
REMARK    3  A    between atoms: C_3  and  O_4
REMARK    4  A    between atoms: C_8  and  C_9
REMARK    5  A    between atoms: C_15  and  C_16
REMARK    6  A    between atoms: C_19  and  O_20
REMARK    7  A    between atoms: O_20  and  S_21
REMARK    8  A    between atoms: C_25  and  C_26
REMARK    9  A    between atoms: C_25  and  C_27
REMARK   10  A    between atoms: C_31  and  C_32
REMARK   11  A    between atoms: C_33  and  C_34
REMARK   12  A    between atoms: C_36  and  O_37
REMARK   13  A    between atoms: O_37  and  S_38
REMARK                            x       y       z     vdW  Elec       q    Type
REMARK                         _______ _______ _______ _____ _____    ______ ____
ROOT
ATOM      1  C   UNL     1      35.788 -38.995 -29.491  0.00  0.00    -0.014 C 
ATOM      2  C   UNL     1      36.327 -39.969 -30.554  0.00  0.00    -0.046 C 
ATOM      3  C   UNL     1      35.304 -39.968 -31.669  0.00  0.00    -0.044 C 
ATOM      4  C   UNL     1      33.941 -39.608 -31.024  0.00  0.00    +0.000 C 
ATOM      5  C   UNL     1      33.418 -40.835 -30.240  0.00  0.00    -0.057 C 
ATOM      6  C   UNL     1      34.384 -38.460 -30.022  0.00  0.00    -0.023 C 
ATOM      7  C   UNL     1      34.356 -37.007 -30.597  0.00  0.00    -0.031 C 
ATOM      8  C   UNL     1      34.580 -35.880 -29.556  0.00  0.00    -0.049 C 
ATOM      9  C   UNL     1      33.379 -35.400 -28.744  0.00  0.00    -0.049 C 
ATOM     10  C   UNL     1      32.035 -35.185 -29.482  0.00  0.00    -0.029 C 
ATOM     11  C   UNL     1      31.576 -33.670 -29.725  0.00  0.00    -0.025 C 
ATOM     12  C   UNL     1      32.645 -32.848 -30.472  0.00  0.00    -0.059 C 
ATOM     13  C   UNL     1      31.364 -32.977 -28.337  0.00  0.00    -0.045 C 
ATOM     14  C   UNL     1      30.684 -31.611 -28.413  0.00  0.00    -0.023 C 
ATOM     15  C   UNL     1      29.333 -31.655 -29.129  0.00  0.00    +0.095 C 
ATOM     16  C   UNL     1      29.411 -32.320 -30.543  0.00  0.00    -0.003 C 
ATOM     17  C   UNL     1      27.943 -32.577 -30.997  0.00  0.00    -0.057 C 
ATOM     18  C   UNL     1      30.009 -31.360 -31.594  0.00  0.00    -0.057 C 
ATOM     19  C   UNL     1      30.175 -33.696 -30.435  0.00  0.00    -0.028 C 
ATOM     20  C   UNL     1      30.271 -34.479 -31.751  0.00  0.00    -0.049 C 
ATOM     21  C   UNL     1      30.566 -35.953 -31.497  0.00  0.00    -0.047 C 
ATOM     22  C   UNL     1      31.794 -36.297 -30.595  0.00  0.00    -0.023 C 
ATOM     23  C   UNL     1      31.344 -37.523 -29.728  0.00  0.00    -0.059 C 
ATOM     24  C   UNL     1      33.115 -36.654 -31.480  0.00  0.00    -0.021 C 
ATOM     25  C   UNL     1      33.525 -35.423 -32.353  0.00  0.00    -0.059 C 
ATOM     26  C   UNL     1      32.976 -37.760 -32.577  0.00  0.00    -0.018 C 
ATOM     27  C   UNL     1      32.963 -39.253 -32.195  0.00  0.00    +0.096 C 
ENDROOT
BRANCH   1  29
ATOM     28  C   UNL     1      36.844 -37.770 -27.607  0.00  0.00    -0.097 C 
ATOM     29  C   UNL     1      36.878 -38.090 -28.917  0.00  0.00    -0.048 C 
BRANCH  29  30
ATOM     30  C   UNL     1      38.010 -37.647 -29.823  0.00  0.00    +0.065 C 
BRANCH  30  31
ATOM     31  O   UNL     1      38.037 -36.231 -29.985  0.00  0.00    -0.391 OA
ATOM     32  H   UNL     1      38.544 -35.833 -29.260  0.00  0.00    +0.000 HD
ENDBRANCH  30  31
ENDBRANCH  29  30
ENDBRANCH   1  29
BRANCH  15  33
ATOM     33  O   UNL     1      28.857 -30.317 -29.256  0.00  0.00    -0.210 OA
BRANCH  33  34
ATOM     34  S   UNL     1      27.551 -29.848 -28.398  0.00  0.00    +0.239 S 
ATOM     35  O   UNL     1      27.957 -28.582 -27.794  0.00  0.00    -0.116 OA
ATOM     36  O   UNL     1      26.510 -29.723 -29.414  0.00  0.00    -0.116 OA
ATOM     37  O   UNL     1      27.341 -30.935 -27.447  0.00  0.00    -0.022 OA
ENDBRANCH  33  34
ENDBRANCH  15  33
BRANCH  27  38
ATOM     38  O   UNL     1      31.674 -39.877 -32.167  0.00  0.00    -0.210 OA
BRANCH  38  39
ATOM     39  S   UNL     1      30.920 -39.908 -32.753  0.00  0.00    +0.239 S 
ATOM     40  O   UNL     1      31.713 -40.929 -33.493  0.00  0.00    -0.116 OA
ATOM     41  O   UNL     1      30.167 -39.938 -33.339  0.00  0.00    -0.116 OA
ATOM     42  O   UNL     1      30.188 -40.335 -31.534  0.00  0.00    -0.022 OA
ENDBRANCH  38  39
ENDBRANCH  27  38
TORSDOF 7
ENDMDL
MODEL 14
REMARK VINA RESULT:    -6.332     18.290     22.469
REMARK INTER + INTRA:          -9.933
REMARK INTER:                  -8.623
REMARK INTRA:                  -1.310
REMARK UNBOUND:                -1.195
REMARK  Name = cpd282.pdb
REMARK  13 active torsions:
REMARK  status: ('A' for Active; 'I' for Inactive)
REMARK    1  A    between atoms: C_2  and  C_3
REMARK    2  A    between atoms: C_2  and  C_5
REMARK    3  A    between atoms: C_3  and  O_4
REMARK    4  A    between atoms: C_8  and  C_9
REMARK    5  A    between atoms: C_15  and  C_16
REMARK    6  A    between atoms: C_19  and  O_20
REMARK    7  A    between atoms: O_20  and  S_21
REMARK    8  A    between atoms: C_25  and  C_26
REMARK    9  A    between atoms: C_25  and  C_27
REMARK   10  A    between atoms: C_31  and  C_32
REMARK   11  A    between atoms: C_33  and  C_34
REMARK   12  A    between atoms: C_36  and  O_37
REMARK   13  A    between atoms: O_37  and  S_38
REMARK                            x       y       z     vdW  Elec       q    Type
REMARK                         _______ _______ _______ _____ _____    ______ ____
ROOT
ATOM      1  C   UNL     1      39.625 -20.041 -34.607  0.00  0.00    -0.014 C 
ATOM      2  C   UNL     1      38.461 -20.908 -35.121  0.00  0.00    -0.046 C 
ATOM      3  C   UNL     1      38.308 -20.565 -36.587  0.00  0.00    -0.044 C 
ATOM      4  C   UNL     1      38.827 -19.114 -36.761  0.00  0.00    +0.000 C 
ATOM      5  C   UNL     1      37.775 -18.133 -36.189  0.00  0.00    -0.057 C 
ATOM      6  C   UNL     1      40.113 -19.148 -35.833  0.00  0.00    -0.023 C 
ATOM      7  C   UNL     1      41.444 -19.577 -36.531  0.00  0.00    -0.031 C 
ATOM      8  C   UNL     1      42.726 -19.401 -35.675  0.00  0.00    -0.049 C 
ATOM      9  C   UNL     1      43.385 -18.023 -35.642  0.00  0.00    -0.049 C 
ATOM     10  C   UNL     1      43.521 -17.245 -36.974  0.00  0.00    -0.029 C 
ATOM     11  C   UNL     1      44.987 -17.146 -37.610  0.00  0.00    -0.025 C 
ATOM     12  C   UNL     1      45.625 -18.533 -37.824  0.00  0.00    -0.059 C 
ATOM     13  C   UNL     1      45.918 -16.371 -36.619  0.00  0.00    -0.045 C 
ATOM     14  C   UNL     1      47.275 -15.983 -37.203  0.00  0.00    -0.023 C 
ATOM     15  C   UNL     1      47.160 -15.157 -38.484  0.00  0.00    +0.095 C 
ATOM     16  C   UNL     1      46.257 -15.832 -39.569  0.00  0.00    -0.003 C 
ATOM     17  C   UNL     1      45.982 -14.751 -40.656  0.00  0.00    -0.057 C 
ATOM     18  C   UNL     1      46.996 -16.975 -40.297  0.00  0.00    -0.057 C 
ATOM     19  C   UNL     1      44.893 -16.276 -38.914  0.00  0.00    -0.028 C 
ATOM     20  C   UNL     1      43.890 -16.905 -39.891  0.00  0.00    -0.049 C 
ATOM     21  C   UNL     1      42.471 -16.860 -39.332  0.00  0.00    -0.047 C 
ATOM     22  C   UNL     1      42.243 -17.443 -37.901  0.00  0.00    -0.023 C 
ATOM     23  C   UNL     1      41.204 -16.486 -37.222  0.00  0.00    -0.059 C 
ATOM     24  C   UNL     1      41.686 -18.975 -37.952  0.00  0.00    -0.021 C 
ATOM     25  C   UNL     1      42.730 -19.902 -38.657  0.00  0.00    -0.059 C 
ATOM     26  C   UNL     1      40.413 -19.255 -38.816  0.00  0.00    -0.018 C 
ATOM     27  C   UNL     1      39.011 -18.879 -38.299  0.00  0.00    +0.096 C 
ENDROOT
BRANCH   1  29
ATOM     28  C   UNL     1      41.204 -20.159 -32.695  0.00  0.00    -0.097 C 
ATOM     29  C   UNL     1      40.573 -20.814 -33.690  0.00  0.00    -0.048 C 
BRANCH  29  30
ATOM     30  C   UNL     1      40.710 -22.313 -33.880  0.00  0.00    +0.065 C 
BRANCH  30  31
ATOM     31  O   UNL     1      41.352 -22.636 -35.110  0.00  0.00    -0.391 OA
ATOM     32  H   UNL     1      42.253 -22.948 -34.932  0.00  0.00    +0.000 HD
ENDBRANCH  30  31
ENDBRANCH  29  30
ENDBRANCH   1  29
BRANCH  15  33
ATOM     33  O   UNL     1      48.473 -14.967 -39.006  0.00  0.00    -0.210 OA
BRANCH  33  34
ATOM     34  S   UNL     1      49.192 -13.510 -38.853  0.00  0.00    +0.239 S 
ATOM     35  O   UNL     1      49.741 -13.524 -37.500  0.00  0.00    -0.116 OA
ATOM     36  O   UNL     1      50.198 -13.520 -39.910  0.00  0.00    -0.116 OA
ATOM     37  O   UNL     1      48.107 -12.555 -39.058  0.00  0.00    -0.022 OA
ENDBRANCH  33  34
ENDBRANCH  15  33
BRANCH  27  38
ATOM     38  O   UNL     1      38.451 -17.675 -38.837  0.00  0.00    -0.210 OA
BRANCH  38  39
ATOM     39  S   UNL     1      38.435 -17.257 -39.695  0.00  0.00    +0.239 S 
ATOM     40  O   UNL     1      37.150 -17.989 -39.872  0.00  0.00    -0.116 OA
ATOM     41  O   UNL     1      38.418 -16.839 -40.553  0.00  0.00    -0.116 OA
ATOM     42  O   UNL     1      38.424 -15.998 -38.908  0.00  0.00    -0.022 OA
ENDBRANCH  38  39
ENDBRANCH  27  38
TORSDOF 7
ENDMDL
MODEL 15
REMARK VINA RESULT:    -6.315      2.309      3.164
REMARK INTER + INTRA:          -9.909
REMARK INTER:                  -8.589
REMARK INTRA:                  -1.319
REMARK UNBOUND:                -1.195
REMARK  Name = cpd282.pdb
REMARK  13 active torsions:
REMARK  status: ('A' for Active; 'I' for Inactive)
REMARK    1  A    between atoms: C_2  and  C_3
REMARK    2  A    between atoms: C_2  and  C_5
REMARK    3  A    between atoms: C_3  and  O_4
REMARK    4  A    between atoms: C_8  and  C_9
REMARK    5  A    between atoms: C_15  and  C_16
REMARK    6  A    between atoms: C_19  and  O_20
REMARK    7  A    between atoms: O_20  and  S_21
REMARK    8  A    between atoms: C_25  and  C_26
REMARK    9  A    between atoms: C_25  and  C_27
REMARK   10  A    between atoms: C_31  and  C_32
REMARK   11  A    between atoms: C_33  and  C_34
REMARK   12  A    between atoms: C_36  and  O_37
REMARK   13  A    between atoms: O_37  and  S_38
REMARK                            x       y       z     vdW  Elec       q    Type
REMARK                         _______ _______ _______ _____ _____    ______ ____
ROOT
ATOM      1  C   UNL     1      35.572 -37.481 -28.348  0.00  0.00    -0.014 C 
ATOM      2  C   UNL     1      35.486 -39.000 -28.107  0.00  0.00    -0.046 C 
ATOM      3  C   UNL     1      34.075 -39.260 -27.624  0.00  0.00    -0.044 C 
ATOM      4  C   UNL     1      33.592 -37.956 -26.938  0.00  0.00    +0.000 C 
ATOM      5  C   UNL     1      34.282 -37.830 -25.559  0.00  0.00    -0.057 C 
ATOM      6  C   UNL     1      34.160 -36.867 -27.942  0.00  0.00    -0.023 C 
ATOM      7  C   UNL     1      33.207 -36.458 -29.112  0.00  0.00    -0.031 C 
ATOM      8  C   UNL     1      33.680 -35.247 -29.957  0.00  0.00    -0.049 C 
ATOM      9  C   UNL     1      33.369 -33.843 -29.440  0.00  0.00    -0.049 C 
ATOM     10  C   UNL     1      31.959 -33.573 -28.860  0.00  0.00    -0.029 C 
ATOM     11  C   UNL     1      30.964 -32.693 -29.755  0.00  0.00    -0.025 C 
ATOM     12  C   UNL     1      30.774 -33.281 -31.166  0.00  0.00    -0.059 C 
ATOM     13  C   UNL     1      31.580 -31.266 -29.941  0.00  0.00    -0.045 C 
ATOM     14  C   UNL     1      30.627 -30.244 -30.559  0.00  0.00    -0.023 C 
ATOM     15  C   UNL     1      29.322 -30.095 -29.775  0.00  0.00    +0.095 C 
ATOM     16  C   UNL     1      28.596 -31.460 -29.528  0.00  0.00    -0.003 C 
ATOM     17  C   UNL     1      27.487 -31.189 -28.469  0.00  0.00    -0.057 C 
ATOM     18  C   UNL     1      27.857 -31.950 -30.791  0.00  0.00    -0.057 C 
ATOM     19  C   UNL     1      29.627 -32.505 -28.952  0.00  0.00    -0.028 C 
ATOM     20  C   UNL     1      29.025 -33.876 -28.613  0.00  0.00    -0.049 C 
ATOM     21  C   UNL     1      29.915 -34.645 -27.643  0.00  0.00    -0.047 C 
ATOM     22  C   UNL     1      31.420 -34.817 -28.027  0.00  0.00    -0.023 C 
ATOM     23  C   UNL     1      32.212 -34.669 -26.683  0.00  0.00    -0.059 C 
ATOM     24  C   UNL     1      31.706 -36.262 -28.724  0.00  0.00    -0.021 C 
ATOM     25  C   UNL     1      30.883 -36.392 -30.048  0.00  0.00    -0.059 C 
ATOM     26  C   UNL     1      31.237 -37.542 -27.959  0.00  0.00    -0.018 C 
ATOM     27  C   UNL     1      32.040 -38.084 -26.761  0.00  0.00    +0.096 C 
ENDROOT
BRANCH   1  29
ATOM     28  C   UNL     1      37.019 -35.989 -29.705  0.00  0.00    -0.097 C 
ATOM     29  C   UNL     1      36.309 -37.134 -29.641  0.00  0.00    -0.048 C 
BRANCH  29  30
ATOM     30  C   UNL     1      36.284 -38.129 -30.785  0.00  0.00    +0.065 C 
BRANCH  30  31
ATOM     31  O   UNL     1      35.182 -37.904 -31.660  0.00  0.00    -0.391 OA
ATOM     32  H   UNL     1      34.915 -38.744 -32.065  0.00  0.00    +0.000 HD
ENDBRANCH  30  31
ENDBRANCH  29  30
ENDBRANCH   1  29
BRANCH  15  33
ATOM     33  O   UNL     1      28.464 -29.224 -30.507  0.00  0.00    -0.210 OA
BRANCH  33  34
ATOM     34  S   UNL     1      27.876 -27.885 -29.784  0.00  0.00    +0.239 S 
ATOM     35  O   UNL     1      28.271 -26.796 -30.672  0.00  0.00    -0.116 OA
ATOM     36  O   UNL     1      26.438 -28.133 -29.739  0.00  0.00    -0.116 OA
ATOM     37  O   UNL     1      28.529 -27.871 -28.478  0.00  0.00    -0.022 OA
ENDBRANCH  33  34
ENDBRANCH  15  33
BRANCH  27  38
ATOM     38  O   UNL     1      31.514 -37.772 -25.465  0.00  0.00    -0.210 OA
BRANCH  38  39
ATOM     39  S   UNL     1      30.641 -37.712 -25.083  0.00  0.00    +0.239 S 
ATOM     40  O   UNL     1      30.886 -39.116 -24.650  0.00  0.00    -0.116 OA
ATOM     41  O   UNL     1      29.768 -37.652 -24.700  0.00  0.00    -0.116 OA
ATOM     42  O   UNL     1      31.239 -36.615 -24.280  0.00  0.00    -0.022 OA
ENDBRANCH  38  39
ENDBRANCH  27  38
TORSDOF 7
ENDMDL
MODEL 16
REMARK VINA RESULT:    -6.206     17.149     21.221
REMARK INTER + INTRA:          -9.759
REMARK INTER:                  -8.517
REMARK INTRA:                  -1.242
REMARK UNBOUND:                -1.195
REMARK  Name = cpd282.pdb
REMARK  13 active torsions:
REMARK  status: ('A' for Active; 'I' for Inactive)
REMARK    1  A    between atoms: C_2  and  C_3
REMARK    2  A    between atoms: C_2  and  C_5
REMARK    3  A    between atoms: C_3  and  O_4
REMARK    4  A    between atoms: C_8  and  C_9
REMARK    5  A    between atoms: C_15  and  C_16
REMARK    6  A    between atoms: C_19  and  O_20
REMARK    7  A    between atoms: O_20  and  S_21
REMARK    8  A    between atoms: C_25  and  C_26
REMARK    9  A    between atoms: C_25  and  C_27
REMARK   10  A    between atoms: C_31  and  C_32
REMARK   11  A    between atoms: C_33  and  C_34
REMARK   12  A    between atoms: C_36  and  O_37
REMARK   13  A    between atoms: O_37  and  S_38
REMARK                            x       y       z     vdW  Elec       q    Type
REMARK                         _______ _______ _______ _____ _____    ______ ____
ROOT
ATOM      1  C   UNL     1      38.284 -17.833 -33.470  0.00  0.00    -0.014 C 
ATOM      2  C   UNL     1      37.713 -18.950 -32.577  0.00  0.00    -0.046 C 
ATOM      3  C   UNL     1      38.359 -20.232 -33.058  0.00  0.00    -0.044 C 
ATOM      4  C   UNL     1      38.711 -20.019 -34.553  0.00  0.00    +0.000 C 
ATOM      5  C   UNL     1      37.411 -20.095 -35.390  0.00  0.00    -0.057 C 
ATOM      6  C   UNL     1      39.260 -18.531 -34.519  0.00  0.00    -0.023 C 
ATOM      7  C   UNL     1      40.794 -18.378 -34.264  0.00  0.00    -0.031 C 
ATOM      8  C   UNL     1      41.354 -16.943 -34.445  0.00  0.00    -0.049 C 
ATOM      9  C   UNL     1      41.715 -16.484 -35.856  0.00  0.00    -0.049 C 
ATOM     10  C   UNL     1      42.472 -17.473 -36.776  0.00  0.00    -0.029 C 
ATOM     11  C   UNL     1      44.021 -17.170 -37.047  0.00  0.00    -0.025 C 
ATOM     12  C   UNL     1      44.830 -17.049 -35.741  0.00  0.00    -0.059 C 
ATOM     13  C   UNL     1      44.146 -15.793 -37.782  0.00  0.00    -0.045 C 
ATOM     14  C   UNL     1      45.541 -15.495 -38.328  0.00  0.00    -0.023 C 
ATOM     15  C   UNL     1      46.059 -16.581 -39.271  0.00  0.00    +0.095 C 
ATOM     16  C   UNL     1      45.997 -18.015 -38.647  0.00  0.00    -0.003 C 
ATOM     17  C   UNL     1      46.244 -19.019 -39.812  0.00  0.00    -0.057 C 
ATOM     18  C   UNL     1      47.145 -18.251 -37.643  0.00  0.00    -0.057 C 
ATOM     19  C   UNL     1      44.563 -18.261 -38.039  0.00  0.00    -0.028 C 
ATOM     20  C   UNL     1      44.353 -19.659 -37.442  0.00  0.00    -0.049 C 
ATOM     21  C   UNL     1      42.870 -19.993 -37.324  0.00  0.00    -0.047 C 
ATOM     22  C   UNL     1      41.957 -18.966 -36.581  0.00  0.00    -0.023 C 
ATOM     23  C   UNL     1      40.611 -18.947 -37.384  0.00  0.00    -0.059 C 
ATOM     24  C   UNL     1      41.709 -19.389 -35.026  0.00  0.00    -0.021 C 
ATOM     25  C   UNL     1      43.071 -19.426 -34.257  0.00  0.00    -0.059 C 
ATOM     26  C   UNL     1      41.173 -20.831 -34.744  0.00  0.00    -0.018 C 
ATOM     27  C   UNL     1      39.687 -21.176 -34.959  0.00  0.00    +0.096 C 
ENDROOT
BRANCH   1  29
ATOM     28  C   UNL     1      39.228 -16.709 -31.468  0.00  0.00    -0.097 C 
ATOM     29  C   UNL     1      38.648 -16.578 -32.679  0.00  0.00    -0.048 C 
BRANCH  29  30
ATOM     30  C   UNL     1      38.418 -15.221 -33.316  0.00  0.00    +0.065 C 
BRANCH  30  31
ATOM     31  O   UNL     1      38.707 -14.155 -32.415  0.00  0.00    -0.391 OA
ATOM     32  H   UNL     1      37.898 -13.647 -32.245  0.00  0.00    +0.000 HD
ENDBRANCH  30  31
ENDBRANCH  29  30
ENDBRANCH   1  29
BRANCH  15  33
ATOM     33  O   UNL     1      47.407 -16.266 -39.611  0.00  0.00    -0.210 OA
BRANCH  33  34
ATOM     34  S   UNL     1      47.722 -15.522 -41.028  0.00  0.00    +0.239 S 
ATOM     35  O   UNL     1      46.438 -14.950 -41.425  0.00  0.00    -0.116 OA
ATOM     36  O   UNL     1      48.734 -14.533 -40.669  0.00  0.00    -0.116 OA
ATOM     37  O   UNL     1      48.203 -16.594 -41.893  0.00  0.00    -0.022 OA
ENDBRANCH  33  34
ENDBRANCH  15  33
BRANCH  27  38
ATOM     38  O   UNL     1      39.381 -21.881 -36.168  0.00  0.00    -0.210 OA
BRANCH  38  39
ATOM     39  S   UNL     1      39.816 -22.547 -36.695  0.00  0.00    +0.239 S 
ATOM     40  O   UNL     1      39.089 -23.512 -35.825  0.00  0.00    -0.116 OA
ATOM     41  O   UNL     1      40.252 -23.214 -37.223  0.00  0.00    -0.116 OA
ATOM     42  O   UNL     1      39.076 -21.919 -37.819  0.00  0.00    -0.022 OA
ENDBRANCH  38  39
ENDBRANCH  27  38
TORSDOF 7
ENDMDL
MODEL 17
REMARK VINA RESULT:    -6.199      4.249      8.547
REMARK INTER + INTRA:          -9.749
REMARK INTER:                  -8.705
REMARK INTRA:                  -1.044
REMARK UNBOUND:                -1.195
REMARK  Name = cpd282.pdb
REMARK  13 active torsions:
REMARK  status: ('A' for Active; 'I' for Inactive)
REMARK    1  A    between atoms: C_2  and  C_3
REMARK    2  A    between atoms: C_2  and  C_5
REMARK    3  A    between atoms: C_3  and  O_4
REMARK    4  A    between atoms: C_8  and  C_9
REMARK    5  A    between atoms: C_15  and  C_16
REMARK    6  A    between atoms: C_19  and  O_20
REMARK    7  A    between atoms: O_20  and  S_21
REMARK    8  A    between atoms: C_25  and  C_26
REMARK    9  A    between atoms: C_25  and  C_27
REMARK   10  A    between atoms: C_31  and  C_32
REMARK   11  A    between atoms: C_33  and  C_34
REMARK   12  A    between atoms: C_36  and  O_37
REMARK   13  A    between atoms: O_37  and  S_38
REMARK                            x       y       z     vdW  Elec       q    Type
REMARK                         _______ _______ _______ _____ _____    ______ ____
ROOT
ATOM      1  C   UNL     1      32.394 -34.027 -30.315  0.00  0.00    -0.014 C 
ATOM      2  C   UNL     1      32.271 -34.312 -31.823  0.00  0.00    -0.046 C 
ATOM      3  C   UNL     1      32.767 -35.729 -32.015  0.00  0.00    -0.044 C 
ATOM      4  C   UNL     1      33.773 -36.008 -30.869  0.00  0.00    +0.000 C 
ATOM      5  C   UNL     1      35.096 -35.264 -31.170  0.00  0.00    -0.057 C 
ATOM      6  C   UNL     1      33.023 -35.328 -29.647  0.00  0.00    -0.023 C 
ATOM      7  C   UNL     1      32.047 -36.252 -28.849  0.00  0.00    -0.031 C 
ATOM      8  C   UNL     1      31.486 -35.645 -27.537  0.00  0.00    -0.049 C 
ATOM      9  C   UNL     1      32.342 -35.745 -26.275  0.00  0.00    -0.049 C 
ATOM     10  C   UNL     1      33.057 -37.086 -25.980  0.00  0.00    -0.029 C 
ATOM     11  C   UNL     1      32.463 -37.979 -24.791  0.00  0.00    -0.025 C 
ATOM     12  C   UNL     1      30.967 -38.292 -24.988  0.00  0.00    -0.059 C 
ATOM     13  C   UNL     1      32.582 -37.180 -23.450  0.00  0.00    -0.045 C 
ATOM     14  C   UNL     1      32.288 -38.004 -22.198  0.00  0.00    -0.023 C 
ATOM     15  C   UNL     1      33.166 -39.251 -22.083  0.00  0.00    +0.095 C 
ATOM     16  C   UNL     1      33.126 -40.148 -23.365  0.00  0.00    -0.003 C 
ATOM     17  C   UNL     1      34.287 -41.176 -23.225  0.00  0.00    -0.057 C 
ATOM     18  C   UNL     1      31.833 -40.987 -23.435  0.00  0.00    -0.057 C 
ATOM     19  C   UNL     1      33.370 -39.252 -24.640  0.00  0.00    -0.028 C 
ATOM     20  C   UNL     1      33.411 -40.024 -25.965  0.00  0.00    -0.049 C 
ATOM     21  C   UNL     1      34.112 -39.218 -27.054  0.00  0.00    -0.047 C 
ATOM     22  C   UNL     1      33.603 -37.764 -27.312  0.00  0.00    -0.023 C 
ATOM     23  C   UNL     1      34.890 -36.916 -27.598  0.00  0.00    -0.059 C 
ATOM     24  C   UNL     1      32.565 -37.699 -28.568  0.00  0.00    -0.021 C 
ATOM     25  C   UNL     1      31.304 -38.574 -28.267  0.00  0.00    -0.059 C 
ATOM     26  C   UNL     1      33.033 -38.315 -29.927  0.00  0.00    -0.018 C 
ATOM     27  C   UNL     1      34.014 -37.556 -30.841  0.00  0.00    +0.096 C 
ENDROOT
BRANCH   1  29
ATOM     28  C   UNL     1      29.951 -33.593 -30.231  0.00  0.00    -0.097 C 
ATOM     29  C   UNL     1      31.177 -33.290 -29.757  0.00  0.00    -0.048 C 
BRANCH  29  30
ATOM     30  C   UNL     1      31.379 -32.296 -28.629  0.00  0.00    +0.065 C 
BRANCH  30  31
ATOM     31  O   UNL     1      31.827 -31.032 -29.110  0.00  0.00    -0.391 OA
ATOM     32  H   UNL     1      31.654 -30.968 -30.062  0.00  0.00    +0.000 HD
ENDBRANCH  30  31
ENDBRANCH  29  30
ENDBRANCH   1  29
BRANCH  15  33
ATOM     33  O   UNL     1      32.718 -40.004 -20.959  0.00  0.00    -0.210 OA
BRANCH  33  34
ATOM     34  S   UNL     1      33.703 -40.183 -19.671  0.00  0.00    +0.239 S 
ATOM     35  O   UNL     1      34.715 -39.145 -19.849  0.00  0.00    -0.116 OA
ATOM     36  O   UNL     1      32.812 -39.965 -18.535  0.00  0.00    -0.116 OA
ATOM     37  O   UNL     1      34.205 -41.548 -19.794  0.00  0.00    -0.022 OA
ENDBRANCH  33  34
ENDBRANCH  15  33
BRANCH  27  38
ATOM     38  O   UNL     1      35.377 -37.994 -30.792  0.00  0.00    -0.210 OA
BRANCH  38  39
ATOM     39  S   UNL     1      35.827 -38.784 -30.500  0.00  0.00    +0.239 S 
ATOM     40  O   UNL     1      35.352 -39.362 -31.788  0.00  0.00    -0.116 OA
ATOM     41  O   UNL     1      36.277 -39.574 -30.208  0.00  0.00    -0.116 OA
ATOM     42  O   UNL     1      37.032 -37.917 -30.521  0.00  0.00    -0.022 OA
ENDBRANCH  38  39
ENDBRANCH  27  38
TORSDOF 7
ENDMDL
MODEL 18
REMARK VINA RESULT:    -6.110     27.706     31.525
REMARK INTER + INTRA:          -9.627
REMARK INTER:                  -8.290
REMARK INTRA:                  -1.337
REMARK UNBOUND:                -1.195
REMARK  Name = cpd282.pdb
REMARK  13 active torsions:
REMARK  status: ('A' for Active; 'I' for Inactive)
REMARK    1  A    between atoms: C_2  and  C_3
REMARK    2  A    between atoms: C_2  and  C_5
REMARK    3  A    between atoms: C_3  and  O_4
REMARK    4  A    between atoms: C_8  and  C_9
REMARK    5  A    between atoms: C_15  and  C_16
REMARK    6  A    between atoms: C_19  and  O_20
REMARK    7  A    between atoms: O_20  and  S_21
REMARK    8  A    between atoms: C_25  and  C_26
REMARK    9  A    between atoms: C_25  and  C_27
REMARK   10  A    between atoms: C_31  and  C_32
REMARK   11  A    between atoms: C_33  and  C_34
REMARK   12  A    between atoms: C_36  and  O_37
REMARK   13  A    between atoms: O_37  and  S_38
REMARK                            x       y       z     vdW  Elec       q    Type
REMARK                         _______ _______ _______ _____ _____    ______ ____
ROOT
ATOM      1  C   UNL     1      60.695 -50.276 -45.738  0.00  0.00    -0.014 C 
ATOM      2  C   UNL     1      61.395 -51.648 -45.712  0.00  0.00    -0.046 C 
ATOM      3  C   UNL     1      60.287 -52.673 -45.597  0.00  0.00    -0.044 C 
ATOM      4  C   UNL     1      59.103 -51.970 -44.882  0.00  0.00    +0.000 C 
ATOM      5  C   UNL     1      59.438 -51.830 -43.378  0.00  0.00    -0.057 C 
ATOM      6  C   UNL     1      59.133 -50.550 -45.590  0.00  0.00    -0.023 C 
ATOM      7  C   UNL     1      58.269 -50.417 -46.885  0.00  0.00    -0.031 C 
ATOM      8  C   UNL     1      58.134 -48.977 -47.444  0.00  0.00    -0.049 C 
ATOM      9  C   UNL     1      57.064 -48.068 -46.842  0.00  0.00    -0.049 C 
ATOM     10  C   UNL     1      55.663 -48.669 -46.568  0.00  0.00    -0.029 C 
ATOM     11  C   UNL     1      54.479 -48.222 -47.548  0.00  0.00    -0.025 C 
ATOM     12  C   UNL     1      54.812 -48.495 -49.028  0.00  0.00    -0.059 C 
ATOM     13  C   UNL     1      54.265 -46.678 -47.413  0.00  0.00    -0.045 C 
ATOM     14  C   UNL     1      53.004 -46.154 -48.099  0.00  0.00    -0.023 C 
ATOM     15  C   UNL     1      51.730 -46.850 -47.619  0.00  0.00    +0.095 C 
ATOM     16  C   UNL     1      51.811 -48.410 -47.713  0.00  0.00    -0.003 C 
ATOM     17  C   UNL     1      50.601 -48.968 -46.908  0.00  0.00    -0.057 C 
ATOM     18  C   UNL     1      51.613 -48.906 -49.161  0.00  0.00    -0.057 C 
ATOM     19  C   UNL     1      53.155 -48.906 -47.053  0.00  0.00    -0.028 C 
ATOM     20  C   UNL     1      53.331 -50.430 -47.030  0.00  0.00    -0.049 C 
ATOM     21  C   UNL     1      54.359 -50.853 -45.987  0.00  0.00    -0.047 C 
ATOM     22  C   UNL     1      55.761 -50.166 -46.039  0.00  0.00    -0.023 C 
ATOM     23  C   UNL     1      56.175 -49.950 -44.542  0.00  0.00    -0.059 C 
ATOM     24  C   UNL     1      56.856 -51.082 -46.825  0.00  0.00    -0.021 C 
ATOM     25  C   UNL     1      56.405 -51.304 -48.307  0.00  0.00    -0.059 C 
ATOM     26  C   UNL     1      57.040 -52.561 -46.350  0.00  0.00    -0.018 C 
ATOM     27  C   UNL     1      57.846 -52.885 -45.078  0.00  0.00    +0.096 C 
ENDROOT
BRANCH   1  29
ATOM     28  C   UNL     1      61.719 -49.833 -47.956  0.00  0.00    -0.097 C 
ATOM     29  C   UNL     1      61.296 -49.331 -46.777  0.00  0.00    -0.048 C 
BRANCH  29  30
ATOM     30  C   UNL     1      61.325 -47.844 -46.480  0.00  0.00    +0.065 C 
BRANCH  30  31
ATOM     31  O   UNL     1      61.251 -47.064 -47.670  0.00  0.00    -0.391 OA
ATOM     32  H   UNL     1      61.735 -47.512 -48.382  0.00  0.00    +0.000 HD
ENDBRANCH  30  31
ENDBRANCH  29  30
ENDBRANCH   1  29
BRANCH  15  33
ATOM     33  O   UNL     1      50.644 -46.379 -48.413  0.00  0.00    -0.210 OA
BRANCH  33  34
ATOM     34  S   UNL     1      49.584 -45.318 -47.771  0.00  0.00    +0.239 S 
ATOM     35  O   UNL     1      48.445 -45.355 -48.684  0.00  0.00    -0.116 OA
ATOM     36  O   UNL     1      49.313 -45.874 -46.449  0.00  0.00    -0.116 OA
ATOM     37  O   UNL     1      50.311 -44.052 -47.758  0.00  0.00    -0.022 OA
ENDBRANCH  33  34
ENDBRANCH  15  33
BRANCH  27  38
ATOM     38  O   UNL     1      57.073 -53.173 -43.907  0.00  0.00    -0.210 OA
BRANCH  38  39
ATOM     39  S   UNL     1      56.292 -53.689 -43.718  0.00  0.00    +0.239 S 
ATOM     40  O   UNL     1      57.246 -54.823 -43.574  0.00  0.00    -0.116 OA
ATOM     41  O   UNL     1      55.511 -54.205 -43.529  0.00  0.00    -0.116 OA
ATOM     42  O   UNL     1      56.139 -52.751 -42.577  0.00  0.00    -0.022 OA
ENDBRANCH  38  39
ENDBRANCH  27  38
TORSDOF 7
ENDMDL
MODEL 19
REMARK VINA RESULT:    -5.927     18.290     20.121
REMARK INTER + INTRA:          -9.373
REMARK INTER:                  -7.975
REMARK INTRA:                  -1.398
REMARK UNBOUND:                -1.195
REMARK  Name = cpd282.pdb
REMARK  13 active torsions:
REMARK  status: ('A' for Active; 'I' for Inactive)
REMARK    1  A    between atoms: C_2  and  C_3
REMARK    2  A    between atoms: C_2  and  C_5
REMARK    3  A    between atoms: C_3  and  O_4
REMARK    4  A    between atoms: C_8  and  C_9
REMARK    5  A    between atoms: C_15  and  C_16
REMARK    6  A    between atoms: C_19  and  O_20
REMARK    7  A    between atoms: O_20  and  S_21
REMARK    8  A    between atoms: C_25  and  C_26
REMARK    9  A    between atoms: C_25  and  C_27
REMARK   10  A    between atoms: C_31  and  C_32
REMARK   11  A    between atoms: C_33  and  C_34
REMARK   12  A    between atoms: C_36  and  O_37
REMARK   13  A    between atoms: O_37  and  S_38
REMARK                            x       y       z     vdW  Elec       q    Type
REMARK                         _______ _______ _______ _____ _____    ______ ____
ROOT
ATOM      1  C   UNL     1      46.226 -19.414 -38.527  0.00  0.00    -0.014 C 
ATOM      2  C   UNL     1      47.257 -20.060 -37.584  0.00  0.00    -0.046 C 
ATOM      3  C   UNL     1      46.675 -19.938 -36.192  0.00  0.00    -0.044 C 
ATOM      4  C   UNL     1      45.747 -18.696 -36.206  0.00  0.00    +0.000 C 
ATOM      5  C   UNL     1      46.619 -17.417 -36.198  0.00  0.00    -0.057 C 
ATOM      6  C   UNL     1      45.038 -18.872 -37.614  0.00  0.00    -0.023 C 
ATOM      7  C   UNL     1      43.716 -19.706 -37.611  0.00  0.00    -0.031 C 
ATOM      8  C   UNL     1      42.922 -19.693 -38.943  0.00  0.00    -0.049 C 
ATOM      9  C   UNL     1      41.981 -18.519 -39.208  0.00  0.00    -0.049 C 
ATOM     10  C   UNL     1      41.085 -18.023 -38.047  0.00  0.00    -0.029 C 
ATOM     11  C   UNL     1      39.525 -18.373 -38.135  0.00  0.00    -0.025 C 
ATOM     12  C   UNL     1      39.274 -19.885 -38.294  0.00  0.00    -0.059 C 
ATOM     13  C   UNL     1      38.923 -17.682 -39.404  0.00  0.00    -0.045 C 
ATOM     14  C   UNL     1      37.397 -17.720 -39.478  0.00  0.00    -0.023 C 
ATOM     15  C   UNL     1      36.724 -17.112 -38.246  0.00  0.00    +0.095 C 
ATOM     16  C   UNL     1      37.235 -17.730 -36.902  0.00  0.00    -0.003 C 
ATOM     17  C   UNL     1      36.711 -16.809 -35.760  0.00  0.00    -0.057 C 
ATOM     18  C   UNL     1      36.612 -19.117 -36.637  0.00  0.00    -0.057 C 
ATOM     19  C   UNL     1      38.812 -17.732 -36.891  0.00  0.00    -0.028 C 
ATOM     20  C   UNL     1      39.442 -18.264 -35.597  0.00  0.00    -0.049 C 
ATOM     21  C   UNL     1      40.888 -17.801 -35.454  0.00  0.00    -0.047 C 
ATOM     22  C   UNL     1      41.852 -18.071 -36.653  0.00  0.00    -0.023 C 
ATOM     23  C   UNL     1      42.765 -16.801 -36.748  0.00  0.00    -0.059 C 
ATOM     24  C   UNL     1      42.740 -19.419 -36.425  0.00  0.00    -0.021 C 
ATOM     25  C   UNL     1      41.802 -20.666 -36.308  0.00  0.00    -0.059 C 
ATOM     26  C   UNL     1      43.552 -19.536 -35.094  0.00  0.00    -0.018 C 
ATOM     27  C   UNL     1      44.873 -18.766 -34.907  0.00  0.00    +0.096 C 
ENDROOT
BRANCH   1  29
ATOM     28  C   UNL     1      45.927 -21.566 -39.727  0.00  0.00    -0.097 C 
ATOM     29  C   UNL     1      46.012 -20.223 -39.806  0.00  0.00    -0.048 C 
BRANCH  29  30
ATOM     30  C   UNL     1      45.823 -19.481 -41.115  0.00  0.00    +0.065 C 
BRANCH  30  31
ATOM     31  O   UNL     1      46.919 -18.616 -41.399  0.00  0.00    -0.391 OA
ATOM     32  H   UNL     1      47.132 -18.664 -42.344  0.00  0.00    +0.000 HD
ENDBRANCH  30  31
ENDBRANCH  29  30
ENDBRANCH   1  29
BRANCH  15  33
ATOM     33  O   UNL     1      35.319 -17.319 -38.363  0.00  0.00    -0.210 OA
BRANCH  33  34
ATOM     34  S   UNL     1      34.345 -16.047 -38.672  0.00  0.00    +0.239 S 
ATOM     35  O   UNL     1      35.257 -14.910 -38.749  0.00  0.00    -0.116 OA
ATOM     36  O   UNL     1      33.721 -16.404 -39.942  0.00  0.00    -0.116 OA
ATOM     37  O   UNL     1      33.430 -16.016 -37.535  0.00  0.00    -0.022 OA
ENDBRANCH  33  34
ENDBRANCH  15  33
BRANCH  27  38
ATOM     38  O   UNL     1      44.792 -17.571 -34.121  0.00  0.00    -0.210 OA
BRANCH  38  39
ATOM     39  S   UNL     1      44.428 -17.341 -33.269  0.00  0.00    +0.239 S 
ATOM     40  O   UNL     1      45.717 -17.860 -32.734  0.00  0.00    -0.116 OA
ATOM     41  O   UNL     1      44.064 -17.111 -32.417  0.00  0.00    -0.116 OA
ATOM     42  O   UNL     1      44.402 -15.965 -33.826  0.00  0.00    -0.022 OA
ENDBRANCH  38  39
ENDBRANCH  27  38
TORSDOF 7
ENDMDL
MODEL 20
REMARK VINA RESULT:    -5.861      5.247      7.051
REMARK INTER + INTRA:          -9.283
REMARK INTER:                  -7.862
REMARK INTRA:                  -1.421
REMARK UNBOUND:                -1.195
REMARK  Name = cpd282.pdb
REMARK  13 active torsions:
REMARK  status: ('A' for Active; 'I' for Inactive)
REMARK    1  A    between atoms: C_2  and  C_3
REMARK    2  A    between atoms: C_2  and  C_5
REMARK    3  A    between atoms: C_3  and  O_4
REMARK    4  A    between atoms: C_8  and  C_9
REMARK    5  A    between atoms: C_15  and  C_16
REMARK    6  A    between atoms: C_19  and  O_20
REMARK    7  A    between atoms: O_20  and  S_21
REMARK    8  A    between atoms: C_25  and  C_26
REMARK    9  A    between atoms: C_25  and  C_27
REMARK   10  A    between atoms: C_31  and  C_32
REMARK   11  A    between atoms: C_33  and  C_34
REMARK   12  A    between atoms: C_36  and  O_37
REMARK   13  A    between atoms: O_37  and  S_38
REMARK                            x       y       z     vdW  Elec       q    Type
REMARK                         _______ _______ _______ _____ _____    ______ ____
ROOT
ATOM      1  C   UNL     1      35.876 -38.682 -29.587  0.00  0.00    -0.014 C 
ATOM      2  C   UNL     1      36.167 -37.992 -28.242  0.00  0.00    -0.046 C 
ATOM      3  C   UNL     1      35.280 -36.766 -28.209  0.00  0.00    -0.044 C 
ATOM      4  C   UNL     1      35.032 -36.355 -29.683  0.00  0.00    +0.000 C 
ATOM      5  C   UNL     1      36.313 -35.691 -30.242  0.00  0.00    -0.057 C 
ATOM      6  C   UNL     1      34.810 -37.777 -30.351  0.00  0.00    -0.023 C 
ATOM      7  C   UNL     1      33.336 -38.295 -30.376  0.00  0.00    -0.031 C 
ATOM      8  C   UNL     1      33.099 -39.577 -31.216  0.00  0.00    -0.049 C 
ATOM      9  C   UNL     1      32.892 -39.423 -32.722  0.00  0.00    -0.049 C 
ATOM     10  C   UNL     1      31.973 -38.280 -33.220  0.00  0.00    -0.029 C 
ATOM     11  C   UNL     1      30.534 -38.701 -33.783  0.00  0.00    -0.025 C 
ATOM     12  C   UNL     1      29.726 -39.525 -32.761  0.00  0.00    -0.059 C 
ATOM     13  C   UNL     1      30.728 -39.611 -35.041  0.00  0.00    -0.045 C 
ATOM     14  C   UNL     1      29.447 -39.879 -35.829  0.00  0.00    -0.023 C 
ATOM     15  C   UNL     1      28.743 -38.598 -36.278  0.00  0.00    +0.095 C 
ATOM     16  C   UNL     1      28.478 -37.600 -35.102  0.00  0.00    -0.003 C 
ATOM     17  C   UNL     1      28.062 -36.247 -35.751  0.00  0.00    -0.057 C 
ATOM     18  C   UNL     1      27.273 -38.037 -34.242  0.00  0.00    -0.057 C 
ATOM     19  C   UNL     1      29.806 -37.399 -34.275  0.00  0.00    -0.028 C 
ATOM     20  C   UNL     1      29.694 -36.395 -33.121  0.00  0.00    -0.049 C 
ATOM     21  C   UNL     1      31.068 -35.891 -32.691  0.00  0.00    -0.047 C 
ATOM     22  C   UNL     1      32.152 -36.962 -32.348  0.00  0.00    -0.023 C 
ATOM     23  C   UNL     1      33.498 -36.387 -32.911  0.00  0.00    -0.059 C 
ATOM     24  C   UNL     1      32.253 -37.230 -30.743  0.00  0.00    -0.021 C 
ATOM     25  C   UNL     1      30.890 -37.778 -30.205  0.00  0.00    -0.059 C 
ATOM     26  C   UNL     1      32.461 -35.992 -29.812  0.00  0.00    -0.018 C 
ATOM     27  C   UNL     1      33.846 -35.331 -29.677  0.00  0.00    +0.096 C 
ENDROOT
BRANCH   1  29
ATOM     28  C   UNL     1      36.222 -40.984 -30.451  0.00  0.00    -0.097 C 
ATOM     29  C   UNL     1      35.761 -40.200 -29.455  0.00  0.00    -0.048 C 
BRANCH  29  30
ATOM     30  C   UNL     1      35.203 -40.780 -28.169  0.00  0.00    +0.065 C 
BRANCH  30  31
ATOM     31  O   UNL     1      36.030 -41.820 -27.653  0.00  0.00    -0.391 OA
ATOM     32  H   UNL     1      36.914 -41.756 -28.048  0.00  0.00    +0.000 HD
ENDBRANCH  30  31
ENDBRANCH  29  30
ENDBRANCH   1  29
BRANCH  15  33
ATOM     33  O   UNL     1      27.504 -38.964 -36.882  0.00  0.00    -0.210 OA
BRANCH  33  34
ATOM     34  S   UNL     1      27.313 -38.777 -38.491  0.00  0.00    +0.239 S 
ATOM     35  O   UNL     1      27.082 -40.132 -38.984  0.00  0.00    -0.116 OA
ATOM     36  O   UNL     1      26.153 -37.896 -38.591  0.00  0.00    -0.116 OA
ATOM     37  O   UNL     1      28.569 -38.177 -38.932  0.00  0.00    -0.022 OA
ENDBRANCH  33  34
ENDBRANCH  15  33
BRANCH  27  38
ATOM     38  O   UNL     1      34.036 -34.124 -30.424  0.00  0.00    -0.210 OA
BRANCH  38  39
ATOM     39  S   UNL     1      33.513 -33.345 -30.602  0.00  0.00    +0.239 S 
ATOM     40  O   UNL     1      34.080 -32.842 -29.319  0.00  0.00    -0.116 OA
ATOM     41  O   UNL     1      32.990 -32.565 -30.779  0.00  0.00    -0.116 OA
ATOM     42  O   UNL     1      34.351 -33.252 -31.824  0.00  0.00    -0.022 OA
ENDBRANCH  38  39
ENDBRANCH  27  38
TORSDOF 7
ENDMDL
