REMARK  Name = cpd282.pdb
REMARK  13 active torsions:
REMARK  status: ('A' for Active; 'I' for Inactive)
REMARK    1  A    between atoms: C_2  and  C_3
REMARK    2  A    between atoms: C_2  and  C_5
REMARK    3  A    between atoms: C_3  and  O_4
REMARK    4  A    between atoms: C_8  and  C_9
REMARK    5  A    between atoms: C_15  and  C_16
REMARK    6  A    between atoms: C_19  and  O_20
REMARK    7  A    between atoms: O_20  and  S_21
REMARK    8  A    between atoms: C_25  and  C_26
REMARK    9  A    between atoms: C_25  and  C_27
REMARK   10  A    between atoms: C_31  and  C_32
REMARK   11  A    between atoms: C_33  and  C_34
REMARK   12  A    between atoms: C_36  and  O_37
REMARK   13  A    between atoms: O_37  and  S_38
REMARK                            x       y       z     vdW  Elec       q    Type
REMARK                         _______ _______ _______ _____ _____    ______ ____
ROOT
ATOM      1  C   UNL     1      -1.566   5.216   0.593  0.00  0.00    -0.014 C 
ATOM      2  C   UNL     1      -0.320   5.710  -0.165  0.00  0.00    -0.046 C 
ATOM      3  C   UNL     1       0.302   4.476  -0.782  0.00  0.00    -0.044 C 
ATOM      4  C   UNL     1      -0.099   3.278   0.117  0.00  0.00    +0.000 C 
ATOM      5  C   UNL     1       0.738   3.325   1.418  0.00  0.00    -0.057 C 
ATOM      6  C   UNL     1      -1.615   3.633   0.422  0.00  0.00    -0.023 C 
ATOM      7  C   UNL     1      -2.663   3.066  -0.589  0.00  0.00    -0.031 C 
ATOM      8  C   UNL     1      -4.146   3.234  -0.168  0.00  0.00    -0.049 C 
ATOM      9  C   UNL     1      -4.748   2.196   0.777  0.00  0.00    -0.049 C 
ATOM     10  C   UNL     1      -4.432   0.702   0.520  0.00  0.00    -0.029 C 
ATOM     11  C   UNL     1      -5.615  -0.197  -0.077  0.00  0.00    -0.025 C 
ATOM     12  C   UNL     1      -6.184   0.382  -1.387  0.00  0.00    -0.059 C 
ATOM     13  C   UNL     1      -6.795  -0.228   0.951  0.00  0.00    -0.045 C 
ATOM     14  C   UNL     1      -7.885  -1.249   0.628  0.00  0.00    -0.023 C 
ATOM     15  C   UNL     1      -7.346  -2.673   0.486  0.00  0.00    +0.095 C 
ATOM     16  C   UNL     1      -6.160  -2.781  -0.529  0.00  0.00    -0.003 C 
ATOM     17  C   UNL     1      -5.526  -4.189  -0.326  0.00  0.00    -0.057 C 
ATOM     18  C   UNL     1      -6.655  -2.754  -1.991  0.00  0.00    -0.057 C 
ATOM     19  C   UNL     1      -5.088  -1.671  -0.203  0.00  0.00    -0.028 C 
ATOM     20  C   UNL     1      -3.841  -1.705  -1.097  0.00  0.00    -0.049 C 
ATOM     21  C   UNL     1      -2.675  -0.967  -0.448  0.00  0.00    -0.047 C 
ATOM     22  C   UNL     1      -2.930   0.496   0.037  0.00  0.00    -0.023 C 
ATOM     23  C   UNL     1      -2.140   0.632   1.384  0.00  0.00    -0.059 C 
ATOM     24  C   UNL     1      -2.423   1.594  -1.056  0.00  0.00    -0.021 C 
ATOM     25  C   UNL     1      -3.209   1.418  -2.397  0.00  0.00    -0.059 C 
ATOM     26  C   UNL     1      -0.948   1.485  -1.563  0.00  0.00    -0.018 C 
ATOM     27  C   UNL     1       0.224   1.975  -0.691  0.00  0.00    +0.096 C 
ENDROOT
BRANCH   1  29
ATOM     28  C   UNL     1      -3.404   6.634   1.473  0.00  0.00    -0.097 C 
ATOM     29  C   UNL     1      -2.775   6.129   0.392  0.00  0.00    -0.048 C 
BRANCH  29  30
ATOM     30  C   UNL     1      -3.180   6.503  -1.021  0.00  0.00    +0.065 C 
BRANCH  30  31
ATOM     31  O   UNL     1      -4.446   7.156  -1.055  0.00  0.00    -0.391 OA
ATOM     32  H   UNL     1      -5.127   6.559  -0.707  0.00  0.00    +0.000 HD
ENDBRANCH  30  31
ENDBRANCH  29  30
ENDBRANCH   1  29
BRANCH  15  33
ATOM     33  O   UNL     1      -8.418  -3.510   0.059  0.00  0.00    -0.210 OA
BRANCH  33  34
ATOM     34  S   UNL     1      -9.192  -4.440   1.153  0.00  0.00    +0.239 S 
ATOM     35  O   UNL     1      -9.707  -3.487   2.132  0.00  0.00    -0.116 OA
ATOM     36  O   UNL     1     -10.223  -5.103   0.360  0.00  0.00    -0.116 OA
ATOM     37  O   UNL     1      -8.153  -5.331   1.661  0.00  0.00    -0.022 OA
ENDBRANCH  33  34
ENDBRANCH  15  33
BRANCH  27  38
ATOM     38  O   UNL     1       0.955   0.955   0.000  0.00  0.00    -0.210 OA
BRANCH  38  39
ATOM     39  S   UNL     1       0.955   0.000   0.000  0.00  0.00    +0.239 S 
ATOM     40  O   UNL     1       2.037   0.139  -1.014  0.00  0.00    -0.116 OA
ATOM     41  O   UNL     1       0.955  -0.955   0.000  0.00  0.00    -0.116 OA
ATOM     42  O   UNL     1       1.311   0.156   1.433  0.00  0.00    -0.022 OA
ENDBRANCH  38  39
ENDBRANCH  27  38
TORSDOF 7
