MODEL 1
REMARK VINA RESULT:    -3.816      0.000      0.000
REMARK INTER + INTRA:          -2.460
REMARK INTER:                  -4.039
REMARK INTRA:                   1.579
REMARK UNBOUND:                 1.579
REMARK  Name = cpd207.pdb
REMARK  6 active torsions:
REMARK  status: ('A' for Active; 'I' for Inactive)
REMARK    1  A    between atoms: C_1  and  N_2
REMARK    2  A    between atoms: N_2  and  C_3
REMARK    3  A    between atoms: N_2  and  C_4
REMARK    4  A    between atoms: N_2  and  C_5
REMARK    5  A    between atoms: C_5  and  C_6
REMARK    6  A    between atoms: C_6  and  C_7
REMARK                            x       y       z     vdW  Elec       q    Type
REMARK                         _______ _______ _______ _____ _____    ______ ____
ROOT
ATOM      1  C   UNL     1      48.310 -21.281 -41.820  0.00  0.00    -0.101 C 
ATOM      2  N   UNL     1      48.175 -22.199 -41.446  0.00  0.00    +0.374 N 
ATOM      3  C   UNL     1      49.095 -22.175 -41.054  0.00  0.00    -0.101 C 
ATOM      4  C   UNL     1      48.040 -23.116 -41.072  0.00  0.00    -0.101 C 
ENDROOT
BRANCH   2   5
ATOM      5  C   UNL     1      47.255 -22.222 -41.837  0.00  0.00    -0.088 C 
BRANCH   5   6
ATOM      6  C   UNL     1      45.585 -21.954 -41.319  0.00  0.00    -0.058 C 
BRANCH   6   7
ATOM      7  C   UNL     1      44.672 -21.743 -42.531  0.00  0.00    +0.002 C 
ATOM      8 BR   UNL     1      44.357 -19.841 -42.768  0.00  0.00    -0.092 Br
ENDBRANCH   6   7
ENDBRANCH   5   6
ENDBRANCH   2   5
TORSDOF 3
ENDMDL
MODEL 2
REMARK VINA RESULT:    -3.793      1.277      1.611
REMARK INTER + INTRA:          -2.436
REMARK INTER:                  -4.030
REMARK INTRA:                   1.594
REMARK UNBOUND:                 1.579
REMARK  Name = cpd207.pdb
REMARK  6 active torsions:
REMARK  status: ('A' for Active; 'I' for Inactive)
REMARK    1  A    between atoms: C_1  and  N_2
REMARK    2  A    between atoms: N_2  and  C_3
REMARK    3  A    between atoms: N_2  and  C_4
REMARK    4  A    between atoms: N_2  and  C_5
REMARK    5  A    between atoms: C_5  and  C_6
REMARK    6  A    between atoms: C_6  and  C_7
REMARK                            x       y       z     vdW  Elec       q    Type
REMARK                         _______ _______ _______ _____ _____    ______ ____
ROOT
ATOM      1  C   UNL     1      47.053 -22.973 -42.315  0.00  0.00    -0.101 C 
ATOM      2  N   UNL     1      47.686 -22.751 -41.573  0.00  0.00    +0.374 N 
ATOM      3  C   UNL     1      48.241 -23.549 -41.809  0.00  0.00    -0.101 C 
ATOM      4  C   UNL     1      48.319 -22.530 -40.832  0.00  0.00    -0.101 C 
ENDROOT
BRANCH   2   5
ATOM      5  C   UNL     1      47.131 -21.954 -41.337  0.00  0.00    -0.088 C 
BRANCH   5   6
ATOM      6  C   UNL     1      46.981 -20.255 -41.809  0.00  0.00    -0.058 C 
BRANCH   6   7
ATOM      7  C   UNL     1      45.622 -19.695 -41.379  0.00  0.00    +0.002 C 
ATOM      8 BR   UNL     1      44.356 -19.904 -42.837  0.00  0.00    -0.092 Br
ENDBRANCH   6   7
ENDBRANCH   5   6
ENDBRANCH   2   5
TORSDOF 3
ENDMDL
MODEL 3
REMARK VINA RESULT:    -3.785     37.508     38.471
REMARK INTER + INTRA:          -2.428
REMARK INTER:                  -4.046
REMARK INTRA:                   1.618
REMARK UNBOUND:                 1.579
REMARK  Name = cpd207.pdb
REMARK  6 active torsions:
REMARK  status: ('A' for Active; 'I' for Inactive)
REMARK    1  A    between atoms: C_1  and  N_2
REMARK    2  A    between atoms: N_2  and  C_3
REMARK    3  A    between atoms: N_2  and  C_4
REMARK    4  A    between atoms: N_2  and  C_5
REMARK    5  A    between atoms: C_5  and  C_6
REMARK    6  A    between atoms: C_6  and  C_7
REMARK                            x       y       z     vdW  Elec       q    Type
REMARK                         _______ _______ _______ _____ _____    ______ ____
ROOT
ATOM      1  C   UNL     1      62.450 -26.880  -6.859  0.00  0.00    -0.101 C 
ATOM      2  N   UNL     1      63.201 -26.535  -6.295  0.00  0.00    +0.374 N 
ATOM      3  C   UNL     1      63.142 -27.350  -5.718  0.00  0.00    -0.101 C 
ATOM      4  C   UNL     1      63.951 -26.190  -5.732  0.00  0.00    -0.101 C 
ENDROOT
BRANCH   2   5
ATOM      5  C   UNL     1      63.260 -25.721  -6.873  0.00  0.00    -0.088 C 
BRANCH   5   6
ATOM      6  C   UNL     1      64.256 -25.103  -8.198  0.00  0.00    -0.058 C 
BRANCH   6   7
ATOM      7  C   UNL     1      63.991 -23.611  -8.420  0.00  0.00    +0.002 C 
ATOM      8 BR   UNL     1      63.542 -23.315 -10.287  0.00  0.00    -0.092 Br
ENDBRANCH   6   7
ENDBRANCH   5   6
ENDBRANCH   2   5
TORSDOF 3
ENDMDL
MODEL 4
REMARK VINA RESULT:    -3.734     36.696     37.688
REMARK INTER + INTRA:          -2.374
REMARK INTER:                  -4.033
REMARK INTRA:                   1.659
REMARK UNBOUND:                 1.579
REMARK  Name = cpd207.pdb
REMARK  6 active torsions:
REMARK  status: ('A' for Active; 'I' for Inactive)
REMARK    1  A    between atoms: C_1  and  N_2
REMARK    2  A    between atoms: N_2  and  C_3
REMARK    3  A    between atoms: N_2  and  C_4
REMARK    4  A    between atoms: N_2  and  C_5
REMARK    5  A    between atoms: C_5  and  C_6
REMARK    6  A    between atoms: C_6  and  C_7
REMARK                            x       y       z     vdW  Elec       q    Type
REMARK                         _______ _______ _______ _____ _____    ______ ____
ROOT
ATOM      1  C   UNL     1      62.323 -25.846  -6.902  0.00  0.00    -0.101 C 
ATOM      2  N   UNL     1      63.310 -25.989  -6.985  0.00  0.00    +0.374 N 
ATOM      3  C   UNL     1      63.253 -26.755  -6.345  0.00  0.00    -0.101 C 
ATOM      4  C   UNL     1      64.296 -26.132  -7.068  0.00  0.00    -0.101 C 
ENDROOT
BRANCH   2   5
ATOM      5  C   UNL     1      63.367 -25.223  -7.626  0.00  0.00    -0.088 C 
BRANCH   5   6
ATOM      6  C   UNL     1      62.814 -24.812  -9.255  0.00  0.00    -0.058 C 
BRANCH   6   7
ATOM      7  C   UNL     1      63.823 -23.894  -9.950  0.00  0.00    +0.002 C 
ATOM      8 BR   UNL     1      63.137 -22.076  -9.951  0.00  0.00    -0.092 Br
ENDBRANCH   6   7
ENDBRANCH   5   6
ENDBRANCH   2   5
TORSDOF 3
ENDMDL
MODEL 5
REMARK VINA RESULT:    -3.704     18.844     19.543
REMARK INTER + INTRA:          -2.342
REMARK INTER:                  -4.008
REMARK INTRA:                   1.666
REMARK UNBOUND:                 1.579
REMARK  Name = cpd207.pdb
REMARK  6 active torsions:
REMARK  status: ('A' for Active; 'I' for Inactive)
REMARK    1  A    between atoms: C_1  and  N_2
REMARK    2  A    between atoms: N_2  and  C_3
REMARK    3  A    between atoms: N_2  and  C_4
REMARK    4  A    between atoms: N_2  and  C_5
REMARK    5  A    between atoms: C_5  and  C_6
REMARK    6  A    between atoms: C_6  and  C_7
REMARK                            x       y       z     vdW  Elec       q    Type
REMARK                         _______ _______ _______ _____ _____    ______ ____
ROOT
ATOM      1  C   UNL     1      38.309 -36.812 -30.756  0.00  0.00    -0.101 C 
ATOM      2  N   UNL     1      38.246 -35.938 -31.239  0.00  0.00    +0.374 N 
ATOM      3  C   UNL     1      37.248 -35.988 -31.200  0.00  0.00    -0.101 C 
ATOM      4  C   UNL     1      38.184 -35.065 -31.721  0.00  0.00    -0.101 C 
ENDROOT
BRANCH   2   5
ATOM      5  C   UNL     1      39.244 -35.888 -31.278  0.00  0.00    -0.088 C 
BRANCH   5   6
ATOM      6  C   UNL     1      40.529 -35.945 -32.493  0.00  0.00    -0.058 C 
BRANCH   6   7
ATOM      7  C   UNL     1      41.902 -36.028 -31.821  0.00  0.00    +0.002 C 
ATOM      8 BR   UNL     1      42.352 -37.894 -31.517  0.00  0.00    -0.092 Br
ENDBRANCH   6   7
ENDBRANCH   5   6
ENDBRANCH   2   5
TORSDOF 3
ENDMDL
MODEL 6
REMARK VINA RESULT:    -3.701     18.401     18.954
REMARK INTER + INTRA:          -2.339
REMARK INTER:                  -3.997
REMARK INTRA:                   1.658
REMARK UNBOUND:                 1.579
REMARK  Name = cpd207.pdb
REMARK  6 active torsions:
REMARK  status: ('A' for Active; 'I' for Inactive)
REMARK    1  A    between atoms: C_1  and  N_2
REMARK    2  A    between atoms: N_2  and  C_3
REMARK    3  A    between atoms: N_2  and  C_4
REMARK    4  A    between atoms: N_2  and  C_5
REMARK    5  A    between atoms: C_5  and  C_6
REMARK    6  A    between atoms: C_6  and  C_7
REMARK                            x       y       z     vdW  Elec       q    Type
REMARK                         _______ _______ _______ _____ _____    ______ ____
ROOT
ATOM      1  C   UNL     1      42.776 -36.905 -31.670  0.00  0.00    -0.101 C 
ATOM      2  N   UNL     1      41.952 -37.199 -31.184  0.00  0.00    +0.374 N 
ATOM      3  C   UNL     1      42.409 -38.049 -30.924  0.00  0.00    -0.101 C 
ATOM      4  C   UNL     1      41.129 -37.493 -30.699  0.00  0.00    -0.101 C 
ENDROOT
BRANCH   2   5
ATOM      5  C   UNL     1      41.495 -36.348 -31.444  0.00  0.00    -0.088 C 
BRANCH   5   6
ATOM      6  C   UNL     1      40.299 -35.791 -32.623  0.00  0.00    -0.058 C 
BRANCH   6   7
ATOM      7  C   UNL     1      39.376 -34.741 -31.998  0.00  0.00    +0.002 C 
ATOM      8 BR   UNL     1      37.757 -35.611 -31.367  0.00  0.00    -0.092 Br
ENDBRANCH   6   7
ENDBRANCH   5   6
ENDBRANCH   2   5
TORSDOF 3
ENDMDL
MODEL 7
REMARK VINA RESULT:    -3.612     36.882     37.922
REMARK INTER + INTRA:          -2.244
REMARK INTER:                  -3.861
REMARK INTRA:                   1.616
REMARK UNBOUND:                 1.579
REMARK  Name = cpd207.pdb
REMARK  6 active torsions:
REMARK  status: ('A' for Active; 'I' for Inactive)
REMARK    1  A    between atoms: C_1  and  N_2
REMARK    2  A    between atoms: N_2  and  C_3
REMARK    3  A    between atoms: N_2  and  C_4
REMARK    4  A    between atoms: N_2  and  C_5
REMARK    5  A    between atoms: C_5  and  C_6
REMARK    6  A    between atoms: C_6  and  C_7
REMARK                            x       y       z     vdW  Elec       q    Type
REMARK                         _______ _______ _______ _____ _____    ______ ____
ROOT
ATOM      1  C   UNL     1      62.533 -24.220  -8.457  0.00  0.00    -0.101 C 
ATOM      2  N   UNL     1      63.375 -24.261  -8.994  0.00  0.00    +0.374 N 
ATOM      3  C   UNL     1      63.057 -23.494  -9.551  0.00  0.00    -0.101 C 
ATOM      4  C   UNL     1      64.218 -24.301  -9.531  0.00  0.00    -0.101 C 
ENDROOT
BRANCH   2   5
ATOM      5  C   UNL     1      63.694 -25.028  -8.437  0.00  0.00    -0.088 C 
BRANCH   5   6
ATOM      6  C   UNL     1      64.466 -25.298  -6.868  0.00  0.00    -0.058 C 
BRANCH   6   7
ATOM      7  C   UNL     1      64.752 -26.787  -6.658  0.00  0.00    +0.002 C 
ATOM      8 BR   UNL     1      63.211 -27.620  -5.818  0.00  0.00    -0.092 Br
ENDBRANCH   6   7
ENDBRANCH   5   6
ENDBRANCH   2   5
TORSDOF 3
ENDMDL
MODEL 8
REMARK VINA RESULT:    -3.577      1.174      1.613
REMARK INTER + INTRA:          -2.207
REMARK INTER:                  -3.832
REMARK INTRA:                   1.625
REMARK UNBOUND:                 1.579
REMARK  Name = cpd207.pdb
REMARK  6 active torsions:
REMARK  status: ('A' for Active; 'I' for Inactive)
REMARK    1  A    between atoms: C_1  and  N_2
REMARK    2  A    between atoms: N_2  and  C_3
REMARK    3  A    between atoms: N_2  and  C_4
REMARK    4  A    between atoms: N_2  and  C_5
REMARK    5  A    between atoms: C_5  and  C_6
REMARK    6  A    between atoms: C_6  and  C_7
REMARK                            x       y       z     vdW  Elec       q    Type
REMARK                         _______ _______ _______ _____ _____    ______ ____
ROOT
ATOM      1  C   UNL     1      46.832 -23.029 -40.915  0.00  0.00    -0.101 C 
ATOM      2  N   UNL     1      47.437 -22.406 -41.410  0.00  0.00    +0.374 N 
ATOM      3  C   UNL     1      48.223 -22.971 -41.160  0.00  0.00    -0.101 C 
ATOM      4  C   UNL     1      48.042 -21.782 -41.905  0.00  0.00    -0.101 C 
ENDROOT
BRANCH   2   5
ATOM      5  C   UNL     1      46.651 -21.841 -41.659  0.00  0.00    -0.088 C 
BRANCH   5   6
ATOM      6  C   UNL     1      45.271 -21.901 -42.766  0.00  0.00    -0.058 C 
BRANCH   6   7
ATOM      7  C   UNL     1      44.320 -20.730 -42.504  0.00  0.00    +0.002 C 
ATOM      8 BR   UNL     1      42.977 -21.275 -41.210  0.00  0.00    -0.092 Br
ENDBRANCH   6   7
ENDBRANCH   5   6
ENDBRANCH   2   5
TORSDOF 3
ENDMDL
MODEL 9
REMARK VINA RESULT:    -3.569     10.840     11.320
REMARK INTER + INTRA:          -2.199
REMARK INTER:                  -3.956
REMARK INTRA:                   1.757
REMARK UNBOUND:                 1.579
REMARK  Name = cpd207.pdb
REMARK  6 active torsions:
REMARK  status: ('A' for Active; 'I' for Inactive)
REMARK    1  A    between atoms: C_1  and  N_2
REMARK    2  A    between atoms: N_2  and  C_3
REMARK    3  A    between atoms: N_2  and  C_4
REMARK    4  A    between atoms: N_2  and  C_5
REMARK    5  A    between atoms: C_5  and  C_6
REMARK    6  A    between atoms: C_6  and  C_7
REMARK                            x       y       z     vdW  Elec       q    Type
REMARK                         _______ _______ _______ _____ _____    ______ ____
ROOT
ATOM      1  C   UNL     1      56.223 -21.258 -46.316  0.00  0.00    -0.101 C 
ATOM      2  N   UNL     1      56.959 -21.894 -46.549  0.00  0.00    +0.374 N 
ATOM      3  C   UNL     1      57.636 -21.198 -46.313  0.00  0.00    -0.101 C 
ATOM      4  C   UNL     1      57.694 -22.530 -46.782  0.00  0.00    -0.101 C 
ENDROOT
BRANCH   2   5
ATOM      5  C   UNL     1      56.282 -22.591 -46.786  0.00  0.00    -0.088 C 
BRANCH   5   6
ATOM      6  C   UNL     1      54.983 -22.833 -47.963  0.00  0.00    -0.058 C 
BRANCH   6   7
ATOM      7  C   UNL     1      55.378 -23.899 -48.989  0.00  0.00    +0.002 C 
ATOM      8 BR   UNL     1      56.224 -23.036 -50.510  0.00  0.00    -0.092 Br
ENDBRANCH   6   7
ENDBRANCH   5   6
ENDBRANCH   2   5
TORSDOF 3
ENDMDL
MODEL 10
REMARK VINA RESULT:    -3.530     19.612     20.126
REMARK INTER + INTRA:          -2.157
REMARK INTER:                  -3.799
REMARK INTRA:                   1.642
REMARK UNBOUND:                 1.579
REMARK  Name = cpd207.pdb
REMARK  6 active torsions:
REMARK  status: ('A' for Active; 'I' for Inactive)
REMARK    1  A    between atoms: C_1  and  N_2
REMARK    2  A    between atoms: N_2  and  C_3
REMARK    3  A    between atoms: N_2  and  C_4
REMARK    4  A    between atoms: N_2  and  C_5
REMARK    5  A    between atoms: C_5  and  C_6
REMARK    6  A    between atoms: C_6  and  C_7
REMARK                            x       y       z     vdW  Elec       q    Type
REMARK                         _______ _______ _______ _____ _____    ______ ____
ROOT
ATOM      1  C   UNL     1      39.968 -35.723 -32.037  0.00  0.00    -0.101 C 
ATOM      2  N   UNL     1      40.517 -36.488 -31.700  0.00  0.00    +0.374 N 
ATOM      3  C   UNL     1      41.130 -36.394 -32.484  0.00  0.00    -0.101 C 
ATOM      4  C   UNL     1      41.065 -37.253 -31.363  0.00  0.00    -0.101 C 
ENDROOT
BRANCH   2   5
ATOM      5  C   UNL     1      39.903 -36.582 -30.916  0.00  0.00    -0.088 C 
BRANCH   5   6
ATOM      6  C   UNL     1      38.298 -37.233 -30.557  0.00  0.00    -0.058 C 
BRANCH   6   7
ATOM      7  C   UNL     1      38.211 -37.678 -29.095  0.00  0.00    +0.002 C 
ATOM      8 BR   UNL     1      36.489 -37.150 -28.367  0.00  0.00    -0.092 Br
ENDBRANCH   6   7
ENDBRANCH   5   6
ENDBRANCH   2   5
TORSDOF 3
ENDMDL
MODEL 11
REMARK VINA RESULT:    -3.329     16.526     17.429
REMARK INTER + INTRA:          -1.945
REMARK INTER:                  -3.522
REMARK INTRA:                   1.578
REMARK UNBOUND:                 1.579
REMARK  Name = cpd207.pdb
REMARK  6 active torsions:
REMARK  status: ('A' for Active; 'I' for Inactive)
REMARK    1  A    between atoms: C_1  and  N_2
REMARK    2  A    between atoms: N_2  and  C_3
REMARK    3  A    between atoms: N_2  and  C_4
REMARK    4  A    between atoms: N_2  and  C_5
REMARK    5  A    between atoms: C_5  and  C_6
REMARK    6  A    between atoms: C_6  and  C_7
REMARK                            x       y       z     vdW  Elec       q    Type
REMARK                         _______ _______ _______ _____ _____    ______ ____
ROOT
ATOM      1  C   UNL     1      53.833 -35.815 -46.745  0.00  0.00    -0.101 C 
ATOM      2  N   UNL     1      54.445 -35.240 -46.202  0.00  0.00    +0.374 N 
ATOM      3  C   UNL     1      53.655 -34.783 -45.794  0.00  0.00    -0.101 C 
ATOM      4  C   UNL     1      55.058 -34.666 -45.658  0.00  0.00    -0.101 C 
ENDROOT
BRANCH   2   5
ATOM      5  C   UNL     1      55.236 -35.697 -46.609  0.00  0.00    -0.088 C 
BRANCH   5   6
ATOM      6  C   UNL     1      56.398 -35.426 -47.916  0.00  0.00    -0.058 C 
BRANCH   6   7
ATOM      7  C   UNL     1      57.113 -36.730 -48.279  0.00  0.00    +0.002 C 
ATOM      8 BR   UNL     1      56.234 -37.534 -49.814  0.00  0.00    -0.092 Br
ENDBRANCH   6   7
ENDBRANCH   5   6
ENDBRANCH   2   5
TORSDOF 3
ENDMDL
MODEL 12
REMARK VINA RESULT:    -3.308     37.980     38.978
REMARK INTER + INTRA:          -1.923
REMARK INTER:                  -3.504
REMARK INTRA:                   1.581
REMARK UNBOUND:                 1.579
REMARK  Name = cpd207.pdb
REMARK  6 active torsions:
REMARK  status: ('A' for Active; 'I' for Inactive)
REMARK    1  A    between atoms: C_1  and  N_2
REMARK    2  A    between atoms: N_2  and  C_3
REMARK    3  A    between atoms: N_2  and  C_4
REMARK    4  A    between atoms: N_2  and  C_5
REMARK    5  A    between atoms: C_5  and  C_6
REMARK    6  A    between atoms: C_6  and  C_7
REMARK                            x       y       z     vdW  Elec       q    Type
REMARK                         _______ _______ _______ _____ _____    ______ ____
ROOT
ATOM      1  C   UNL     1      63.052 -24.155  -8.064  0.00  0.00    -0.101 C 
ATOM      2  N   UNL     1      62.585 -25.004  -7.815  0.00  0.00    +0.374 N 
ATOM      3  C   UNL     1      62.235 -25.085  -8.748  0.00  0.00    -0.101 C 
ATOM      4  C   UNL     1      62.118 -25.852  -7.565  0.00  0.00    -0.101 C 
ENDROOT
BRANCH   2   5
ATOM      5  C   UNL     1      62.935 -24.922  -6.882  0.00  0.00    -0.088 C 
BRANCH   5   6
ATOM      6  C   UNL     1      64.310 -25.492  -5.926  0.00  0.00    -0.058 C 
BRANCH   6   7
ATOM      7  C   UNL     1      64.132 -25.120  -4.451  0.00  0.00    +0.002 C 
ATOM      8 BR   UNL     1      65.357 -23.680  -4.005  0.00  0.00    -0.092 Br
ENDBRANCH   6   7
ENDBRANCH   5   6
ENDBRANCH   2   5
TORSDOF 3
ENDMDL
MODEL 13
REMARK VINA RESULT:    -3.298     38.364     39.353
REMARK INTER + INTRA:          -1.912
REMARK INTER:                  -3.549
REMARK INTRA:                   1.637
REMARK UNBOUND:                 1.579
REMARK  Name = cpd207.pdb
REMARK  6 active torsions:
REMARK  status: ('A' for Active; 'I' for Inactive)
REMARK    1  A    between atoms: C_1  and  N_2
REMARK    2  A    between atoms: N_2  and  C_3
REMARK    3  A    between atoms: N_2  and  C_4
REMARK    4  A    between atoms: N_2  and  C_5
REMARK    5  A    between atoms: C_5  and  C_6
REMARK    6  A    between atoms: C_6  and  C_7
REMARK                            x       y       z     vdW  Elec       q    Type
REMARK                         _______ _______ _______ _____ _____    ______ ____
ROOT
ATOM      1  C   UNL     1      64.594 -23.721  -5.133  0.00  0.00    -0.101 C 
ATOM      2  N   UNL     1      64.390 -24.699  -5.152  0.00  0.00    +0.374 N 
ATOM      3  C   UNL     1      64.267 -24.694  -4.160  0.00  0.00    -0.101 C 
ATOM      4  C   UNL     1      64.186 -25.678  -5.172  0.00  0.00    -0.101 C 
ENDROOT
BRANCH   2   5
ATOM      5  C   UNL     1      64.513 -24.705  -6.145  0.00  0.00    -0.088 C 
BRANCH   5   6
ATOM      6  C   UNL     1      63.520 -24.829  -7.604  0.00  0.00    -0.058 C 
BRANCH   6   7
ATOM      7  C   UNL     1      64.403 -24.857  -8.855  0.00  0.00    +0.002 C 
ATOM      8 BR   UNL     1      63.742 -23.550 -10.132  0.00  0.00    -0.092 Br
ENDBRANCH   6   7
ENDBRANCH   5   6
ENDBRANCH   2   5
TORSDOF 3
ENDMDL
MODEL 14
REMARK VINA RESULT:    -3.295      2.872      3.278
REMARK INTER + INTRA:          -1.909
REMARK INTER:                  -3.509
REMARK INTRA:                   1.600
REMARK UNBOUND:                 1.579
REMARK  Name = cpd207.pdb
REMARK  6 active torsions:
REMARK  status: ('A' for Active; 'I' for Inactive)
REMARK    1  A    between atoms: C_1  and  N_2
REMARK    2  A    between atoms: N_2  and  C_3
REMARK    3  A    between atoms: N_2  and  C_4
REMARK    4  A    between atoms: N_2  and  C_5
REMARK    5  A    between atoms: C_5  and  C_6
REMARK    6  A    between atoms: C_6  and  C_7
REMARK                            x       y       z     vdW  Elec       q    Type
REMARK                         _______ _______ _______ _____ _____    ______ ____
ROOT
ATOM      1  C   UNL     1      46.749 -23.019 -40.840  0.00  0.00    -0.101 C 
ATOM      2  N   UNL     1      47.694 -22.729 -40.690  0.00  0.00    +0.374 N 
ATOM      3  C   UNL     1      47.985 -23.267 -41.481  0.00  0.00    -0.101 C 
ATOM      4  C   UNL     1      48.640 -22.439 -40.541  0.00  0.00    -0.101 C 
ENDROOT
BRANCH   2   5
ATOM      5  C   UNL     1      47.404 -22.191 -39.899  0.00  0.00    -0.088 C 
BRANCH   5   6
ATOM      6  C   UNL     1      46.835 -20.554 -39.544  0.00  0.00    -0.058 C 
BRANCH   6   7
ATOM      7  C   UNL     1      46.463 -20.422 -38.064  0.00  0.00    +0.002 C 
ATOM      8 BR   UNL     1      47.328 -18.846 -37.328  0.00  0.00    -0.092 Br
ENDBRANCH   6   7
ENDBRANCH   5   6
ENDBRANCH   2   5
TORSDOF 3
ENDMDL
MODEL 15
REMARK VINA RESULT:    -3.194     16.728     17.553
REMARK INTER + INTRA:          -1.802
REMARK INTER:                  -3.432
REMARK INTRA:                   1.630
REMARK UNBOUND:                 1.579
REMARK  Name = cpd207.pdb
REMARK  6 active torsions:
REMARK  status: ('A' for Active; 'I' for Inactive)
REMARK    1  A    between atoms: C_1  and  N_2
REMARK    2  A    between atoms: N_2  and  C_3
REMARK    3  A    between atoms: N_2  and  C_4
REMARK    4  A    between atoms: N_2  and  C_5
REMARK    5  A    between atoms: C_5  and  C_6
REMARK    6  A    between atoms: C_6  and  C_7
REMARK                            x       y       z     vdW  Elec       q    Type
REMARK                         _______ _______ _______ _____ _____    ______ ____
ROOT
ATOM      1  C   UNL     1      54.269 -35.530 -45.734  0.00  0.00    -0.101 C 
ATOM      2  N   UNL     1      54.928 -35.237 -46.427  0.00  0.00    +0.374 N 
ATOM      3  C   UNL     1      55.203 -34.473 -45.843  0.00  0.00    -0.101 C 
ATOM      4  C   UNL     1      55.586 -34.944 -47.120  0.00  0.00    -0.101 C 
ENDROOT
BRANCH   2   5
ATOM      5  C   UNL     1      54.652 -36.000 -47.012  0.00  0.00    -0.088 C 
BRANCH   5   6
ATOM      6  C   UNL     1      55.102 -37.689 -47.289  0.00  0.00    -0.058 C 
BRANCH   6   7
ATOM      7  C   UNL     1      54.731 -38.118 -48.711  0.00  0.00    +0.002 C 
ATOM      8 BR   UNL     1      52.962 -38.919 -48.696  0.00  0.00    -0.092 Br
ENDBRANCH   6   7
ENDBRANCH   5   6
ENDBRANCH   2   5
TORSDOF 3
ENDMDL
MODEL 16
REMARK VINA RESULT:    -3.093     40.245     40.856
REMARK INTER + INTRA:          -1.695
REMARK INTER:                  -3.308
REMARK INTRA:                   1.613
REMARK UNBOUND:                 1.579
REMARK  Name = cpd207.pdb
REMARK  6 active torsions:
REMARK  status: ('A' for Active; 'I' for Inactive)
REMARK    1  A    between atoms: C_1  and  N_2
REMARK    2  A    between atoms: N_2  and  C_3
REMARK    3  A    between atoms: N_2  and  C_4
REMARK    4  A    between atoms: N_2  and  C_5
REMARK    5  A    between atoms: C_5  and  C_6
REMARK    6  A    between atoms: C_6  and  C_7
REMARK                            x       y       z     vdW  Elec       q    Type
REMARK                         _______ _______ _______ _____ _____    ______ ____
ROOT
ATOM      1  C   UNL     1      65.103 -25.730  -6.575  0.00  0.00    -0.101 C 
ATOM      2  N   UNL     1      64.369 -26.114  -6.014  0.00  0.00    +0.374 N 
ATOM      3  C   UNL     1      64.482 -26.996  -6.472  0.00  0.00    -0.101 C 
ATOM      4  C   UNL     1      63.636 -26.499  -5.453  0.00  0.00    -0.101 C 
ENDROOT
BRANCH   2   5
ATOM      5  C   UNL     1      64.257 -25.232  -5.556  0.00  0.00    -0.088 C 
BRANCH   5   6
ATOM      6  C   UNL     1      64.865 -24.396  -4.121  0.00  0.00    -0.058 C 
BRANCH   6   7
ATOM      7  C   UNL     1      64.409 -22.934  -4.116  0.00  0.00    +0.002 C 
ATOM      8 BR   UNL     1      65.081 -22.061  -2.516  0.00  0.00    -0.092 Br
ENDBRANCH   6   7
ENDBRANCH   5   6
ENDBRANCH   2   5
TORSDOF 3
ENDMDL
MODEL 17
REMARK VINA RESULT:    -3.068     19.950     21.205
REMARK INTER + INTRA:          -1.669
REMARK INTER:                  -3.283
REMARK INTRA:                   1.614
REMARK UNBOUND:                 1.579
REMARK  Name = cpd207.pdb
REMARK  6 active torsions:
REMARK  status: ('A' for Active; 'I' for Inactive)
REMARK    1  A    between atoms: C_1  and  N_2
REMARK    2  A    between atoms: N_2  and  C_3
REMARK    3  A    between atoms: N_2  and  C_4
REMARK    4  A    between atoms: N_2  and  C_5
REMARK    5  A    between atoms: C_5  and  C_6
REMARK    6  A    between atoms: C_6  and  C_7
REMARK                            x       y       z     vdW  Elec       q    Type
REMARK                         _______ _______ _______ _____ _____    ______ ____
ROOT
ATOM      1  C   UNL     1      64.805 -14.184 -29.647  0.00  0.00    -0.101 C 
ATOM      2  N   UNL     1      64.722 -15.046 -30.146  0.00  0.00    +0.374 N 
ATOM      3  C   UNL     1      65.716 -15.154 -30.126  0.00  0.00    -0.101 C 
ATOM      4  C   UNL     1      64.638 -15.909 -30.645  0.00  0.00    -0.101 C 
ENDROOT
BRANCH   2   5
ATOM      5  C   UNL     1      63.728 -14.939 -30.167  0.00  0.00    -0.088 C 
BRANCH   5   6
ATOM      6  C   UNL     1      62.485 -14.289 -31.246  0.00  0.00    -0.058 C 
BRANCH   6   7
ATOM      7  C   UNL     1      61.133 -14.221 -30.530  0.00  0.00    +0.002 C 
ATOM      8 BR   UNL     1      59.935 -13.070 -31.538  0.00  0.00    -0.092 Br
ENDBRANCH   6   7
ENDBRANCH   5   6
ENDBRANCH   2   5
TORSDOF 3
ENDMDL
MODEL 18
REMARK VINA RESULT:    -3.032     19.247     20.331
REMARK INTER + INTRA:          -1.631
REMARK INTER:                  -3.227
REMARK INTRA:                   1.596
REMARK UNBOUND:                 1.579
REMARK  Name = cpd207.pdb
REMARK  6 active torsions:
REMARK  status: ('A' for Active; 'I' for Inactive)
REMARK    1  A    between atoms: C_1  and  N_2
REMARK    2  A    between atoms: N_2  and  C_3
REMARK    3  A    between atoms: N_2  and  C_4
REMARK    4  A    between atoms: N_2  and  C_5
REMARK    5  A    between atoms: C_5  and  C_6
REMARK    6  A    between atoms: C_6  and  C_7
REMARK                            x       y       z     vdW  Elec       q    Type
REMARK                         _______ _______ _______ _____ _____    ______ ____
ROOT
ATOM      1  C   UNL     1      60.609 -13.198 -29.856  0.00  0.00    -0.101 C 
ATOM      2  N   UNL     1      60.341 -13.691 -30.684  0.00  0.00    +0.374 N 
ATOM      3  C   UNL     1      59.453 -13.231 -30.670  0.00  0.00    -0.101 C 
ATOM      4  C   UNL     1      60.072 -14.184 -31.512  0.00  0.00    -0.101 C 
ENDROOT
BRANCH   2   5
ATOM      5  C   UNL     1      61.229 -14.151 -30.698  0.00  0.00    -0.088 C 
BRANCH   5   6
ATOM      6  C   UNL     1      62.790 -13.998 -31.517  0.00  0.00    -0.058 C 
BRANCH   6   7
ATOM      7  C   UNL     1      63.719 -15.150 -31.122  0.00  0.00    +0.002 C 
ATOM      8 BR   UNL     1      65.060 -14.490 -29.881  0.00  0.00    -0.092 Br
ENDBRANCH   6   7
ENDBRANCH   5   6
ENDBRANCH   2   5
TORSDOF 3
ENDMDL
MODEL 19
REMARK VINA RESULT:    -2.997     17.201     17.744
REMARK INTER + INTRA:          -1.593
REMARK INTER:                  -3.192
REMARK INTRA:                   1.598
REMARK UNBOUND:                 1.579
REMARK  Name = cpd207.pdb
REMARK  6 active torsions:
REMARK  status: ('A' for Active; 'I' for Inactive)
REMARK    1  A    between atoms: C_1  and  N_2
REMARK    2  A    between atoms: N_2  and  C_3
REMARK    3  A    between atoms: N_2  and  C_4
REMARK    4  A    between atoms: N_2  and  C_5
REMARK    5  A    between atoms: C_5  and  C_6
REMARK    6  A    between atoms: C_6  and  C_7
REMARK                            x       y       z     vdW  Elec       q    Type
REMARK                         _______ _______ _______ _____ _____    ______ ____
ROOT
ATOM      1  C   UNL     1      55.925 -35.580 -50.739  0.00  0.00    -0.101 C 
ATOM      2  N   UNL     1      56.144 -34.720 -50.277  0.00  0.00    +0.374 N 
ATOM      3  C   UNL     1      56.546 -34.368 -51.123  0.00  0.00    -0.101 C 
ATOM      4  C   UNL     1      56.364 -33.860 -49.816  0.00  0.00    -0.101 C 
ENDROOT
BRANCH   2   5
ATOM      5  C   UNL     1      55.743 -35.072 -49.432  0.00  0.00    -0.088 C 
BRANCH   5   6
ATOM      6  C   UNL     1      56.278 -35.821 -47.921  0.00  0.00    -0.058 C 
BRANCH   6   7
ATOM      7  C   UNL     1      55.090 -36.044 -46.980  0.00  0.00    +0.002 C 
ATOM      8 BR   UNL     1      54.855 -34.471 -45.864  0.00  0.00    -0.092 Br
ENDBRANCH   6   7
ENDBRANCH   5   6
ENDBRANCH   2   5
TORSDOF 3
ENDMDL
MODEL 20
REMARK VINA RESULT:    -2.945     18.451     18.883
REMARK INTER + INTRA:          -1.539
REMARK INTER:                  -3.136
REMARK INTRA:                   1.597
REMARK UNBOUND:                 1.579
REMARK  Name = cpd207.pdb
REMARK  6 active torsions:
REMARK  status: ('A' for Active; 'I' for Inactive)
REMARK    1  A    between atoms: C_1  and  N_2
REMARK    2  A    between atoms: N_2  and  C_3
REMARK    3  A    between atoms: N_2  and  C_4
REMARK    4  A    between atoms: N_2  and  C_5
REMARK    5  A    between atoms: C_5  and  C_6
REMARK    6  A    between atoms: C_6  and  C_7
REMARK                            x       y       z     vdW  Elec       q    Type
REMARK                         _______ _______ _______ _____ _____    ______ ____
ROOT
ATOM      1  C   UNL     1      45.212 -37.897 -53.603  0.00  0.00    -0.101 C 
ATOM      2  N   UNL     1      44.797 -37.191 -54.177  0.00  0.00    +0.374 N 
ATOM      3  C   UNL     1      44.229 -37.885 -54.619  0.00  0.00    -0.101 C 
ATOM      4  C   UNL     1      44.381 -36.485 -54.750  0.00  0.00    -0.101 C 
ENDROOT
BRANCH   2   5
ATOM      5  C   UNL     1      45.364 -36.497 -53.734  0.00  0.00    -0.088 C 
BRANCH   5   6
ATOM      6  C   UNL     1      45.202 -35.240 -52.500  0.00  0.00    -0.058 C 
BRANCH   6   7
ATOM      7  C   UNL     1      46.479 -34.398 -52.419  0.00  0.00    +0.002 C 
ATOM      8 BR   UNL     1      46.230 -32.762 -53.436  0.00  0.00    -0.092 Br
ENDBRANCH   6   7
ENDBRANCH   5   6
ENDBRANCH   2   5
TORSDOF 3
ENDMDL
