REMARK  Name = cpd207.pdb
REMARK  6 active torsions:
REMARK  status: ('A' for Active; 'I' for Inactive)
REMARK    1  A    between atoms: C_1  and  N_2
REMARK    2  A    between atoms: N_2  and  C_3
REMARK    3  A    between atoms: N_2  and  C_4
REMARK    4  A    between atoms: N_2  and  C_5
REMARK    5  A    between atoms: C_5  and  C_6
REMARK    6  A    between atoms: C_6  and  C_7
REMARK                            x       y       z     vdW  Elec       q    Type
REMARK                         _______ _______ _______ _____ _____    ______ ____
ROOT
ATOM      1  C   UNL     1       1.000  -1.000   0.000  0.00  0.00    -0.101 C 
ATOM      2  N   UNL     1       1.000   0.000   0.000  0.00  0.00    +0.374 N 
ATOM      3  C   UNL     1       2.000   0.000   0.000  0.00  0.00    -0.101 C 
ATOM      4  C   UNL     1       1.000   1.000   0.000  0.00  0.00    -0.101 C 
ENDROOT
BRANCH   2   5
ATOM      5  C   UNL     1       0.000   0.000   0.000  0.00  0.00    -0.088 C 
BRANCH   5   6
ATOM      6  C   UNL     1      -1.327  -1.170   0.020  0.00  0.00    -0.058 C 
BRANCH   6   7
ATOM      7  C   UNL     1      -2.679  -0.451  -0.002  0.00  0.00    +0.002 C 
ATOM      8 BR   UNL     1      -4.104  -1.771   0.034  0.00  0.00    -0.092 Br
ENDBRANCH   6   7
ENDBRANCH   5   6
ENDBRANCH   2   5
TORSDOF 3
